# generated using pymatgen
data_H2O
_symmetry_space_group_name_H-M   'P 1'
_cell_length_a   17.98251713
_cell_length_b   17.98314217
_cell_length_c   21.99368693
_cell_angle_alpha   89.99083436
_cell_angle_beta   89.96207510
_cell_angle_gamma   120.06440175
_symmetry_Int_Tables_number   1
_chemical_formula_structural   H2O
_chemical_formula_sum   'H384 O192'
_cell_volume   6155.48620358
_cell_formula_units_Z   192
loop_
 _symmetry_equiv_pos_site_id
 _symmetry_equiv_pos_as_xyz
  1  'x, y, z'
loop_
 _atom_type_symbol
 _atom_type_oxidation_number
  H+  1.0
  O2-  -2.0
loop_
 _atom_site_type_symbol
 _atom_site_label
 _atom_site_symmetry_multiplicity
 _atom_site_fract_x
 _atom_site_fract_y
 _atom_site_fract_z
 _atom_site_occupancy
  H+  H0  1  0.12760108  0.69743480  0.16045712  1
  H+  H1  1  0.86342983  0.13260991  0.33623124  1
  H+  H2  1  0.89839800  0.02685143  0.84604978  1
  H+  H3  1  0.25956931  0.86815365  0.49310342  1
  H+  H4  1  0.67446358  0.59315770  0.25001455  1
  H+  H5  1  0.84227656  0.24913199  0.47728562  1
  H+  H6  1  0.87755552  0.11777879  0.55120529  1
  H+  H7  1  0.38073483  0.23283521  1.01040563  1
  H+  H8  1  0.10249379  0.37180089  0.50548606  1
  H+  H9  1  0.47895564  0.35517410  0.84340522  1
  H+  H10  1  0.03399365  0.65110830  0.34431839  1
  H+  H11  1  0.12248055  0.98969250  0.65804484  1
  H+  H12  1  0.52441561  0.88793715  0.82273817  1
  H+  H13  1  0.72819882  0.36794591  0.84225271  1
  H+  H14  1  0.41934801  0.56785545  0.25141956  1
  H+  H15  1  0.03037575  0.15722861  0.00846375  1
  H+  H16  1  0.18263566  0.58744719  0.30647872  1
  H+  H17  1  0.13951814  0.03468257  0.83155882  1
  H+  H18  1  0.92331252  0.08818862  0.26797594  1
  H+  H19  1  0.11278650  0.63738755  0.82436536  1
  H+  H20  1  0.23956962  0.40394003  0.84173961  1
  H+  H21  1  0.35703751  0.75025817  0.39362461  1
  H+  H22  1  0.97317722  0.60603559  0.50626873  1
  H+  H23  1  0.40336869  0.12125332  0.66700879  1
  H+  H24  1  0.53257731  0.39792146  0.33605170  1
  H+  H25  1  0.84223863  0.14408746  0.74263106  1
  H+  H26  1  0.46000628  0.98782313  0.12493906  1
  H+  H27  1  0.47239096  0.83535600  0.18431513  1
  H+  H28  1  0.48956037  0.60408299  0.31457125  1
  H+  H29  1  0.11580331  0.64343191  0.67319148  1
  H+  H30  1  0.27178938  0.38292249  0.15886855  1
  H+  H31  1  0.21257575  0.35619751  0.51084126  1
  H+  H32  1  0.42064394  0.83154405  0.90003203  1
  H+  H33  1  0.86367561  0.48129345  0.82598109  1
  H+  H34  1  0.48477059  0.60847774  0.51074403  1
  H+  H35  1  0.28202185  0.66096068  0.36951069  1
  H+  H36  1  0.60872898  0.37882613  0.82327864  1
  H+  H37  1  0.46921503  0.98208738  0.28835264  1
  H+  H38  1  0.54720444  0.15244362  0.68082712  1
  H+  H39  1  0.00294778  0.89676899  0.15171482  1
  H+  H40  1  0.27506146  0.12312365  0.47836620  1
  H+  H41  1  0.88843541  0.61643136  0.83886273  1
  H+  H42  1  0.64436367  0.76060799  0.66767188  1
  H+  H43  1  1.03757052  0.10991379  0.50848971  1
  H+  H44  1  0.87003703  0.98593909  0.15731272  1
  H+  H45  1  0.20079184  0.36078228  0.66999574  1
  H+  H46  1  0.12472055  0.50950323  0.51683889  1
  H+  H47  1  0.86917290  0.76654057  0.16273232  1
  H+  H48  1  0.14749654  0.09995883  0.49742591  1
  H+  H49  1  0.38853752  0.89815331  0.68097296  1
  H+  H50  1  0.61866296  0.63666080  0.00922004  1
  H+  H51  1  0.42745672  0.33531663  0.93821972  1
  H+  H52  1  0.73174672  0.61761899  0.31171683  1
  H+  H53  1  0.64158364  1.02251236  0.32607459  1
  H+  H54  1  0.22698719  0.35812661  0.33046518  1
  H+  H55  1  0.23522991  1.11031129  0.31955026  1
  H+  H56  1  0.36779786  0.21017547  0.48448250  1
  H+  H57  1  0.62206734  0.48509318  0.32490091  1
  H+  H58  1  0.83012522  0.41843471  0.43185821  1
  H+  H59  1  0.87735040  0.25243157  1.00843967  1
  H+  H60  1  0.31448197  0.02941233  0.56061980  1
  H+  H61  1  0.38825266  0.86137130  0.84196154  1
  H+  H62  1  0.38543438  0.36159891  0.17221041  1
  H+  H63  1  0.14051213  0.85914557  0.32883196  1
  H+  H64  1  0.74966340  0.02655145  0.96414375  1
  H+  H65  1  0.13838588  0.86939323  0.64935940  1
  H+  H66  1  0.97783860  0.36197204  0.33367504  1
  H+  H67  1  0.60725782  0.23493631  0.49907740  1
  H+  H68  1  0.82962898  0.68048258  0.07060112  1
  H+  H69  1  0.39842862  0.27870399  0.32518137  1
  H+  H70  1  0.47548670  0.36401542  0.17235685  1
  H+  H71  1  0.79299441  0.15738132  0.00592681  1
  H+  H72  1  0.33685828  0.39080177  0.70432943  1
  H+  H73  1  0.50878242  0.36957406  0.66153237  1
  H+  H74  1  0.96102202  0.32962792  0.67038705  1
  H+  H75  1  0.62510601  0.26947990  0.31601680  1
  H+  H76  1  0.64555398  0.28604899  0.66233674  1
  H+  H77  1  0.92178557  0.59605143  0.93646454  1
  H+  H78  1  0.72922993  0.14700471  0.48111864  1
  H+  H79  1  0.16067547  0.82702610  0.56357515  1
  H+  H80  1  0.91002842  -0.01303806  0.53094140  1
  H+  H81  1  0.11851988  0.14399513  0.83175806  1
  H+  H82  1  0.77348024  0.13253679  0.32802903  1
  H+  H83  1  0.15711426  0.37122549  0.00261765  1
  H+  H84  1  0.13997424  0.50542388  0.00008758  1
  H+  H85  1  0.40281824  0.86194687  0.17111835  1
  H+  H86  1  0.12661106  0.12089501  -0.01442762  1
  H+  H87  1  0.88254360  0.78216525  0.98501081  1
  H+  H88  1  0.82537652  0.27754107  0.63533987  1
  H+  H89  1  0.16312845  0.08902100  0.89430244  1
  H+  H90  1  0.65516565  0.57352354  0.60399294  1
  H+  H91  1  0.60543059  0.77771895  0.16072761  1
  H+  H92  1  0.64694629  0.77063866  1.00246386  1
  H+  H93  1  0.39425263  0.61731458  -0.00443844  1
  H+  H94  1  0.77075048  0.39310449  0.15442431  1
  H+  H95  1  0.39275200  0.98927332  0.68426163  1
  H+  H96  1  0.56329613  0.78833759  0.54590649  1
  H+  H97  1  0.10805479  0.14332854  0.15816049  1
  H+  H98  1  0.64327297  0.29948118  1.00727858  1
  H+  H99  1  0.11058593  0.71780722  0.49999134  1
  H+  H100  1  0.35078793  0.15941759  0.38820951  1
  H+  H101  1  0.62049557  0.50496346  0.66016620  1
  H+  H102  1  0.39435304  0.36545734  0.99640503  1
  H+  H103  1  0.10818050  0.89527342  0.81412986  1
  H+  H104  1  0.08062177  0.40560318  0.44437078  1
  H+  H105  1  0.28568810  0.65021047  1.00254742  1
  H+  H106  1  0.85233352  0.86207959  0.77908998  1
  H+  H107  1  0.40455025  0.07349840  0.22950987  1
  H+  H108  1  -0.02163504  0.87187729  0.82244034  1
  H+  H109  1  0.51929760  0.16588113  0.02513689  1
  H+  H110  1  0.32484571  0.90812937  0.41394608  1
  H+  H111  1  0.83235358  0.43503954  0.72867622  1
  H+  H112  1  0.60439229  0.72181238  0.48481404  1
  H+  H113  1  0.62560175  0.40582352  0.00716882  1
  H+  H114  1  0.53226724  0.87889725  0.01496602  1
  H+  H115  1  0.23928834  0.87914819  -0.00616617  1
  H+  H116  1  0.77269412  0.38354645  0.34265158  1
  H+  H117  1  0.12860350  0.28151842  0.85654374  1
  H+  H118  1  0.88890402  0.62558307  0.65516053  1
  H+  H119  1  0.39240828  0.86230453  0.50738849  1
  H+  H120  1  0.88604974  0.11939253  0.17793518  1
  H+  H121  1  0.37437033  0.22496973  0.66230906  1
  H+  H122  1  0.26844042  0.61426579  0.14040151  1
  H+  H123  1  0.63116241  1.01359091  0.83653430  1
  H+  H124  1  0.89505853  0.13503963  -0.00444128  1
  H+  H125  1  0.11053706  0.76109275  0.84227588  1
  H+  H126  1  0.60409816  0.38313532  0.66627842  1
  H+  H127  1  0.97580605  0.86425276  0.32242102  1
  H+  H128  1  0.87340008  0.74608427  0.49932358  1
  H+  H129  1  0.08676618  0.36628621  0.18552202  1
  H+  H130  1  0.64359169  0.53852642  0.16506111  1
  H+  H131  1  0.39017115  0.59411043  0.51828464  1
  H+  H132  1  0.24257321  0.83012785  0.18458475  1
  H+  H133  1  0.76883622  0.88464731  0.33318611  1
  H+  H134  1  0.86238946  0.73049411  0.33632756  1
  H+  H135  1  0.13952651  0.61573666  0.35656275  1
  H+  H136  1  0.11602376  0.38284133  0.34907200  1
  H+  H137  1  0.73957902  0.62720395  0.99767854  1
  H+  H138  1  0.83738745  0.71648087  0.67290264  1
  H+  H139  1  0.63605416  0.36346351  0.32317421  1
  H+  H140  1  0.11911417  0.97164421  0.33326047  1
  H+  H141  1  0.91343211  0.39534181  0.99236805  1
  H+  H142  1  0.48732389  0.87830522  0.50608612  1
  H+  H143  1  0.88911605  0.27332928  0.33149861  1
  H+  H144  1  0.64421712  0.27520876  0.84833185  1
  H+  H145  1  0.89153655  0.86899006  0.65528484  1
  H+  H146  1  0.00452862  0.38212196  0.85366851  1
  H+  H147  1  0.25624358  0.59080416  0.50024481  1
  H+  H148  1  0.86602440  0.65353406  0.00971597  1
  H+  H149  1  0.61915242  0.13647681  0.83562792  1
  H+  H150  1  0.39294303  0.51069035  0.32049467  1
  H+  H151  1  0.34221754  0.45479964  0.84437079  1
  H+  H152  1  0.56755364  0.19307863  0.08885754  1
  H+  H153  1  0.95022656  0.92374846  0.60122532  1
  H+  H154  1  0.65286559  0.83435528  0.25889323  1
  H+  H155  1  0.72109476  0.62515314  0.51330093  1
  H+  H156  1  0.14794172  0.51304481  0.09032001  1
  H+  H157  1  0.72049088  0.09133448  0.16986930  1
  H+  H158  1  0.77605084  0.16061417  0.66576750  1
  H+  H159  1  0.35424868  0.92521626  0.76805202  1
  H+  H160  1  0.97647538  0.61433775  0.83828615  1
  H+  H161  1  -0.09455345  0.81458910  0.55442824  1
  H+  H162  1  0.83224190  0.21458089  0.17404937  1
  H+  H163  1  -0.00790385  0.70947267  0.27502234  1
  H+  H164  1  0.73528489  0.86421256  1.00362607  1
  H+  H165  1  0.53230659  0.14094845  0.83436819  1
  H+  H166  1  0.38314965  0.52693935  0.67264289  1
  H+  H167  1  0.69695887  0.17928037  0.66622109  1
  H+  H168  1  0.34426321  0.96104873  0.49676738  1
  H+  H169  1  0.15194288  0.63708199  0.98762737  1
  H+  H170  1  0.90935985  0.65115181  0.31322231  1
  H+  H171  1  0.48153564  0.61339066  0.99758089  1
  H+  H172  1  0.60096017  0.12610116  0.32006465  1
  H+  H173  1  0.63953509  0.03956134  0.49523066  1
  H+  H174  1  0.35919740  0.09286910  0.50591838  1
  H+  H175  1  0.38227489  0.98726741  0.15929416  1
  H+  H176  1  0.37596577  0.98752212  0.00120520  1
  H+  H177  1  0.51853183  0.14837917  0.50776255  1
  H+  H178  1  0.12747150  0.52120457  0.85461517  1
  H+  H179  1  0.77133244  0.87806603  0.49528628  1
  H+  H180  1  0.35566736  0.72588212  0.82625178  1
  H+  H181  1  0.13811069  0.27385036  0.17378004  1
  H+  H182  1  0.86567171  0.98583001  0.00627691  1
  H+  H183  1  0.88617759  0.86460398  0.32505786  1
  H+  H184  1  0.39756127  0.78035676  -0.00461510  1
  H+  H185  1  0.22075788  0.60419373  0.83464481  1
  H+  H186  1  0.65586729  0.41735328  0.48239845  1
  H+  H187  1  0.28460129  0.13238971  0.66801600  1
  H+  H188  1  0.61430941  0.13215396  0.17126850  1
  H+  H189  1  0.64809994  0.53386832  0.99449143  1
  H+  H190  1  0.91276212  0.20954618  0.69771007  1
  H+  H191  1  0.12630627  0.13463457  0.67312841  1
  H+  H192  1  0.36116569  0.46984653  0.00544905  1
  H+  H193  1  0.86181028  0.89299996  0.15568247  1
  H+  H194  1  0.28599928  0.89505609  0.82334037  1
  H+  H195  1  0.40133958  0.87182396  0.99254492  1
  H+  H196  1  0.61780689  0.86951148  0.01518488  1
  H+  H197  1  0.66308101  -0.00133928  0.99753750  1
  H+  H198  1  0.86300796  0.38883314  0.49058627  1
  H+  H199  1  0.37085782  0.91003609  0.34090486  1
  H+  H200  1  0.63002935  0.10864911  0.03670005  1
  H+  H201  1  0.86837420  0.73258941  0.82003727  1
  H+  H202  1  0.85831133  0.12819628  0.83478994  1
  H+  H203  1  0.03424278  0.12338962  0.68482450  1
  H+  H204  1  0.52086490  0.63110060  0.16023210  1
  H+  H205  1  0.61955944  0.63349302  0.32416198  1
  H+  H206  1  0.26246780  0.87796531  0.34714228  1
  H+  H207  1  0.39273224  0.33495128  0.50363390  1
  H+  H208  1  0.98564919  0.11793865  0.84060525  1
  H+  H209  1  0.88979926  1.02423484  0.32514115  1
  H+  H210  1  0.10902191  0.89656560  1.00350296  1
  H+  H211  1  0.97800027  0.12489903  0.17364332  1
  H+  H212  1  0.58733068  0.88007888  0.10801745  1
  H+  H213  1  0.03567004  0.89836155  0.66287166  1
  H+  H214  1  0.73011242  0.36499519  0.50530157  1
  H+  H215  1  0.33987129  0.16288127  0.76589395  1
  H+  H216  1  0.36768751  0.64626728  0.82741275  1
  H+  H217  1  0.15673980  0.31999982  0.57276585  1
  H+  H218  1  0.97076998  0.35842493  0.50620378  1
  H+  H219  1  0.57321655  0.40160437  0.76350951  1
  H+  H220  1  0.09040817  0.38326854  0.87512686  1
  H+  H221  1  0.64455955  0.53578245  0.50227724  1
  H+  H222  1  0.26271030  0.13704655  0.15815061  1
  H+  H223  1  0.36884724  0.38676797  0.34221520  1
  H+  H224  1  0.73608417  0.84776785  0.66455494  1
  H+  H225  1  0.12042292  0.02920271  0.16542587  1
  H+  H226  1  0.85371878  0.60928553  0.48392461  1
  H+  H227  1  0.13640797  0.91105311  0.20011253  1
  H+  H228  1  0.88666247  0.87227233  0.98346719  1
  H+  H229  1  0.63104532  0.76765305  0.31343439  1
  H+  H230  1  0.27801443  0.13477781  0.82423662  1
  H+  H231  1  0.91181436  0.84229338  0.87873777  1
  H+  H232  1  0.14766237  0.53435687  0.67252833  1
  H+  H233  1  0.86208948  0.38622008  0.34595896  1
  H+  H234  1  0.89751168  0.54100401  0.99734701  1
  H+  H235  1  0.63805879  0.27693163  0.17643267  1
  H+  H236  1  0.13320905  0.58205104  0.12816373  1
  H+  H237  1  0.84557119  0.34082359  0.18310607  1
  H+  H238  1  0.11947761  0.02837821  0.98352279  1
  H+  H239  1  0.38453753  0.33343164  0.63809816  1
  H+  H240  1  0.39250847  0.11933160  0.99831796  1
  H+  H241  1  0.88344741  0.51544979  0.50580945  1
  H+  H242  1  0.35645899  0.22063130  0.16355335  1
  H+  H243  1  0.37998963  0.50741333  0.16863318  1
  H+  H244  1  0.54982870  0.65560269  0.83623087  1
  H+  H245  1  0.61136398  0.39102233  0.15936977  1
  H+  H246  1  0.52586833  0.63011148  0.68393702  1
  H+  H247  1  0.38107030  0.59903240  0.17214267  1
  H+  H248  1  0.08319435  0.44791475  0.17269561  1
  H+  H249  1  0.08928947  0.05324157  0.61057896  1
  H+  H250  1  0.17263828  0.90657629  0.21331203  1
  H+  H251  1  0.35028236  0.08956162  0.17829966  1
  H+  H252  1  0.13099199  0.84970122  0.49927595  1
  H+  H253  1  0.64888174  0.62372787  0.84648750  1
  H+  H254  1  0.44725980  0.62844343  0.91042356  1
  H+  H255  1  0.26904567  0.37877353  0.00512576  1
  H+  H256  1  0.78945114  0.40450854  0.00527916  1
  H+  H257  1  0.86327867  0.47875198  0.15669964  1
  H+  H258  1  0.89167337  -0.00443667  0.68391052  1
  H+  H259  1  0.36891492  0.64055307  0.67456259  1
  H+  H260  1  0.85471572  0.38775491  0.81802971  1
  H+  H261  1  0.69595308  0.77944892  0.84725308  1
  H+  H262  1  0.53254403  0.90330472  0.33935913  1
  H+  H263  1  1.02851249  0.13100212  0.34143195  1
  H+  H264  1  0.12281252  0.74411601  1.00516012  1
  H+  H265  1  0.14222465  0.77068670  0.34222166  1
  H+  H266  1  0.04488471  0.32003242  0.67638928  1
  H+  H267  1  0.74535354  0.62792689  0.84625903  1
  H+  H268  1  0.84594026  0.12643676  0.53485678  1
  H+  H269  1  0.62429692  0.12400889  0.50072781  1
  H+  H270  1  0.11036834  0.20913872  0.50108724  1
  H+  H271  1  0.39048611  0.14528402  0.32748334  1
  H+  H272  1  0.10887541  0.62651858  0.50125813  1
  H+  H273  1  0.05579064  0.41995653  0.02057665  1
  H+  H274  1  0.53668535  0.88492778  0.67257463  1
  H+  H275  1  0.11828802  0.47260278  0.36001344  1
  H+  H276  1  0.85285712  0.64718988  0.14890711  1
  H+  H277  1  0.86217421  0.25546281  0.83332692  1
  H+  H278  1  0.54527733  0.13795349  0.21057950  1
  H+  H279  1  0.49011031  0.71981297  0.87849710  1
  H+  H280  1  0.12978526  0.26184631  0.66528471  1
  H+  H281  1  0.60906411  0.88043691  0.33707320  1
  H+  H282  1  0.39530756  0.77800243  0.65897568  1
  H+  H283  1  0.19058398  0.79795438  0.24529948  1
  H+  H284  1  -0.01966678  0.60852780  0.15887437  1
  H+  H285  1  0.39826029  0.02834632  0.84402435  1
  H+  H286  1  0.62691469  0.12021540  1.00440717  1
  H+  H287  1  0.11054660  0.96365048  0.48776232  1
  H+  H288  1  0.89956987  0.33419526  0.56004107  1
  H+  H289  1  0.91823012  0.59257100  0.59641209  1
  H+  H290  1  0.66874515  0.34229830  0.56388366  1
  H+  H291  1  0.66995131  0.34236016  0.23044655  1
  H+  H292  1  0.35727350  0.47139926  0.49586996  1
  H+  H293  1  0.87282838  0.31220846  0.89087479  1
  H+  H294  1  0.90309466  0.82582592  0.22456192  1
  H+  H295  1  0.87789010  0.31503307  0.24236642  1
  H+  H296  1  0.12498065  0.24632858  1.00823266  1
  H+  H297  1  0.59721449  0.66010193  0.77244066  1
  H+  H298  1  0.29253965  0.48923005  0.46564962  1
  H+  H299  1  0.60226698  0.18379695  0.74180996  1
  H+  H300  1  0.15957921  0.08420594  0.22691192  1
  H+  H301  1  0.42029049  0.33932629  0.26740811  1
  H+  H302  1  0.92714998  0.59645484  0.21845214  1
  H+  H303  1  0.08306942  0.66899965  0.76490742  1
  H+  H304  1  0.35407637  0.92768090  0.05909791  1
  H+  H305  1  0.34100545  0.16826072  0.06643214  1
  H+  H306  1  0.68478627  0.59872936  0.91358201  1
  H+  H307  1  0.03263453  0.65374600  0.00202626  1
  H+  H308  1  0.06471127  0.93042470  0.09318978  1
  H+  H309  1  0.61087366  0.62207945  0.67915365  1
  H+  H310  1  0.75652477  0.62213523  0.67278161  1
  H+  H311  1  0.42767969  0.83924876  0.60038229  1
  H+  H312  1  0.16245990  0.57568229  0.57322119  1
  H+  H313  1  0.02661370  0.64416753  0.67013784  1
  H+  H314  1  0.58454224  0.42388212  0.10032273  1
  H+  H315  1  0.32506554  0.63252157  0.44570087  1
  H+  H316  1  0.01618894  0.88905928  -0.00512859  1
  H+  H317  1  0.42640056  0.58181340  0.61173457  1
  H+  H318  1  0.82664658  0.66201133  0.76702174  1
  H+  H319  1  0.08266612  0.17826832  0.09872776  1
  H+  H320  1  0.34930303  0.70529917  0.16374617  1
  H+  H321  1  0.84252899  0.92791969  0.06683489  1
  H+  H322  1  0.39241641  0.26657026  0.84902164  1
  H+  H323  1  0.58465510  0.66361861  0.06891514  1
  H+  H324  1  0.84548629  0.42950192  0.06538478  1
  H+  H325  1  0.65002146  0.81623938  0.57980200  1
  H+  H326  1  0.61182481  0.63772316  0.48535897  1
  H+  H327  1  0.16520079  0.33540727  0.92274264  1
  H+  H328  1  0.30349131  0.43428874  0.75153408  1
  H+  H329  1  0.08474421  0.15519335  0.40218350  1
  H+  H330  1  0.63641412  -0.00341064  0.17352608  1
  H+  H331  1  0.06158379  0.79545865  0.88098649  1
  H+  H332  1  0.01894822  0.87459669  0.48501374  1
  H+  H333  1  0.07815023  0.66320777  0.41201013  1
  H+  H334  1  0.91988294  0.09815050  0.93624083  1
  H+  H335  1  0.09057046  0.17380997  0.77317998  1
  H+  H336  1  0.43127767  0.88350930  0.26464793  1
  H+  H337  1  0.39386580  0.11472702  0.84060859  1
  H+  H338  1  0.23775542  0.62078190  0.66571093  1
  H+  H339  1  0.75877288  0.56331392  0.45850051  1
  H+  H340  1  0.72769712  0.38001080  0.65743310  1
  H+  H341  1  0.76329796  0.11928158  0.83070370  1
  H+  H342  1  0.41842785  0.30121235  0.56407485  1
  H+  H343  1  0.66363543  0.06977457  0.26175891  1
  H+  H344  1  0.83026420  0.65552554  0.38819459  1
  H+  H345  1  0.13572204  0.77911553  0.65342730  1
  H+  H346  1  0.94155663  0.03873630  0.59490741  1
  H+  H347  1  0.73816446  0.63119782  0.15909927  1
  H+  H348  1  0.33734566  0.67088353  0.73272668  1
  H+  H349  1  0.58808938  0.91849086  0.76508025  1
  H+  H350  1  0.34235898  0.66982590  0.06353012  1
  H+  H351  1  0.98089636  0.38744140  0.94612991  1
  H+  H352  1  0.33393811  0.42563798  0.39626863  1
  H+  H353  1  0.09101922  0.66684456  0.09244192  1
  H+  H354  1  0.13900182  0.26794355  0.33324895  1
  H+  H355  1  0.08347431  0.91018048  0.39191920  1
  H+  H356  1  0.83238133  0.17414129  0.10842573  1
  H+  H357  1  0.14636577  0.11008167  0.32876748  1
  H+  H358  1  0.43330055  0.08869362  0.61044244  1
  H+  H359  1  0.62194678  0.87963804  0.67795827  1
  H+  H360  1  0.53336490  0.40090561  0.00568260  1
  H+  H361  1  0.82421588  0.90991164  0.39450490  1
  H+  H362  1  0.62215984  0.90395159  0.49781151  1
  H+  H363  1  0.61721197  0.64661944  0.16057623  1
  H+  H364  1  0.89649644  0.08839729  0.67833508  1
  H+  H365  1  0.17076942  0.32907213  0.23528110  1
  H+  H366  1  0.86558321  0.49830043  0.66996214  1
  H+  H367  1  0.16594763  0.57725456  0.23194914  1
  H+  H368  1  0.08864555  0.92993178  0.75215124  1
  H+  H369  1  0.33062221  0.41191571  0.09710072  1
  H+  H370  1  0.62981096  0.44827863  0.42032823  1
  H+  H371  1  0.58476350  0.66047793  0.38425416  1
  H+  H372  1  0.67527223  0.34423696  0.94110699  1
  H+  H373  1  0.84894573  0.86061762  0.48669389  1
  H+  H374  1  0.17336628  0.07059623  0.55846687  1
  H+  H375  1  0.21292578  0.61175500  0.23185136  1
  H+  H376  1  0.86814179  0.37857602  0.64755867  1
  H+  H377  1  0.42853404  0.09331884  0.93931737  1
  H+  H378  1  0.17262163  0.84574459  0.93757694  1
  H+  H379  1  0.67153750  0.06471639  0.89898012  1
  H+  H380  1  0.81385786  0.18431952  0.41585421  1
  H+  H381  1  0.59502250  0.92497875  0.43335961  1
  H+  H382  1  0.71093149  0.82688962  0.90893368  1
  H+  H383  1  0.18023496  0.60622444  0.92743410  1
  O2-  O384  1  0.07936092  0.17607615  0.14482247  1
  O2-  O385  1  0.08688780  0.15071611  0.48290727  1
  O2-  O386  1  0.08456501  0.17209816  0.81830180  1
  O2-  O387  1  0.04750392  0.38937950  0.18848891  1
  O2-  O388  1  0.07724846  0.40674508  0.49004551  1
  O2-  O389  1  0.05813566  0.41603410  0.87702470  1
  O2-  O390  1  0.08624047  0.64732241  0.13563972  1
  O2-  O391  1  0.07808681  0.65623906  0.48561968  1
  O2-  O392  1  0.08107074  0.66707503  0.81063782  1
  O2-  O393  1  0.06314665  0.93579232  0.13800482  1
  O2-  O394  1  0.07907058  0.90369386  0.47036438  1
  O2-  O395  1  0.08258984  0.92869970  0.79821356  1
  O2-  O396  1  0.32488440  0.16107276  0.14740196  1
  O2-  O397  1  0.33668954  0.15019729  0.46484989  1
  O2-  O398  1  0.33922375  0.15965569  0.81114238  1
  O2-  O399  1  0.33283264  0.41384555  0.14333884  1
  O2-  O400  1  0.30620560  0.44161394  0.46901031  1
  O2-  O401  1  0.29440879  0.44989771  0.82051372  1
  O2-  O402  1  0.33363394  0.65145936  0.14176500  1
  O2-  O403  1  0.30649296  0.59103175  0.48062845  1
  O2-  O404  1  0.32902169  0.66531148  0.81014510  1
  O2-  O405  1  0.39970700  0.94910625  0.13495588  1
  O2-  O406  1  0.32177197  0.90248554  0.47812034  1
  O2-  O407  1  0.34746367  0.92229392  0.81547004  1
  O2-  O408  1  0.58073119  0.16183134  0.17211345  1
  O2-  O409  1  0.57378042  0.17246828  0.48746825  1
  O2-  O410  1  0.59396657  0.17173230  0.82093961  1
  O2-  O411  1  0.58099370  0.42197001  0.14578830  1
  O2-  O412  1  0.65858785  0.46790874  0.46072990  1
  O2-  O413  1  0.57473115  0.40457916  0.80849294  1
  O2-  O414  1  0.58036663  0.67148641  0.14642284  1
  O2-  O415  1  0.58068555  0.66459109  0.46544572  1
  O2-  O416  1  0.60441915  0.66437838  0.81794042  1
  O2-  O417  1  0.58016093  0.87475046  0.15438906  1
  O2-  O418  1  0.59653174  0.93533955  0.47831629  1
  O2-  O419  1  0.58537024  0.92214991  0.81076585  1
  O2-  O420  1  0.82189675  0.15957890  0.15211083  1
  O2-  O421  1  0.79407616  0.20086598  0.45361164  1
  O2-  O422  1  0.82541781  0.15387608  0.81690931  1
  O2-  O423  1  0.83162715  0.41858324  0.14050100  1
  O2-  O424  1  0.83181171  0.41987500  0.47860845  1
  O2-  O425  1  0.82974478  0.42406234  0.80584088  1
  O2-  O426  1  0.82220326  0.67664159  0.13553317  1
  O2-  O427  1  0.81060676  0.62205029  0.46361291  1
  O2-  O428  1  0.83463932  0.66833891  0.81197927  1
  O2-  O429  1  0.83888977  0.92856167  0.13788887  1
  O2-  O430  1  0.82830904  0.90184030  0.47710411  1
  O2-  O431  1  0.80852159  0.87223099  0.75935079  1
  O2-  O432  1  0.15833684  0.08989645  0.18219070  1
  O2-  O433  1  0.17585645  0.06725324  0.51105963  1
  O2-  O434  1  0.17232768  0.09389891  0.84803143  1
  O2-  O435  1  0.17362024  0.33394348  0.19032408  1
  O2-  O436  1  0.15435249  0.31639540  0.52702023  1
  O2-  O437  1  0.15331968  0.33960587  0.87429863  1
  O2-  O438  1  0.16591583  0.55076353  0.12722547  1
  O2-  O439  1  0.15820785  0.57205820  0.52806308  1
  O2-  O440  1  0.16277548  0.58549002  0.85204008  1
  O2-  O441  1  0.20467424  0.77815891  0.20732475  1
  O2-  O442  1  0.16226451  0.82166500  0.51634494  1
  O2-  O443  1  0.11810014  0.81461375  0.86326553  1
  O2-  O444  1  0.35897106  0.04462854  0.19872010  1
  O2-  O445  1  0.36518414  0.05085197  0.53460447  1
  O2-  O446  1  0.42749841  0.08897486  0.85840932  1
  O2-  O447  1  0.41596180  0.33300660  0.18998473  1
  O2-  O448  1  0.41662431  0.29939543  0.51609122  1
  O2-  O449  1  0.42185531  0.32602859  0.86477934  1
  O2-  O450  1  0.41152556  0.56831985  0.18716072  1
  O2-  O451  1  0.43099955  0.57651241  0.53493878  1
  O2-  O452  1  0.46370096  0.65868730  0.86923878  1
  O2-  O453  1  0.41413212  0.82280248  0.19667112  1
  O2-  O454  1  0.42903405  0.83996859  0.52269290  1
  O2-  O455  1  0.41390374  0.82558814  0.85487713  1
  O2-  O456  1  0.65962545  0.05703460  0.18566183  1
  O2-  O457  1  0.66589718  0.10142143  0.50762395  1
  O2-  O458  1  0.66488847  0.07435280  0.85549318  1
  O2-  O459  1  0.66628618  0.33975311  0.18497195  1
  O2-  O460  1  0.66848349  0.34013558  0.51827377  1
  O2-  O461  1  0.67097752  0.33622923  0.86241359  1
  O2-  O462  1  0.67362040  0.59932207  0.17884094  1
  O2-  O463  1  0.65957189  0.59138337  0.52387338  1
  O2-  O464  1  0.68533714  0.59863246  0.86537706  1
  O2-  O465  1  0.63318240  0.83874350  0.17605322  1
  O2-  O466  1  0.62425749  0.81130910  0.53710251  1
  O2-  O467  1  0.74067552  0.82582245  0.87166294  1
  O2-  O468  1  0.91931406  0.09186726  0.19244280  1
  O2-  O469  1  0.96070359  0.02089553  0.55706797  1
  O2-  O470  1  0.92418631  0.08731832  0.85709061  1
  O2-  O471  1  0.83610733  0.29140138  0.20860598  1
  O2-  O472  1  0.90790286  0.33279563  0.51432865  1
  O2-  O473  1  0.88510497  0.31684176  0.84732318  1
  O2-  O474  1  0.92035663  0.58520495  0.17432719  1
  O2-  O475  1  0.91190900  0.57773213  0.52017790  1
  O2-  O476  1  0.91712013  0.58558748  0.85569918  1
  O2-  O477  1  0.90124390  0.82903051  0.17993198  1
  O2-  O478  1  0.90163615  0.80750640  0.50907689  1
  O2-  O479  1  0.91646831  0.83518008  0.83430951  1
  O2-  O480  1  0.17306114  0.07836723  0.30994662  1
  O2-  O481  1  0.14652896  0.07014234  0.62609186  1
  O2-  O482  1  0.14526870  0.08502457  0.96308817  1
  O2-  O483  1  0.16566794  0.32849148  0.31832315  1
  O2-  O484  1  0.14658343  0.32065996  0.64900985  1
  O2-  O485  1  0.17888339  0.33556990  0.98493523  1
  O2-  O486  1  0.17609933  0.58817952  0.35073129  1
  O2-  O487  1  0.17480658  0.59016188  0.65244944  1
  O2-  O488  1  0.18524992  0.60964150  0.97287538  1
  O2-  O489  1  0.17402363  0.82855856  0.32161644  1
  O2-  O490  1  0.16228727  0.83459869  0.63138569  1
  O2-  O491  1  0.17676421  0.84936828  0.98241156  1
  O2-  O492  1  0.49495514  0.08737999  0.27448009  1
  O2-  O493  1  0.44038078  0.09584645  0.65471559  1
  O2-  O494  1  0.42478131  0.08839203  0.98447228  1
  O2-  O495  1  0.42253026  0.34004729  0.31326296  1
  O2-  O496  1  0.41948084  0.30688853  0.63170086  1
  O2-  O497  1  0.43146615  0.34118670  0.98428768  1
  O2-  O498  1  0.42658537  0.57017222  0.29995245  1
  O2-  O499  1  0.42162158  0.58624717  0.65690638  1
  O2-  O500  1  0.42345080  0.58731987  0.97793763  1
  O2-  O501  1  0.44611431  0.92018563  0.30193758  1
  O2-  O502  1  0.42903920  0.83901659  0.64597458  1
  O2-  O503  1  0.43185347  0.84069468  0.97959166  1
  O2-  O504  1  0.66703808  0.08027591  0.30689705  1
  O2-  O505  1  0.74614109  0.18512825  0.64225787  1
  O2-  O506  1  0.70922736  0.04639349  0.97293646  1
  O2-  O507  1  0.66448930  0.33135891  0.30822048  1
  O2-  O508  1  0.66783637  0.34324669  0.64179947  1
  O2-  O509  1  0.68183908  0.35521833  0.98598328  1
  O2-  O510  1  0.67126963  0.58863708  0.29672513  1
  O2-  O511  1  0.65691040  0.56910320  0.64895736  1
  O2-  O512  1  0.67847724  0.59536467  0.97918390  1
  O2-  O513  1  0.65858189  0.83006564  0.30344954  1
  O2-  O514  1  0.67504323  0.81875987  0.64846626  1
  O2-  O515  1  0.67414087  0.83154236  0.98829989  1
  O2-  O516  1  0.92358192  0.08604250  0.31398751  1
  O2-  O517  1  0.92691146  0.05576952  0.66683168  1
  O2-  O518  1  0.91495151  0.09525260  0.98131502  1
  O2-  O519  1  0.91699959  0.33541542  0.32091588  1
  O2-  O520  1  0.88125637  0.33518357  0.62995848  1
  O2-  O521  1  0.94301288  0.36206787  0.98198001  1
  O2-  O522  1  0.96085615  0.65239213  0.29329462  1
  O2-  O523  1  0.92349769  0.59932918  0.64184594  1
  O2-  O524  1  0.92645009  0.60156854  0.98157067  1
  O2-  O525  1  0.91399565  0.83160306  0.31085100  1
  O2-  O526  1  0.93204436  0.86848423  0.62234477  1
  O2-  O527  1  0.91349878  0.84018070  0.96536409  1
  O2-  O528  1  0.08941570  0.18271944  0.02439882  1
  O2-  O529  1  0.08904859  0.15934302  0.35698628  1
  O2-  O530  1  0.09660342  0.16324956  0.69366307  1
  O2-  O531  1  0.11851996  0.45328053  0.02633926  1
  O2-  O532  1  0.08499644  0.40998649  0.36835182  1
  O2-  O533  1  -0.00735650  0.31061925  0.69769625  1
  O2-  O534  1  0.09397269  0.68166980  0.01606319  1
  O2-  O535  1  0.08905222  0.67013834  0.36660853  1
  O2-  O536  1  0.08567449  0.67348306  0.68812930  1
  O2-  O537  1  0.07434298  0.92343699  0.01397439  1
  O2-  O538  1  0.08608721  0.90994226  0.34641024  1
  O2-  O539  1  0.09512379  0.92750928  0.67866806  1
  O2-  O540  1  0.35050172  0.17102092  0.02194729  1
  O2-  O541  1  0.35361305  0.16675666  0.34270471  1
  O2-  O542  1  0.34293243  0.16344811  0.68443611  1
  O2-  O543  1  0.33293770  0.41099766  0.02217581  1
  O2-  O544  1  0.33983475  0.42115667  0.35131749  1
  O2-  O545  1  0.31053612  0.42674261  0.70577638  1
  O2-  O546  1  0.34599452  0.67576192  0.01826070  1
  O2-  O547  1  0.34323726  0.69211272  0.38304802  1
  O2-  O548  1  0.33662185  0.67019026  0.68706670  1
  O2-  O549  1  0.34533486  0.92451136  0.01437050  1
  O2-  O550  1  0.32378546  0.91364097  0.36562852  1
  O2-  O551  1  0.36249456  0.92978706  0.70053634  1
  O2-  O552  1  0.56816909  0.21335711  0.04726160  1
  O2-  O553  1  0.55760739  0.14557569  0.32088661  1
  O2-  O554  1  0.60678008  0.18846823  0.69651668  1
  O2-  O555  1  0.59436830  0.43571141  0.02141701  1
  O2-  O556  1  0.59502833  0.42807089  0.34608004  1
  O2-  O557  1  0.56873193  0.40857968  0.68029381  1
  O2-  O558  1  0.58512436  0.66414472  0.02336634  1
  O2-  O559  1  0.58335259  0.65923254  0.33882852  1
  O2-  O560  1  0.58715139  0.65729620  0.69717230  1
  O2-  O561  1  0.58975861  0.90099379  0.03461162  1
  O2-  O562  1  0.58845729  0.91686296  0.35718693  1
  O2-  O563  1  0.59519571  0.91351951  0.69051854  1
  O2-  O564  1  0.84950625  0.19323620  0.02528417  1
  O2-  O565  1  0.83186288  0.16339244  0.34706811  1
  O2-  O566  1  0.86013820  0.15007642  0.69902686  1
  O2-  O567  1  0.85066101  0.43551764  0.01960196  1
  O2-  O568  1  0.83068023  0.41537907  0.36084130  1
  O2-  O569  1  0.83070358  0.43704018  0.68320871  1
  O2-  O570  1  0.83248869  0.68130383  0.02154945  1
  O2-  O571  1  0.83486691  0.66675550  0.34351145  1
  O2-  O572  1  0.81851721  0.65824479  0.68693835  1
  O2-  O573  1  0.83911918  0.92528178  0.02018813  1
  O2-  O574  1  0.82843556  0.91338581  0.34946553  1
  O2-  O575  1  0.83319403  0.88945796  0.69445587  1
