# generated using pymatgen
data_H2O
_symmetry_space_group_name_H-M   'P 1'
_cell_length_a   17.99275317
_cell_length_b   17.99450817
_cell_length_c   22.00433542
_cell_angle_alpha   90.00571196
_cell_angle_beta   90.00458548
_cell_angle_gamma   119.99926830
_symmetry_Int_Tables_number   1
_chemical_formula_structural   H2O
_chemical_formula_sum   'H384 O192'
_cell_volume   6169.92217586
_cell_formula_units_Z   192
loop_
 _symmetry_equiv_pos_site_id
 _symmetry_equiv_pos_as_xyz
  1  'x, y, z'
loop_
 _atom_type_symbol
 _atom_type_oxidation_number
  H+  1.0
  O2-  -2.0
loop_
 _atom_site_type_symbol
 _atom_site_label
 _atom_site_symmetry_multiplicity
 _atom_site_fract_x
 _atom_site_fract_y
 _atom_site_fract_z
 _atom_site_occupancy
  H+  H0  1  0.62555478  0.40693961  0.31433192  1
  H+  H1  1  0.45211250  0.08560634  0.18041794  1
  H+  H2  1  0.79184619  0.39299991  0.81694482  1
  H+  H3  1  0.86057834  0.06242519  0.85461409  1
  H+  H4  1  0.12630481  0.10931904  0.49283683  1
  H+  H5  1  0.12041023  0.96971824  0.34395544  1
  H+  H6  1  0.83368746  0.18515942  0.72734025  1
  H+  H7  1  0.01764213  0.13951086  0.82582659  1
  H+  H8  1  0.61595291  0.72482021  0.67370989  1
  H+  H9  1  0.88710511  0.11580950  -0.00839882  1
  H+  H10  1  0.55184223  0.88281285  0.32947557  1
  H+  H11  1  0.35983796  0.97016153  0.81769919  1
  H+  H12  1  0.67546671  0.02912719  0.17942571  1
  H+  H13  1  0.31940100  -0.00472432  0.97451061  1
  H+  H14  1  0.21926242  0.10404336  0.18570634  1
  H+  H15  1  0.01755398  0.64135278  0.33370162  1
  H+  H16  1  0.88257750  0.31145405  0.48539826  1
  H+  H17  1  0.53493319  0.31839018  0.78299154  1
  H+  H18  1  0.89587878  0.37292964  0.83375103  1
  H+  H19  1  0.48440912  0.76229509  0.28493616  1
  H+  H20  1  0.98274706  0.85658712  0.32881193  1
  H+  H21  1  0.11446826  0.14448967  0.67099473  1
  H+  H22  1  0.08510298  0.92986485  0.09595698  1
  H+  H23  1  0.63578771  0.60589089  0.16908890  1
  H+  H24  1  0.62738251  0.85549678  0.17625862  1
  H+  H25  1  0.47142542  0.16091898  0.31160101  1
  H+  H26  1  0.35776608  0.23669571  0.32913840  1
  H+  H27  1  0.64113552  0.11475994  0.51590624  1
  H+  H28  1  0.64822066  0.62059279  0.50578040  1
  H+  H29  1  0.89304995  0.52946502  0.83880409  1
  H+  H30  1  0.97619236  0.86654609  0.17345997  1
  H+  H31  1  0.98438812  0.61987808  0.51231849  1
  H+  H32  1  0.35418717  0.46814543  0.33904947  1
  H+  H33  1  0.10401163  0.72142658  0.67048177  1
  H+  H34  1  0.61261050  0.85422501  0.51365875  1
  H+  H35  1  0.13820891  0.52438495  0.49880329  1
  H+  H36  1  0.76938750  0.63422080  0.34125902  1
  H+  H37  1  0.22490885  0.34499616  0.18575652  1
  H+  H38  1  0.87368712  0.40120670  0.15752740  1
  H+  H39  1  0.12252185  0.60695200  0.33388052  1
  H+  H40  1  0.77942243  0.63707448  0.50337695  1
  H+  H41  1  0.97606318  0.11303154  1.00057694  1
  H+  H42  1  0.12897700  0.10057050  0.18396462  1
  H+  H43  1  0.86442709  0.38984424  0.66748588  1
  H+  H44  1  0.89329655  0.28816080  0.17039670  1
  H+  H45  1  0.89042568  0.87080298  0.18018607  1
  H+  H46  1  0.39092152  0.30067437  0.84325481  1
  H+  H47  1  0.14584560  0.77428136  0.32476216  1
  H+  H48  1  0.64068031  0.28037381  0.68574304  1
  H+  H49  1  0.71816790  0.60035864  0.66037672  1
  H+  H50  1  -0.02189980  0.61499873  0.66568221  1
  H+  H51  1  0.86260702  0.50066042  0.50087516  1
  H+  H52  1  0.37144539  0.87941856  0.50049827  1
  H+  H53  1  0.85436481  0.61942181  0.15982261  1
  H+  H54  1  0.13193099  0.34950201  0.34169715  1
  H+  H55  1  0.47548992  0.35668040  0.32148430  1
  H+  H56  1  0.88346591  0.36948793  0.98483422  1
  H+  H57  1  1.02112747  0.38797359  0.82328915  1
  H+  H58  1  0.20159342  0.84664507  0.65813586  1
  H+  H59  1  0.52119563  0.13855104  0.83221796  1
  H+  H60  1  0.42883418  0.84256433  0.67261588  1
  H+  H61  1  0.72630470  0.86740049  0.83204997  1
  H+  H62  1  0.59315836  0.71840751  0.50401127  1
  H+  H63  1  0.77536394  0.14943629  0.15216794  1
  H+  H64  1  0.74120887  0.85427905  0.32502322  1
  H+  H65  1  0.63176404  0.51419051  0.16616063  1
  H+  H66  1  0.45479131  0.34340795  0.66005747  1
  H+  H67  1  0.12377719  0.34313139  1.00470447  1
  H+  H68  1  0.44000242  0.84007878  0.17741537  1
  H+  H69  1  0.98292487  0.11632042  0.65421817  1
  H+  H70  1  0.35454817  0.83995103  0.19991061  1
  H+  H71  1  0.86061584  0.71880506  0.33052159  1
  H+  H72  1  0.74756127  0.40801930  0.30135964  1
  H+  H73  1  0.13342644  0.10941842  0.34095759  1
  H+  H74  1  0.11106051  0.63692358  0.48995544  1
  H+  H75  1  0.33398012  0.65697660  0.05894291  1
  H+  H76  1  0.86373996  0.24083655  0.66179141  1
  H+  H77  1  0.42165250  0.59941916  0.85019946  1
  H+  H78  1  0.88278915  0.52412277  0.16547321  1
  H+  H79  1  0.72753792  0.11838347  0.83578413  1
  H+  H80  1  0.22857615  0.85841982  0.50724195  1
  H+  H81  1  0.65846474  0.36438661  0.81535750  1
  H+  H82  1  0.35391764  0.72982243  0.81540763  1
  H+  H83  1  0.87669602  0.16514576  0.80948254  1
  H+  H84  1  0.62335534  0.61541831  0.34500307  1
  H+  H85  1  0.61977316  0.88868894  0.82498940  1
  H+  H86  1  0.84858885  0.42892972  0.09472809  1
  H+  H87  1  0.37235079  0.71653448  0.50259372  1
  H+  H88  1  0.38500148  0.51424351  0.17629907  1
  H+  H89  1  0.26255789  0.38445313  0.66400180  1
  H+  H90  1  0.35091175  0.70624313  0.99530535  1
  H+  H91  1  0.37927058  0.52059501  0.65749778  1
  H+  H92  1  0.73266921  0.85895576  0.98799416  1
  H+  H93  1  0.23864959  0.86055635  0.33192424  1
  H+  H94  1  0.55820524  0.90400567  0.67219063  1
  H+  H95  1  0.38692335  0.30770487  0.57201344  1
  H+  H96  1  0.75154293  0.61469391  0.15757645  1
  H+  H97  1  0.89069963  0.39771415  0.50269476  1
  H+  H98  1  0.97893696  0.85128075  0.50349544  1
  H+  H99  1  0.56383866  0.16969611  0.01819200  1
  H+  H100  1  0.23471117  0.14605336  0.64658152  1
  H+  H101  1  0.16487434  0.09702504  0.59412522  1
  H+  H102  1  0.37860311  0.61064274  0.65471563  1
  H+  H103  1  0.42033308  0.29209595  0.98990112  1
  H+  H104  1  0.36932090  0.96052904  0.04286862  1
  H+  H105  1  0.73954964  0.63559628  -0.00562932  1
  H+  H106  1  0.09949809  0.11693811  0.01546097  1
  H+  H107  1  0.34716846  0.12445651  0.16520606  1
  H+  H108  1  0.87157719  0.38279213  0.33120195  1
  H+  H109  1  0.10921550  0.23023946  0.66978964  1
  H+  H110  1  0.61233979  0.33873773  0.16239835  1
  H+  H111  1  0.64165491  0.77474135  -0.01206038  1
  H+  H112  1  0.10236999  0.46849731  0.00515775  1
  H+  H113  1  0.16911164  1.02461490  0.84611810  1
  H+  H114  1  0.11628137  0.21357514  0.17003874  1
  H+  H115  1  0.61277700  0.72105276  0.16395684  1
  H+  H116  1  0.75027898  0.62449856  0.84335991  1
  H+  H117  1  0.51490689  0.37937281  0.14924204  1
  H+  H118  1  0.83750734  0.92147888  0.06917799  1
  H+  H119  1  0.45497763  0.33532160  0.52046635  1
  H+  H120  1  0.33330243  0.63300460  0.81409927  1
  H+  H121  1  0.62598202  0.27418285  0.34733897  1
  H+  H122  1  0.86868266  0.63834670  0.82870775  1
  H+  H123  1  0.40919905  0.08300298  0.57154294  1
  H+  H124  1  0.38637685  0.50113169  0.84220770  1
  H+  H125  1  0.86380275  0.19225323  0.50800980  1
  H+  H126  1  0.36070936  -0.01815940  0.34902446  1
  H+  H127  1  0.61443471  0.07896262  0.98950302  1
  H+  H128  1  0.52513538  0.63758779  0.67121086  1
  H+  H129  1  0.66098655  0.86864256  0.32605236  1
  H+  H130  1  0.43457219  0.35350738  0.93440251  1
  H+  H131  1  0.87709593  0.73826843  0.50280380  1
  H+  H132  1  0.87211663  0.95967064  0.49304810  1
  H+  H133  1  1.01443870  0.38039632  1.00248690  1
  H+  H134  1  0.55913867  0.94955048  0.15872443  1
  H+  H135  1  0.21495114  0.60366997  0.99495110  1
  H+  H136  1  -0.02180118  0.36487864  0.65347159  1
  H+  H137  1  0.11292778  0.64881256  0.00470032  1
  H+  H138  1  0.10986568  0.96507002  0.16237325  1
  H+  H139  1  0.98574130  0.10983376  0.48815992  1
  H+  H140  1  0.62479466  0.27987058  0.05070449  1
  H+  H141  1  0.11143302  0.25733976  0.82653702  1
  H+  H142  1  0.88875347  0.85485280  0.83929670  1
  H+  H143  1  0.73490591  0.85883990  0.65800860  1
  H+  H144  1  0.61442910  0.22499893  0.82626089  1
  H+  H145  1  0.87383933  0.27316992  0.98090694  1
  H+  H146  1  0.86389435  0.10856199  0.49178882  1
  H+  H147  1  0.10970651  0.47768437  0.82376258  1
  H+  H148  1  0.77887208  0.41541764  0.97340831  1
  H+  H149  1  0.19450361  0.07403097  0.90764397  1
  H+  H150  1  0.35883396  0.37840526  0.16335812  1
  H+  H151  1  0.37768116  0.26176359  0.16875028  1
  H+  H152  1  0.60796219  0.13754758  0.67355529  1
  H+  H153  1  1.02948481  0.39683828  0.48822385  1
  H+  H154  1  0.63381408  0.25867750  0.31715767  1
  H+  H155  1  0.37667873  0.63301296  0.15130123  1
  H+  H156  1  0.65069728  0.10006928  0.32990367  1
  H+  H157  1  0.56871880  0.67499748  0.40159675  1
  H+  H158  1  1.04238018  0.92546467  0.99650593  1
  H+  H159  1  0.08540174  0.90980497  0.43558730  1
  H+  H160  1  0.88671995  0.85151070  0.50187594  1
  H+  H161  1  0.62489405  0.35446386  0.50646698  1
  H+  H162  1  0.65495421  0.03364748  0.66617513  1
  H+  H163  1  0.34664633  0.62318370  0.34513511  1
  H+  H164  1  0.40495244  0.39120750  0.84514754  1
  H+  H165  1  0.21286341  0.61057903  0.33669402  1
  H+  H166  1  0.20958686  0.35370668  0.82901773  1
  H+  H167  1  0.88934502  0.53864040  0.99286968  1
  H+  H168  1  0.35136051  0.70566977  0.15541705  1
  H+  H169  1  0.61395107  0.64132821  0.00858296  1
  H+  H170  1  0.58879464  0.94910515  0.00824036  1
  H+  H171  1  0.86315281  0.87870154  0.66766622  1
  H+  H172  1  0.62909873  0.49022610  0.48728153  1
  H+  H173  1  0.65392018  0.54256514  -0.00797454  1
  H+  H174  1  0.52146442  0.62285244  0.49705296  1
  H+  H175  1  0.87518917  0.87815562  0.34130223  1
  H+  H176  1  0.61274371  0.98454570  0.48988060  1
  H+  H177  1  0.86842840  0.65191579  0.00675951  1
  H+  H178  1  0.11821112  0.23294995  0.37180740  1
  H+  H179  1  0.89957151  0.87705472  0.99758242  1
  H+  H180  1  0.47466961  0.08650400  1.00849278  1
  H+  H181  1  0.26527274  0.38024087  0.49302793  1
  H+  H182  1  0.53917486  0.42424881  0.46156804  1
  H+  H183  1  0.21063729  0.61325959  0.83697801  1
  H+  H184  1  0.65008828  0.61515731  0.83651184  1
  H+  H185  1  0.10787745  0.47554246  0.66628221  1
  H+  H186  1  0.35526048  0.38130799  0.49920734  1
  H+  H187  1  0.56302500  0.40855716  0.71601323  1
  H+  H188  1  0.88875883  0.52575752  0.66155489  1
  H+  H189  1  0.16870954  0.83658543  0.89751043  1
  H+  H190  1  0.12616606  0.88387566  0.34109662  1
  H+  H191  1  0.13313775  0.26736264  0.48875107  1
  H+  H192  1  0.11328013  0.89981954  0.67631438  1
  H+  H193  1  0.89415306  0.26867006  0.32473537  1
  H+  H194  1  0.41430927  0.91075166  1.06627626  1
  H+  H195  1  0.86409464  -0.01773929  0.17094707  1
  H+  H196  1  0.86038465  0.14931820  0.13440924  1
  H+  H197  1  0.77679901  0.39166334  0.68354500  1
  H+  H198  1  0.99509801  0.11213054  0.18997487  1
  H+  H199  1  0.89065636  0.52675897  0.31766889  1
  H+  H200  1  0.87091943  0.72958600  0.83027026  1
  H+  H201  1  0.22156847  0.34832820  0.34429014  1
  H+  H202  1  0.65872325  0.01830114  0.32114781  1
  H+  H203  1  0.62508035  0.52852268  0.33892287  1
  H+  H204  1  0.13414185  0.35768851  0.49571227  1
  H+  H205  1  0.21233105  0.34439087  1.00663971  1
  H+  H206  1  0.47297689  0.10528106  0.51613360  1
  H+  H207  1  0.37189896  0.60505634  0.50578644  1
  H+  H208  1  1.02302947  0.13439989  0.37114513  1
  H+  H209  1  0.14594317  0.79429415  -0.00952122  1
  H+  H210  1  0.45721170  0.60647318  0.32865107  1
  H+  H211  1  0.20739291  0.07366886  0.01124258  1
  H+  H212  1  0.65292925  0.86703645  0.66942095  1
  H+  H213  1  0.33516443  0.85687570  0.66165476  1
  H+  H214  1  0.59322445  0.10802883  0.16490632  1
  H+  H215  1  0.53846025  0.60965890  0.82469799  1
  H+  H216  1  0.61279337  -0.02434212  0.82406560  1
  H+  H217  1  0.86982440  0.76104610  0.65955181  1
  H+  H218  1  0.21059373  0.10093271  0.50175934  1
  H+  H219  1  0.20691211  0.85202286  0.23543677  1
  H+  H220  1  0.11178944  0.47022978  0.33973976  1
  H+  H221  1  0.49646409  0.86481152  0.00305631  1
  H+  H222  1  1.02854818  0.65604545  1.00379677  1
  H+  H223  1  0.67128640  0.58483788  0.56556817  1
  H+  H224  1  0.86894285  0.24826309  0.81932579  1
  H+  H225  1  0.57621324  0.15915571  0.73570093  1
  H+  H226  1  0.34721733  0.37708340  0.66843871  1
  H+  H227  1  0.10980690  0.63431759  0.67145451  1
  H+  H228  1  0.35314253  0.14051741  0.33219772  1
  H+  H229  1  0.21992472  0.60699930  0.65283551  1
  H+  H230  1  0.92029806  0.12875925  0.21240224  1
  H+  H231  1  0.33857434  0.08715997  1.00441261  1
  H+  H232  1  0.63644174  0.11326837  0.83767815  1
  H+  H233  1  0.88033891  0.61130407  0.31864288  1
  H+  H234  1  0.87406839  0.96295806  0.82378956  1
  H+  H235  1  0.13033153  0.36321374  0.64998877  1
  H+  H236  1  0.87469639  0.74371992  0.01305274  1
  H+  H237  1  0.92816887  0.47297678  0.02330480  1
  H+  H238  1  0.51008335  0.07204805  0.35994248  1
  H+  H239  1  0.76114121  0.14169394  0.66528077  1
  H+  H240  1  0.47910852  0.13938465  0.66467933  1
  H+  H241  1  0.22277073  0.85829492  0.83542309  1
  H+  H242  1  0.63347403  0.60810199  0.65651891  1
  H+  H243  1  0.34823461  0.72174298  0.65966685  1
  H+  H244  1  0.10654359  0.48647868  0.16186280  1
  H+  H245  1  0.11119479  0.72744433  0.82731007  1
  H+  H246  1  0.36760185  0.09788146  0.84537123  1
  H+  H247  1  0.12083739  0.60794852  0.84005988  1
  H+  H248  1  0.85659749  0.62990522  0.67593653  1
  H+  H249  1  0.60514262  0.73021202  0.34054971  1
  H+  H250  1  0.37873518  0.60097214  -0.00269895  1
  H+  H251  1  0.48712588  0.80268040  0.54395219  1
  H+  H252  1  0.36897091  0.50515241  0.50888655  1
  H+  H253  1  0.11264118  0.88766133  0.83066632  1
  H+  H254  1  0.10757461  0.21187326  1.01634431  1
  H+  H255  1  0.37010531  0.96730473  0.50361505  1
  H+  H256  1  0.25620897  0.13835434  0.33351686  1
  H+  H257  1  0.92564006  0.83831006  0.26767399  1
  H+  H258  1  0.67052389  0.84045381  0.89288416  1
  H+  H259  1  0.90587864  0.11399001  0.34498633  1
  H+  H260  1  0.89320454  0.11223455  0.64765406  1
  H+  H261  1  0.47740543  0.85907533  0.82831844  1
  H+  H262  1  0.66518946  0.27643830  1.05140484  1
  H+  H263  1  0.91654955  0.59717921  0.93331997  1
  H+  H264  1  0.76230102  0.12724031  0.99382443  1
  H+  H265  1  0.47587726  0.60300852  0.17775832  1
  H+  H266  1  0.77318177  0.89587963  0.16326671  1
  H+  H267  1  0.35741288  0.00478320  0.19248815  1
  H+  H268  1  0.30842622  0.17748609  0.01430397  1
  H+  H269  1  0.86844439  0.97134240  0.66679066  1
  H+  H270  1  0.36149404  0.38280057  1.01419192  1
  H+  H271  1  0.13157386  0.61771997  0.17619276  1
  H+  H272  1  0.60806585  0.22071261  0.50367167  1
  H+  H273  1  0.02009940  0.64148287  0.15773703  1
  H+  H274  1  0.52697468  0.38734277  0.81878996  1
  H+  H275  1  0.98136107  0.86304707  0.84340706  1
  H+  H276  1  0.26685283  0.16833100  0.82536530  1
  H+  H277  1  0.38103975  0.07751107  0.67804312  1
  H+  H278  1  0.38892124  0.86190704  0.82525279  1
  H+  H279  1  0.59142187  0.46737683  0.65688257  1
  H+  H280  1  0.33028542  0.94322785  0.65250889  1
  H+  H281  1  0.54949241  0.40633998  -0.00343876  1
  H+  H282  1  -0.02097065  0.62031311  0.83950649  1
  H+  H283  1  0.64461769  0.41795894  0.99436337  1
  H+  H284  1  0.52501376  0.89657076  0.48258018  1
  H+  H285  1  0.10506998  0.96946283  0.49456063  1
  H+  H286  1  0.34517142  0.11588031  0.49657880  1
  H+  H287  1  0.34218984  0.20208783  0.49478030  1
  H+  H288  1  0.22599583  0.61278176  0.50444275  1
  H+  H289  1  0.57801273  0.14743458  0.45118371  1
  H+  H290  1  0.36852445  0.71832326  0.34552987  1
  H+  H291  1  0.95019924  0.08786117  0.29211506  1
  H+  H292  1  0.36287042  0.83699724  0.97907752  1
  H+  H293  1  0.63922723  0.36642940  0.67454702  1
  H+  H294  1  0.14109753  0.86304634  0.50368627  1
  H+  H295  1  0.65555511  0.06534611  0.92947196  1
  H+  H296  1  0.60140873  0.24622084  0.17476481  1
  H+  H297  1  0.78911575  0.45494355  0.45212216  1
  H+  H298  1  0.15838798  0.08261545  0.27446132  1
  H+  H299  1  0.62836249  0.81963100  0.57745251  1
  H+  H300  1  0.58207952  0.66391269  0.10418499  1
  H+  H301  1  0.35571005  0.46762799  0.01587739  1
  H+  H302  1  0.40696360  0.08840767  0.26689633  1
  H+  H303  1  0.08061214  0.66712506  0.76741868  1
  H+  H304  1  0.83728475  0.89786997  0.43626416  1
  H+  H305  1  0.52148232  0.63369403  1.01289905  1
  H+  H306  1  0.16747239  0.30708200  0.24562856  1
  H+  H307  1  0.84497574  0.41603251  0.38930366  1
  H+  H308  1  0.87487248  0.96683260  0.34966069  1
  H+  H309  1  0.11271899  0.72672628  0.49224007  1
  H+  H310  1  0.32082287  0.66106723  0.71887230  1
  H+  H311  1  0.38397560  0.19879162  0.66473679  1
  H+  H312  1  0.82546918  0.65927828  0.73463548  1
  H+  H313  1  0.02477974  0.37861752  0.33676330  1
  H+  H314  1  0.40200040  0.81944692  0.91873037  1
  H+  H315  1  0.40155641  0.57194628  0.57250841  1
  H+  H316  1  0.08516140  0.41574133  0.42758702  1
  H+  H317  1  0.07723039  0.15182700  0.10973150  1
  H+  H318  1  0.15849839  0.32859883  0.59137109  1
  H+  H319  1  0.67018924  0.83290844  0.23250302  1
  H+  H320  1  0.15483994  0.57887516  0.93661677  1
  H+  H321  1  0.32575924  0.91083905  0.75738306  1
  H+  H322  1  0.31656932  0.21327251  0.76213553  1
  H+  H323  1  0.41554945  0.81464986  0.57946161  1
  H+  H324  1  0.92215086  0.33015536  0.26435075  1
  H+  H325  1  0.69487984  0.35754907  0.87983919  1
  H+  H326  1  0.59388884  0.64968614  0.76414904  1
  H+  H327  1  0.08505622  0.67645123  0.10295937  1
  H+  H328  1  0.58327917  0.41626163  0.09358906  1
  H+  H329  1  0.78864179  0.13000484  0.34073439  1
  H+  H330  1  0.84097051  0.15925042  0.40317193  1
  H+  H331  1  0.91769958  0.34073284  0.59324042  1
  H+  H332  1  0.82302600  0.17298472  0.05026890  1
  H+  H333  1  0.84080783  0.90986862  0.76176464  1
  H+  H334  1  0.92673151  0.84361761  0.93817939  1
  H+  H335  1  0.33554116  0.41332311  0.40020075  1
  H+  H336  1  0.90873444  0.58482471  0.22639625  1
  H+  H337  1  0.90628329  0.81970721  0.60048784  1
  H+  H338  1  0.15792638  0.57884434  0.59521802  1
  H+  H339  1  0.92273762  0.07645053  0.90877072  1
  H+  H340  1  0.86560247  -0.02107291  1.00938934  1
  H+  H341  1  0.59165855  0.40813383  0.38177806  1
  H+  H342  1  0.54541195  0.11436208  0.10574634  1
  H+  H343  1  0.41414515  0.32466611  0.22615712  1
  H+  H344  1  0.14749734  0.82225433  0.59759744  1
  H+  H345  1  0.09082087  0.92983117  0.77494990  1
  H+  H346  1  0.69324914  0.33008358  0.97289721  1
  H+  H347  1  0.32312163  0.40737445  0.10788348  1
  H+  H348  1  0.13071458  0.99572694  0.67765113  1
  H+  H349  1  0.34484295  0.91835116  0.40313092  1
  H+  H350  1  0.60123564  0.92790853  0.73909656  1
  H+  H351  1  0.40116069  0.57178904  0.26804495  1
  H+  H352  1  0.98424976  0.37715859  0.17497410  1
  H+  H353  1  0.93495043  0.08128203  0.55322468  1
  H+  H354  1  0.68527429  0.59929728  0.90636150  1
  H+  H355  1  0.43227717  0.80713033  0.26533268  1
  H+  H356  1  0.91542464  0.33509987  0.89539696  1
  H+  H357  1  0.58601549  0.16626138  0.35490801  1
  H+  H358  1  0.15500992  0.58275245  0.23518971  1
  H+  H359  1  0.41627840  0.56455791  0.94613371  1
  H+  H360  1  0.87326136  0.63734814  0.50843342  1
  H+  H361  1  0.30835182  0.89414346  0.13517772  1
  H+  H362  1  0.68326438  0.08692859  0.23550375  1
  H+  H363  1  0.29674681  0.31877379  0.80118806  1
  H+  H364  1  0.54758334  0.89137379  0.10199990  1
  H+  H365  1  0.07487380  0.17155057  0.76341441  1
  H+  H366  1  0.38729568  0.36151783  0.32488865  1
  H+  H367  1  0.71196575  0.35739408  0.51815089  1
  H+  H368  1  0.31243894  0.39523337  0.75725012  1
  H+  H369  1  0.67506091  0.08722203  0.60215578  1
  H+  H370  1  0.07401689  0.42278550  0.10373224  1
  H+  H371  1  0.60075026  0.92509108  0.39212667  1
  H+  H372  1  0.92639676  0.59051891  0.57584878  1
  H+  H373  1  0.33825002  0.66242660  0.43834832  1
  H+  H374  1  0.14854972  0.88379061  0.98509564  1
  H+  H375  1  0.30822293  0.14241846  0.10492125  1
  H+  H376  1  0.39805813  0.07242972  0.90382857  1
  H+  H377  1  0.12231154  0.36381008  0.82918497  1
  H+  H378  1  0.72645517  0.10413450  0.51065208  1
  H+  H379  1  0.82645911  0.66089145  0.09889285  1
  H+  H380  1  0.07253731  0.66820778  0.39581998  1
  H+  H381  1  0.68418164  0.37039413  0.24431752  1
  H+  H382  1  0.07877025  0.41615310  0.72601368  1
  H+  H383  1  0.85675743  0.43075964  0.76177215  1
  O2-  O384  1  0.08008344  0.15159685  0.15526257  1
  O2-  O385  1  0.08401431  0.16887860  0.45719829  1
  O2-  O386  1  0.07575306  0.17809851  0.80894338  1
  O2-  O387  1  0.07222453  0.42463355  0.14857575  1
  O2-  O388  1  0.08874804  0.41946103  0.47373355  1
  O2-  O389  1  0.08131489  0.41763746  0.80644858  1
  O2-  O390  1  0.08177680  0.66941765  0.14752484  1
  O2-  O391  1  0.07798598  0.66562820  0.47800760  1
  O2-  O392  1  0.07892667  0.66608771  0.81293467  1
  O2-  O393  1  0.07470718  0.91233250  0.13886152  1
  O2-  O394  1  0.08126761  0.90840790  0.48118605  1
  O2-  O395  1  0.08625148  0.92345501  0.82052138  1
  O2-  O396  1  0.31743606  0.15490548  0.15029829  1
  O2-  O397  1  0.31158163  0.14181969  0.48139657  1
  O2-  O398  1  0.30463671  0.22468998  0.80383442  1
  O2-  O399  1  0.32694857  0.40907746  0.15327782  1
  O2-  O400  1  0.32918902  0.41522358  0.48341486  1
  O2-  O401  1  0.30650138  0.37881449  0.80176680  1
  O2-  O402  1  0.36521362  0.67257679  0.12682089  1
  O2-  O403  1  0.33811965  0.65680145  0.48440160  1
  O2-  O404  1  0.31212280  0.67002759  0.79974828  1
  O2-  O405  1  0.30618146  0.89978814  0.18027931  1
  O2-  O406  1  0.34105068  0.90818378  0.48563786  1
  O2-  O407  1  0.33202852  0.91041315  0.80254339  1
  O2-  O408  1  0.55041180  0.12302001  0.15048676  1
  O2-  O409  1  0.58102819  0.15684512  0.49561873  1
  O2-  O410  1  0.57939217  0.16322957  0.81410583  1
  O2-  O411  1  0.57700983  0.40990590  0.13830165  1
  O2-  O412  1  0.59485487  0.43009569  0.47053140  1
  O2-  O413  1  0.56638866  0.38013070  0.79063602  1
  O2-  O414  1  0.58171405  0.66049292  0.14975575  1
  O2-  O415  1  0.58054213  0.66306568  0.48420435  1
  O2-  O416  1  0.59728894  0.64339900  0.80900715  1
  O2-  O417  1  0.54873994  0.89243319  0.14853512  1
  O2-  O418  1  0.58470432  0.92856876  0.46777430  1
  O2-  O419  1  0.58497534  0.91658126  0.80689993  1
  O2-  O420  1  0.83095671  0.18202588  0.12981910  1
  O2-  O421  1  0.83061944  0.14056230  0.48380470  1
  O2-  O422  1  0.83865355  0.18744272  0.79923618  1
  O2-  O423  1  0.84621919  0.43220894  0.14000625  1
  O2-  O424  1  0.82305554  0.44252419  0.48071766  1
  O2-  O425  1  0.85447022  0.42834152  0.80749275  1
  O2-  O426  1  0.81776310  0.64740325  0.14364210  1
  O2-  O427  1  0.84240995  0.66746685  0.49156505  1
  O2-  O428  1  0.83671066  0.66837095  0.81483821  1
  O2-  O429  1  0.83389014  0.92731956  0.14881971  1
  O2-  O430  1  0.84080357  0.89824048  0.48163794  1
  O2-  O431  1  0.83843923  0.90464457  0.80730971  1
  O2-  O432  1  0.16037094  0.07428871  0.20427400  1
  O2-  O433  1  0.14941334  0.07721984  0.51610048  1
  O2-  O434  1  0.21642057  0.07703498  0.86600600  1
  O2-  O435  1  0.16625528  0.30414074  0.20117005  1
  O2-  O436  1  0.16304573  0.32560145  0.50978358  1
  O2-  O437  1  0.14808315  0.32672663  0.84279108  1
  O2-  O438  1  0.16032322  0.58551381  0.19065394  1
  O2-  O439  1  0.16447300  0.58373289  0.51604455  1
  O2-  O440  1  0.15202407  0.57729256  0.85368313  1
  O2-  O441  1  0.21393568  0.86406086  0.19025366  1
  O2-  O442  1  0.16715979  0.82885008  0.51940274  1
  O2-  O443  1  0.16347581  0.82964925  0.85165245  1
  O2-  O444  1  0.39472889  0.06851172  0.19877188  1
  O2-  O445  1  0.41101886  0.07154547  0.52776246  1
  O2-  O446  1  0.40693291  0.07847281  0.85878284  1
  O2-  O447  1  0.41180772  0.32373548  0.18109528  1
  O2-  O448  1  0.39418837  0.31535297  0.52674220  1
  O2-  O449  1  0.43297576  0.35932481  0.85950231  1
  O2-  O450  1  0.41502186  0.57454963  0.19221972  1
  O2-  O451  1  0.39937888  0.56865991  0.52450066  1
  O2-  O452  1  0.43165260  0.55304762  0.86221561  1
  O2-  O453  1  0.38834857  0.81014062  0.20360623  1
  O2-  O454  1  0.43651462  0.80945385  0.53601228  1
  O2-  O455  1  0.41535837  0.82794370  0.84075928  1
  O2-  O456  1  0.67918854  0.08382739  0.18929570  1
  O2-  O457  1  0.66833598  0.08005655  0.52931594  1
  O2-  O458  1  0.66801456  0.08339894  0.85069838  1
  O2-  O459  1  0.63891189  0.30780542  0.18170111  1
  O2-  O460  1  0.64979697  0.32181486  0.52496989  1
  O2-  O461  1  0.68586915  0.33615020  0.83699165  1
  O2-  O462  1  0.66730215  0.57506608  0.17952325  1
  O2-  O463  1  0.67791542  0.58932604  0.51986041  1
  O2-  O464  1  0.68719677  0.59271897  0.85978530  1
  O2-  O465  1  0.66605621  0.83337959  0.18698372  1
  O2-  O466  1  0.59215147  0.80298436  0.53977897  1
  O2-  O467  1  0.66802776  0.84827260  0.84776555  1
  O2-  O468  1  0.93856525  0.08622886  0.21478710  1
  O2-  O469  1  0.92719772  0.07565421  0.50828029  1
  O2-  O470  1  0.91805069  0.07203579  0.86226560  1
  O2-  O471  1  0.92195625  0.34271781  0.19275670  1
  O2-  O472  1  0.91486195  0.36029156  0.51240131  1
  O2-  O473  1  0.91989182  0.33590698  0.84870593  1
  O2-  O474  1  0.90626901  0.58598445  0.18081218  1
  O2-  O475  1  0.92393904  0.59085764  0.52948840  1
  O2-  O476  1  0.91793938  0.58934370  0.85454785  1
  O2-  O477  1  0.92149757  0.84329069  0.19683441  1
  O2-  O478  1  0.91721789  0.81882951  0.51760329  1
  O2-  O479  1  0.92035907  0.82801837  0.85820167  1
  O2-  O480  1  0.16596603  0.08548090  0.32118772  1
  O2-  O481  1  0.17325795  0.10592249  0.63922670  1
  O2-  O482  1  0.14387331  0.04495574  0.98950987  1
  O2-  O483  1  0.15805585  0.31146979  0.33695569  1
  O2-  O484  1  0.16105273  0.33251127  0.63670852  1
  O2-  O485  1  0.15174032  0.30928218  0.99389549  1
  O2-  O486  1  0.15298035  0.57491200  0.32274493  1
  O2-  O487  1  0.15764805  0.57712111  0.64066277  1
  O2-  O488  1  0.15380536  0.57856872  0.98171738  1
  O2-  O489  1  0.18115423  0.83575080  0.31194517  1
  O2-  O490  1  0.14137248  0.81944708  0.64277876  1
  O2-  O491  1  0.17729851  0.85234857  0.97114812  1
  O2-  O492  1  0.41759257  0.10620084  0.31222140  1
  O2-  O493  1  0.41944998  0.12374116  0.65089696  1
  O2-  O494  1  0.36885207  0.05182636  0.98356791  1
  O2-  O495  1  0.41278123  0.32712215  0.30871703  1
  O2-  O496  1  0.39045161  0.31123639  0.64853909  1
  O2-  O497  1  0.43968627  0.35180961  0.97991302  1
  O2-  O498  1  0.39688084  0.57059924  0.31389629  1
  O2-  O499  1  0.40951398  0.57968825  0.63963295  1
  O2-  O500  1  0.41280388  0.57061035  0.99027723  1
  O2-  O501  1  0.46230434  0.79789402  0.30141420  1
  O2-  O502  1  0.38283756  0.81437640  0.64298358  1
  O2-  O503  1  0.39663224  0.81182578  0.96390286  1
  O2-  O504  1  0.68742025  0.08143367  0.30903955  1
  O2-  O505  1  0.67996862  0.09368526  0.64839074  1
  O2-  O506  1  0.65418940  0.06016930  0.97465599  1
  O2-  O507  1  0.70267628  0.41211079  0.27873171  1
  O2-  O508  1  0.67361893  0.34312789  0.69220728  1
  O2-  O509  1  0.71889710  0.38773989  0.95565879  1
  O2-  O510  1  0.65913687  0.58895695  0.35166827  1
  O2-  O511  1  0.65983730  0.57435031  0.64081884  1
  O2-  O512  1  0.68004153  0.60294903  0.97621777  1
  O2-  O513  1  0.68079961  0.82985345  0.30955880  1
  O2-  O514  1  0.67133965  0.82981302  0.64892201  1
  O2-  O515  1  0.67586959  0.83099500  0.96789279  1
  O2-  O516  1  0.94406127  0.08853356  0.33755830  1
  O2-  O517  1  0.92481561  0.08403468  0.63413324  1
  O2-  O518  1  0.91769416  0.08425559  0.98054537  1
  O2-  O519  1  0.92306454  0.32912742  0.31086653  1
  O2-  O520  1  0.91652456  0.33332080  0.63802503  1
  O2-  O521  1  0.90826808  0.33327691  0.96623986  1
  O2-  O522  1  0.91763312  0.58681105  0.30328699  1
  O2-  O523  1  0.91824634  0.58725968  0.64807713  1
  O2-  O524  1  0.91556182  0.60022612  0.97860844  1
  O2-  O525  1  0.92300075  0.83237172  0.31409385  1
  O2-  O526  1  0.89967666  0.82121329  0.64487898  1
  O2-  O527  1  0.93472262  0.85113820  0.98315146  1
  O2-  O528  1  0.07300861  0.14974270  0.03145608  1
  O2-  O529  1  0.08749453  0.16789565  0.38931889  1
  O2-  O530  1  0.08044849  0.17093563  0.68714413  1
  O2-  O531  1  0.07301407  0.40814576  0.02021877  1
  O2-  O532  1  0.08468793  0.40878557  0.35399047  1
  O2-  O533  1  0.07671289  0.41388159  0.68059595  1
  O2-  O534  1  0.08945488  0.68624935  0.01717942  1
  O2-  O535  1  0.07759778  0.66932568  0.35082684  1
  O2-  O536  1  0.07901438  0.66243350  0.68922260  1
  O2-  O537  1  0.10390598  0.95468479  0.01108899  1
  O2-  O538  1  0.09255192  0.90979754  0.35842221  1
  O2-  O539  1  0.10550082  0.94166076  0.70049013  1
  O2-  O540  1  0.29370775  0.12204575  0.03157586  1
  O2-  O541  1  0.32258241  0.17300861  0.34387167  1
  O2-  O542  1  0.34983558  0.22626951  0.67834259  1
  O2-  O543  1  0.32586595  0.40619403  0.02948266  1
  O2-  O544  1  0.32998000  0.40786745  0.35529295  1
  O2-  O545  1  0.32203719  0.41266093  0.68208151  1
  O2-  O546  1  0.32274975  0.64792013  0.01332851  1
  O2-  O547  1  0.32820515  0.66203010  0.36421744  1
  O2-  O548  1  0.32443972  0.65810032  0.67403958  1
  O2-  O549  1  0.35797817  0.90559577  0.06047225  1
  O2-  O550  1  0.34468376  0.92254251  0.35817171  1
  O2-  O551  1  0.30723723  0.89291258  0.67868907  1
  O2-  O552  1  0.53397576  0.10755814  0.02443884  1
  O2-  O553  1  0.56965836  0.10993395  0.37298880  1
  O2-  O554  1  0.57657929  0.16491310  0.69033202  1
  O2-  O555  1  0.60880543  0.43937436  0.01327737  1
  O2-  O556  1  0.57752994  0.40861679  0.33873276  1
  O2-  O557  1  0.55698228  0.40622091  0.67089520  1
  O2-  O558  1  0.58231708  0.66813660  0.02651905  1
  O2-  O559  1  0.56054351  0.67339568  0.35695886  1
  O2-  O560  1  0.58469556  0.66280683  0.68624468  1
  O2-  O561  1  0.54397508  0.90029976  0.03142867  1
  O2-  O562  1  0.60954411  0.92382413  0.34726641  1
  O2-  O563  1  0.61361800  0.93638898  0.69237360  1
  O2-  O564  1  0.82380131  0.16457254  0.00571180  1
  O2-  O565  1  0.84794501  0.16099875  0.35827325  1
  O2-  O566  1  0.82986072  0.17986822  0.68069859  1
  O2-  O567  1  0.86659617  0.43887401  0.01521640  1
  O2-  O568  1  0.84308401  0.41573726  0.34496911  1
  O2-  O569  1  0.84175548  0.42428978  0.68654766  1
  O2-  O570  1  0.83846210  0.68181922  0.02442521  1
  O2-  O571  1  0.83246648  0.65764428  0.34255330  1
  O2-  O572  1  0.81960154  0.65363776  0.68955768  1
  O2-  O573  1  0.83940092  0.91863678  0.02397338  1
  O2-  O574  1  0.84057528  0.90480919  0.35798378  1
  O2-  O575  1  0.83576754  0.91290814  0.68407474  1
