# generated using pymatgen
data_H2O
_symmetry_space_group_name_H-M   'P 1'
_cell_length_a   17.99614727
_cell_length_b   17.99265241
_cell_length_c   22.01135182
_cell_angle_alpha   90.00566681
_cell_angle_beta   89.99808843
_cell_angle_gamma   119.99450433
_symmetry_Int_Tables_number   1
_chemical_formula_structural   H2O
_chemical_formula_sum   'H384 O192'
_cell_volume   6172.71351500
_cell_formula_units_Z   192
loop_
 _symmetry_equiv_pos_site_id
 _symmetry_equiv_pos_as_xyz
  1  'x, y, z'
loop_
 _atom_type_symbol
 _atom_type_oxidation_number
  H+  1.0
  O2-  -2.0
loop_
 _atom_site_type_symbol
 _atom_site_label
 _atom_site_symmetry_multiplicity
 _atom_site_fract_x
 _atom_site_fract_y
 _atom_site_fract_z
 _atom_site_occupancy
  H+  H0  1  0.97723603  0.11136794  0.50719302  1
  H+  H1  1  0.34923679  0.46976084  0.33094312  1
  H+  H2  1  0.11476993  0.22132486  0.15086149  1
  H+  H3  1  0.23674784  0.12643641  0.67149351  1
  H+  H4  1  0.66455099  0.79104281  0.51678442  1
  H+  H5  1  0.46087391  0.60090354  0.83211067  1
  H+  H6  1  0.04267031  0.57903686  0.10301675  1
  H+  H7  1  -0.02565135  0.85781924  0.16878468  1
  H+  H8  1  0.61801213  0.88728087  0.34878459  1
  H+  H9  1  0.26980946  0.37315850  0.83315718  1
  H+  H10  1  0.68236081  0.15935634  0.20052589  1
  H+  H11  1  0.41227713  0.32933502  0.22772064  1
  H+  H12  1  0.88015315  0.28052944  0.31193456  1
  H+  H13  1  0.51249127  0.38077649  0.15877809  1
  H+  H14  1  0.48251207  0.36652825  -0.00847343  1
  H+  H15  1  0.34455584  0.13354681  0.34835995  1
  H+  H16  1  0.10976935  0.88286759  0.15640844  1
  H+  H17  1  0.64966657  0.61765297  0.32396004  1
  H+  H18  1  -0.03017726  0.36872007  0.52147576  1
  H+  H19  1  0.70136671  0.41487473  0.56598886  1
  H+  H20  1  0.63472740  0.82947972  0.17268992  1
  H+  H21  1  0.96815619  0.85675192  0.50482873  1
  H+  H22  1  0.63198062  1.02668679  0.36576650  1
  H+  H23  1  0.84106980  0.90675882  0.77205332  1
  H+  H24  1  0.38492432  0.35493417  0.84242337  1
  H+  H25  1  0.14912972  0.27925732  0.50772844  1
  H+  H26  1  0.50748526  0.98252615  0.77345857  1
  H+  H27  1  0.13203815  0.26774413  0.31849803  1
  H+  H28  1  0.11480945  0.84600447  0.50709573  1
  H+  H29  1  0.00397200  0.65086028  0.82426954  1
  H+  H30  1  0.77933743  0.63883721  0.33356749  1
  H+  H31  1  0.38750993  0.11010024  0.84336882  1
  H+  H32  1  0.22238730  0.35677972  0.16252985  1
  H+  H33  1  0.58487003  0.62719019  0.77128621  1
  H+  H34  1  0.89906140  0.09448524  0.39465505  1
  H+  H35  1  0.22588450  0.36404635  0.98949757  1
  H+  H36  1  0.10370516  0.38211495  0.67098623  1
  H+  H37  1  0.16042601  0.83641385  0.89940965  1
  H+  H38  1  0.86314309  0.47179174  0.00381942  1
  H+  H39  1  0.53366647  0.13005961  0.17319950  1
  H+  H40  1  0.11108711  0.97550342  0.33701644  1
  H+  H41  1  0.85437088  0.17059833  0.05830968  1
  H+  H42  1  0.10637872  0.63279934  0.67716258  1
  H+  H43  1  0.88458619  0.70891369  0.84213397  1
  H+  H44  1  0.26354590  0.63659989  0.30636278  1
  H+  H45  1  0.61577081  0.47078407  0.83673486  1
  H+  H46  1  0.63708528  0.52181397  0.32455113  1
  H+  H47  1  0.61717137  0.60145837  0.17036187  1
  H+  H48  1  0.47777874  0.35958374  0.84327286  1
  H+  H49  1  0.21745670  0.11177718  0.32236222  1
  H+  H50  1  0.68266916  0.61967898  0.85041780  1
  H+  H51  1  0.64944590  0.63836750  0.67348322  1
  H+  H52  1  0.40793493  0.11568302  0.72702316  1
  H+  H53  1  0.63324833  0.36793650  0.16820469  1
  H+  H54  1  0.88540347  0.61508854  0.50166896  1
  H+  H55  1  0.76793091  0.39104966  0.65349169  1
  H+  H56  1  0.10396937  0.72378594  0.49285052  1
  H+  H57  1  0.28530735  0.13700008  0.16302591  1
  H+  H58  1  0.30446633  0.65971581  0.58016286  1
  H+  H59  1  0.52610600  0.14089231  0.84478431  1
  H+  H60  1  0.13096675  0.51970053  0.17446898  1
  H+  H61  1  0.26836585  0.88369687  0.83331500  1
  H+  H62  1  1.01431844  0.38449635  0.67593447  1
  H+  H63  1  0.33182816  0.93424066  0.48876832  1
  H+  H64  1  0.60039323  0.22482097  0.31913451  1
  H+  H65  1  0.38596981  0.26496697  0.16990056  1
  H+  H66  1  0.35519789  0.22712452  0.33520485  1
  H+  H67  1  0.51915399  0.38303709  0.49018045  1
  H+  H68  1  0.37439972  0.61155164  0.53653864  1
  H+  H69  1  0.02767741  0.39354166  0.00509221  1
  H+  H70  1  0.09900852  0.96452435  0.84251312  1
  H+  H71  1  0.32610198  0.13517852  0.65779253  1
  H+  H72  1  0.16246685  0.47838986  0.80583178  1
  H+  H73  1  0.36511809  0.22021676  0.82159721  1
  H+  H74  1  0.76632014  0.38506159  0.50775425  1
  H+  H75  1  0.86704709  0.40080522  0.31687833  1
  H+  H76  1  0.67197730  0.12314552  0.50592025  1
  H+  H77  1  0.11249511  0.97161751  0.15511533  1
  H+  H78  1  0.20235161  0.10487537  0.51394850  1
  H+  H79  1  0.13096430  0.77234473  0.84216986  1
  H+  H80  1  0.14714197  0.52727095  0.32024510  1
  H+  H81  1  0.66617945  1.01916197  -0.00688572  1
  H+  H82  1  0.97738635  0.86891672  0.32879335  1
  H+  H83  1  0.60819715  0.38640169  0.33352281  1
  H+  H84  1  0.21940020  0.36240768  0.67090842  1
  H+  H85  1  0.43054984  0.10932000  0.65847716  1
  H+  H86  1  0.89226856  0.01456364  0.99280854  1
  H+  H87  1  0.87625147  0.36739470  0.65923809  1
  H+  H88  1  0.13333886  0.35912785  0.51960309  1
  H+  H89  1  0.88404324  0.23513501  0.14907202  1
  H+  H90  1  0.65822860  0.33553984  0.25714391  1
  H+  H91  1  0.87210836  0.64899300  0.32926778  1
  H+  H92  1  0.09603920  0.21969866  0.82545014  1
  H+  H93  1  0.64591240  0.75000493  0.33926628  1
  H+  H94  1  0.64134738  0.38280083  0.50779733  1
  H+  H95  1  0.36289958  0.58015349  0.84028999  1
  H+  H96  1  0.88327447  0.27069116  0.50930730  1
  H+  H97  1  0.88697125  0.60624308  1.00862753  1
  H+  H98  1  0.47324640  0.36364328  0.32456284  1
  H+  H99  1  0.16674400  0.08000393  0.22482059  1
  H+  H100  1  0.35107159  0.86912633  0.14251742  1
  H+  H101  1  0.10124454  0.22168172  0.67147349  1
  H+  H102  1  0.42712061  0.83455650  1.07193246  1
  H+  H103  1  0.43955831  0.85923438  0.70288283  1
  H+  H104  1  0.11916546  0.61295247  0.50048323  1
  H+  H105  1  0.48569980  0.86011976  0.34270459  1
  H+  H106  1  0.09911840  0.87768904  0.83393339  1
  H+  H107  1  0.02643020  0.12989284  0.00018273  1
  H+  H108  1  0.46815118  0.10703835  -0.00170840  1
  H+  H109  1  0.68693856  0.08143725  0.93662518  1
  H+  H110  1  0.85866741  0.47923496  0.64808523  1
  H+  H111  1  0.73660777  0.87226627  0.32549369  1
  H+  H112  1  0.73377597  0.10017887  0.66685440  1
  H+  H113  1  -0.01776205  0.37115105  0.83989665  1
  H+  H114  1  0.22620176  0.09075423  0.84524928  1
  H+  H115  1  0.36161168  0.72086056  0.15010081  1
  H+  H116  1  0.85755367  0.47909027  0.15236861  1
  H+  H117  1  0.61123576  0.47148409  0.48732455  1
  H+  H118  1  0.97467662  0.36560211  0.31159162  1
  H+  H119  1  0.86253365  0.72518817  0.49021411  1
  H+  H120  1  0.87069116  0.22711552  0.83090139  1
  H+  H121  1  0.88951918  0.35994118  0.99294259  1
  H+  H122  1  0.72676922  0.62691156  0.69548449  1
  H+  H123  1  0.58388764  0.65397828  0.09854761  1
  H+  H124  1  0.12753918  0.51713842  0.65717215  1
  H+  H125  1  0.15197927  0.11599546  0.99575702  1
  H+  H126  1  0.64874067  0.22236691  0.46090159  1
  H+  H127  1  0.35957203  0.63350442  0.29697814  1
  H+  H128  1  0.61288732  0.22567512  0.16821834  1
  H+  H129  1  0.86365164  0.60070532  0.13945680  1
  H+  H130  1  0.36090154  0.72963496  0.53231087  1
  H+  H131  1  0.72382055  0.36921156  0.16869195  1
  H+  H132  1  0.60045670  0.70943090  0.80911089  1
  H+  H133  1  0.11724248  1.01024352  0.66106449  1
  H+  H134  1  0.61011131  0.70820721  0.16221127  1
  H+  H135  1  0.61098518  0.38060072  0.83642540  1
  H+  H136  1  0.72565252  0.59903087  1.01042141  1
  H+  H137  1  0.38314584  0.61219712  0.68209746  1
  H+  H138  1  0.26654146  0.62992505  0.15990361  1
  H+  H139  1  0.73372112  0.59716246  0.49917888  1
  H+  H140  1  0.85937896  0.96072636  0.83253009  1
  H+  H141  1  0.61650234  0.50460240  0.17031818  1
  H+  H142  1  -0.01627327  0.11131862  0.16968959  1
  H+  H143  1  0.89792504  0.27431771  0.99104794  1
  H+  H144  1  0.76735669  0.15719587  0.18213252  1
  H+  H145  1  0.85941789  0.87114522  0.16155468  1
  H+  H146  1  1.01763553  0.88340702  0.66735633  1
  H+  H147  1  0.14461588  0.11197803  0.16369767  1
  H+  H148  1  0.97216823  0.84681992  0.85282216  1
  H+  H149  1  0.38959032  0.37479710  0.50207811  1
  H+  H150  1  0.11763309  0.13742349  0.49325482  1
  H+  H151  1  0.13188823  0.78320813  -0.00621753  1
  H+  H152  1  0.88218067  0.86136149  0.50639873  1
  H+  H153  1  0.88649333  0.02304289  0.49877771  1
  H+  H154  1  0.88216396  0.14434635  0.15638843  1
  H+  H155  1  0.01614390  0.63256743  0.48930748  1
  H+  H156  1  0.68157757  0.07419116  0.60420485  1
  H+  H157  1  0.79186332  0.16616788  0.27545706  1
  H+  H158  1  0.34494499  0.71804126  0.68991501  1
  H+  H159  1  0.72866998  0.83911771  0.17457457  1
  H+  H160  1  0.72817486  0.11634746  0.84382626  1
  H+  H161  1  0.30222972  0.05747244  0.48140819  1
  H+  H162  1  0.65036280  0.99561269  0.22173859  1
  H+  H163  1  0.38928590  0.85589570  0.51651878  1
  H+  H164  1  0.13945685  0.36913889  0.99257981  1
  H+  H165  1  0.79275174  0.13499659  -0.00032714  1
  H+  H166  1  0.56270680  0.65495532  0.48226482  1
  H+  H167  1  0.52651245  0.62714695  0.00749443  1
  H+  H168  1  0.71767139  0.36202335  0.31538289  1
  H+  H169  1  0.36183344  0.72634214  0.86532119  1
  H+  H170  1  0.83503785  0.16324025  0.74211786  1
  H+  H171  1  0.62279830  0.10722210  0.34355997  1
  H+  H172  1  0.60027296  0.22226992  0.01717536  1
  H+  H173  1  0.13633858  0.76839627  0.16618839  1
  H+  H174  1  0.64345878  1.12081965  0.85510637  1
  H+  H175  1  0.55543066  0.89759786  0.80267717  1
  H+  H176  1  0.00951620  0.13372528  0.66910761  1
  H+  H177  1  0.35512768  0.26878002  0.65149021  1
  H+  H178  1  0.35876587  0.97218678  0.00522661  1
  H+  H179  1  0.97535455  0.61525806  0.99016317  1
  H+  H180  1  0.72754650  0.83682003  0.83259735  1
  H+  H181  1  0.64030549  -0.03350046  0.65641757  1
  H+  H182  1  0.22241247  0.35654473  0.32050547  1
  H+  H183  1  0.46426742  0.61555592  0.54025697  1
  H+  H184  1  0.66396074  0.81153842  0.92074695  1
  H+  H185  1  0.38993913  0.61123673  -0.00518998  1
  H+  H186  1  0.12587571  0.76821477  0.32264472  1
  H+  H187  1  0.37915453  0.10641438  0.99872429  1
  H+  H188  1  0.10978578  0.88565058  0.33682829  1
  H+  H189  1  0.52288374  0.13255699  0.49792753  1
  H+  H190  1  0.36662379  0.47467259  1.00260026  1
  H+  H191  1  0.77313655  0.87142570  0.68227217  1
  H+  H192  1  0.23156823  0.59774148  0.83218469  1
  H+  H193  1  0.55407131  0.87606896  0.64207288  1
  H+  H194  1  0.11577183  0.48533779  1.00790336  1
  H+  H195  1  0.33624629  0.24331996  0.48847958  1
  H+  H196  1  0.40768339  0.73708764  0.86110153  1
  H+  H197  1  0.01850560  0.63486196  0.67597734  1
  H+  H198  1  0.10043731  0.48245237  0.51169883  1
  H+  H199  1  0.55115802  0.14518263  0.70338354  1
  H+  H200  1  0.72263696  0.36331357  0.99862951  1
  H+  H201  1  0.78038982  0.89957795  0.49760051  1
  H+  H202  1  0.37098379  0.72596462  1.01691451  1
  H+  H203  1  0.13884187  0.35998160  0.83661416  1
  H+  H204  1  0.35622463  0.46233051  0.14937565  1
  H+  H205  1  0.85207954  0.48814454  0.82699525  1
  H+  H206  1  0.65007875  0.87108509  0.51419196  1
  H+  H207  1  0.86237233  0.13262566  0.83273647  1
  H+  H208  1  0.52489995  0.17301017  0.50952823  1
  H+  H209  1  0.36596073  0.36125711  0.65527814  1
  H+  H210  1  0.96059317  0.86729981  1.00555888  1
  H+  H211  1  0.36030396  0.46204586  0.83398524  1
  H+  H212  1  0.63129789  0.37442966  0.67564222  1
  H+  H213  1  0.38882076  0.36988485  0.98850857  1
  H+  H214  1  0.86451326  0.97876333  0.34421992  1
  H+  H215  1  0.10663311  0.62049087  0.84981713  1
  H+  H216  1  0.65183404  0.60484830  0.50751464  1
  H+  H217  1  0.46367966  0.60146330  0.15786523  1
  H+  H218  1  0.10750182  0.88595457  0.66526437  1
  H+  H219  1  0.11285908  0.10134958  0.66194597  1
  H+  H220  1  0.87829765  0.83375684  0.84673384  1
  H+  H221  1  0.87638859  0.12097944  0.33218907  1
  H+  H222  1  0.64324373  0.76473763  -0.01482621  1
  H+  H223  1  0.85280297  -0.03245393  0.67275559  1
  H+  H224  1  0.84906436  0.70770426  0.06287888  1
  H+  H225  1  0.88762280  0.78068391  0.32828635  1
  H+  H226  1  0.88292130  0.52495554  0.50757322  1
  H+  H227  1  0.27352325  0.39516732  0.49325277  1
  H+  H228  1  0.11075048  0.22309972  0.00118103  1
  H+  H229  1  0.87625419  0.11078447  0.66291581  1
  H+  H230  1  0.88113084  0.14888900  0.48967974  1
  H+  H231  1  0.09869002  0.96560657  0.49591315  1
  H+  H232  1  0.16276655  0.32983185  0.89843895  1
  H+  H233  1  0.12374849  0.60491517  0.17357654  1
  H+  H234  1  0.86191541  0.40469032  0.83156030  1
  H+  H235  1  0.75731493  0.59862038  0.85072500  1
  H+  H236  1  0.51303723  0.84022860  0.14150363  1
  H+  H237  1  0.86815736  0.35964671  0.51387569  1
  H+  H238  1  -0.00205758  0.61692129  0.14441032  1
  H+  H239  1  0.88388035  0.85789615  0.66074253  1
  H+  H240  1  -0.01803762  0.62796958  0.31118307  1
  H+  H241  1  0.23148416  0.62275953  -0.00251803  1
  H+  H242  1  0.61523232  0.97209211  0.50096497  1
  H+  H243  1  0.61461611  0.62430496  1.00847620  1
  H+  H244  1  0.21280445  0.85681033  0.66125049  1
  H+  H245  1  0.34885715  0.96849325  0.68633747  1
  H+  H246  1  0.64087836  0.83867202  0.82605626  1
  H+  H247  1  0.41608072  0.91268458  0.79581640  1
  H+  H248  1  0.61720470  0.00367625  0.20677306  1
  H+  H249  1  0.96090433  0.10246177  0.83739878  1
  H+  H250  1  0.60888387  0.46831779  0.00810884  1
  H+  H251  1  0.39275383  0.01577961  0.17084446  1
  H+  H252  1  0.74232315  0.10002394  0.51101216  1
  H+  H253  1  0.16074482  0.58479217  0.26167715  1
  H+  H254  1  0.86762386  0.72731163  0.68071859  1
  H+  H255  1  0.36206016  0.05528013  0.43050582  1
  H+  H256  1  0.34543430  0.16526740  0.10339070  1
  H+  H257  1  0.30154592  0.18401206  0.42771207  1
  H+  H258  1  0.12592281  0.76692916  0.66319469  1
  H+  H259  1  0.24073201  0.11572180  1.00181723  1
  H+  H260  1  0.86051116  0.39066538  0.15445441  1
  H+  H261  1  0.44415715  0.86397345  0.28154020  1
  H+  H262  1  0.56203697  0.66387822  0.35911743  1
  H+  H263  1  0.85843767  0.22608083  0.68513023  1
  H+  H264  1  0.12714258  0.10698346  0.31935560  1
  H+  H265  1  0.02023779  0.14178864  0.34522898  1
  H+  H266  1  0.20865103  0.61137944  0.51222902  1
  H+  H267  1  0.25635753  0.86789633  0.33612238  1
  H+  H268  1  0.36840504  0.88932171  1.01460987  1
  H+  H269  1  0.34822846  0.87174312  0.33833301  1
  H+  H270  1  0.72468348  0.36971193  0.84721907  1
  H+  H271  1  0.11463699  0.38854791  0.15620105  1
  H+  H272  1  0.45417683  0.59654791  0.29751828  1
  H+  H273  1  0.89512690  0.10631348  0.99193942  1
  H+  H274  1  0.11018995  0.63674450  0.33975434  1
  H+  H275  1  0.52613646  0.88262302  0.50772193  1
  H+  H276  1  0.38356781  0.36234016  0.32475286  1
  H+  H277  1  0.35735836  0.37332906  0.15342205  1
  H+  H278  1  0.62686437  0.24097113  0.70035554  1
  H+  H279  1  0.35646440  0.47700174  0.68893615  1
  H+  H280  1  0.32473428  0.40669967  0.74143106  1
  H+  H281  1  0.61913486  0.48874712  0.69003130  1
  H+  H282  1  0.11769142  0.38134214  0.31435710  1
  H+  H283  1  0.49012011  0.86067244  0.01559419  1
  H+  H284  1  0.98138957  0.37401425  0.16315986  1
  H+  H285  1  0.62247607  0.87247731  -0.00918371  1
  H+  H286  1  0.86787515  0.89016562  0.33960662  1
  H+  H287  1  0.36868371  0.73233189  0.31128296  1
  H+  H288  1  0.60607587  0.37743981  0.00891758  1
  H+  H289  1  0.28230603  0.60788919  0.77035346  1
  H+  H290  1  0.31032395  0.90723496  0.74136490  1
  H+  H291  1  0.91644639  0.34060265  0.21938310  1
  H+  H292  1  0.84605801  0.18457465  0.43530350  1
  H+  H293  1  0.82602180  0.89995049  0.10408733  1
  H+  H294  1  0.40721975  0.86552283  0.91163569  1
  H+  H295  1  0.08657443  0.40793240  0.37181537  1
  H+  H296  1  0.15982042  0.82656130  0.26235817  1
  H+  H297  1  0.40517294  0.33519752  0.56252392  1
  H+  H298  1  0.07277766  0.66877896  0.77077990  1
  H+  H299  1  0.90738041  0.82311824  0.60087913  1
  H+  H300  1  0.91137709  0.60372576  0.20761852  1
  H+  H301  1  0.66205381  0.33500379  0.94059901  1
  H+  H302  1  0.07518252  0.66424116  0.39751075  1
  H+  H303  1  0.42054827  0.33477476  0.92489376  1
  H+  H304  1  0.32789855  0.65271526  0.06554106  1
  H+  H305  1  0.57357143  0.41381981  0.09890515  1
  H+  H306  1  0.67989873  0.17032542  0.42079849  1
  H+  H307  1  0.80470684  0.36832196  0.44802506  1
  H+  H308  1  0.55264967  0.17162717  0.37641050  1
  H+  H309  1  0.09597139  0.52788086  0.85834859  1
  H+  H310  1  0.60301294  0.92502417  0.15125990  1
  H+  H311  1  0.67362204  0.83091399  0.26683430  1
  H+  H312  1  0.06330416  0.16302311  0.76532837  1
  H+  H313  1  0.09693371  0.17407157  0.39369445  1
  H+  H314  1  0.91815308  0.83229906  0.22857150  1
  H+  H315  1  0.32752062  0.42111178  0.39559721  1
  H+  H316  1  0.37279990  0.60344138  0.15806762  1
  H+  H317  1  0.36060178  0.85146154  0.67237979  1
  H+  H318  1  0.16872133  0.33258595  0.60796640  1
  H+  H319  1  0.16399105  0.32779002  0.22232677  1
  H+  H320  1  0.39524387  0.56458456  0.23919318  1
  H+  H321  1  0.82992335  0.41199568  0.06225734  1
  H+  H322  1  0.36071193  0.48345148  0.49495719  1
  H+  H323  1  0.83659165  0.92185619  0.43486961  1
  H+  H324  1  0.37563836  0.64811430  0.41315265  1
  H+  H325  1  0.08864820  0.42426523  0.09775056  1
  H+  H326  1  0.41118639  0.07934298  0.90601729  1
  H+  H327  1  0.42137279  0.83766514  0.19036842  1
  H+  H328  1  0.88842246  0.61900360  0.66310826  1
  H+  H329  1  0.85318614  0.66789187  0.73997550  1
  H+  H330  1  0.59573083  0.17790486  0.78998219  1
  H+  H331  1  0.14359576  0.06873559  0.57421546  1
  H+  H332  1  0.37386276  0.03295315  0.58461214  1
  H+  H333  1  0.65308938  0.57117178  0.23401223  1
  H+  H334  1  0.90765963  0.06941378  0.89914803  1
  H+  H335  1  0.16131555  0.59573676  0.94337023  1
  H+  H336  1  0.63239463  0.31430345  0.62121949  1
  H+  H337  1  0.41712836  0.57916765  0.93520591  1
  H+  H338  1  0.60241332  0.89589702  0.05598975  1
  H+  H339  1  0.12594845  0.65682455  0.00443215  1
  H+  H340  1  0.44418195  0.09394936  0.33141134  1
  H+  H341  1  0.89357491  0.02704039  0.17531114  1
  H+  H342  1  0.57954409  0.41427992  0.39481630  1
  H+  H343  1  0.07559412  0.91212250  0.43328335  1
  H+  H344  1  0.25801250  0.62850888  0.67589498  1
  H+  H345  1  0.32233019  0.16378608  0.76177352  1
  H+  H346  1  0.84053062  0.66913752  0.42857986  1
  H+  H347  1  0.14613965  0.81629919  0.56573809  1
  H+  H348  1  0.91963798  0.85232706  0.93963473  1
  H+  H349  1  0.92475762  0.34069268  0.89907515  1
  H+  H350  1  0.63696549  0.83066066  0.67432539  1
  H+  H351  1  0.32742159  0.62497716  0.41370465  1
  H+  H352  1  0.60805188  0.89751528  0.74713496  1
  H+  H353  1  0.76313243  0.14228534  0.34106660  1
  H+  H354  1  0.45462477  0.89659156  0.91114299  1
  H+  H355  1  0.15075728  0.57862692  0.59864523  1
  H+  H356  1  0.89318539  0.54419269  0.29717470  1
  H+  H357  1  0.55299832  0.68072104  0.68128892  1
  H+  H358  1  0.33360363  0.40698262  0.05845766  1
  H+  H359  1  0.68494426  0.57646869  0.94381989  1
  H+  H360  1  0.08555354  0.16051182  0.09264111  1
  H+  H361  1  0.90016434  0.08028276  0.60074158  1
  H+  H362  1  0.08520436  0.68374246  0.05788038  1
  H+  H363  1  0.58367306  0.90450333  0.41306619  1
  H+  H364  1  0.32170711  0.91108121  0.09206166  1
  H+  H365  1  0.57603167  0.16189506  0.07480634  1
  H+  H366  1  0.06746778  0.40662579  0.46347979  1
  H+  H367  1  0.41245766  0.57790839  0.62688764  1
  H+  H368  1  0.35973678  1.00347912  0.34493468  1
  H+  H369  1  0.84855649  0.45280219  0.36722152  1
  H+  H370  1  0.35463760  0.97777067  0.83276544  1
  H+  H371  1  0.19679267  0.20531546  0.46232253  1
  H+  H372  1  0.92092719  0.59659311  0.60109524  1
  H+  H373  1  0.41806426  0.06976518  0.57759077  1
  H+  H374  1  0.58546295  0.41976534  0.74193251  1
  H+  H375  1  0.17580454  0.07311651  0.90766515  1
  H+  H376  1  0.42181803  0.84162166  0.58255003  1
  H+  H377  1  0.32291565  0.87333867  0.43700865  1
  H+  H378  1  0.08749989  0.41886525  0.76206699  1
  H+  H379  1  0.22727401  0.85468110  0.16651525  1
  H+  H380  1  0.63785218  0.69383814  0.43680056  1
  H+  H381  1  0.39768650  0.10525694  0.17611363  1
  H+  H382  1  0.90650020  0.32023190  0.61615022  1
  H+  H383  1  0.63670778  0.27686036  0.85266305  1
  O2-  O384  1  0.08756877  0.16026934  0.13849406  1
  O2-  O385  1  0.13531458  0.19053845  0.46823696  1
  O2-  O386  1  0.05590753  0.16176063  0.80983210  1
  O2-  O387  1  0.08758063  0.42338883  0.14357506  1
  O2-  O388  1  0.06743958  0.41551309  0.50710980  1
  O2-  O389  1  0.10304222  0.42793871  0.80634328  1
  O2-  O390  1  0.05831809  0.62842129  0.12932633  1
  O2-  O391  1  0.07664469  0.66221515  0.47397381  1
  O2-  O392  1  0.06717445  0.67156288  0.81584129  1
  O2-  O393  1  0.07654313  0.91018224  0.14408093  1
  O2-  O394  1  0.06934949  0.90644722  0.47846447  1
  O2-  O395  1  0.06250529  0.90346409  0.82833604  1
  O2-  O396  1  0.34705783  0.16929290  0.15067489  1
  O2-  O397  1  0.28555805  0.19153191  0.47002784  1
  O2-  O398  1  0.34141185  0.16197366  0.80387112  1
  O2-  O399  1  0.32605819  0.40153463  0.13543760  1
  O2-  O400  1  0.33167367  0.42667866  0.47437954  1
  O2-  O401  1  0.33123354  0.40138500  0.81868369  1
  O2-  O402  1  0.32491565  0.65273916  0.14301619  1
  O2-  O403  1  0.32042137  0.66504371  0.53725372  1
  O2-  O404  1  0.26374224  0.57535495  0.80924546  1
  O2-  O405  1  0.32259341  0.90372595  0.13850938  1
  O2-  O406  1  0.33130357  0.87963132  0.48141618  1
  O2-  O407  1  0.32674965  0.91891290  0.81408890  1
  O2-  O408  1  0.59541162  0.16492413  0.16035077  1
  O2-  O409  1  0.69676056  0.21242205  0.45474300  1
  O2-  O410  1  0.58869660  0.17559358  0.83573057  1
  O2-  O411  1  0.57442606  0.41627700  0.14462559  1
  O2-  O412  1  0.57841366  0.40943088  0.47257518  1
  O2-  O413  1  0.57946723  0.41128273  0.82188328  1
  O2-  O414  1  0.57588884  0.64836098  0.14455735  1
  O2-  O415  1  0.62513164  0.68541571  0.48128719  1
  O2-  O416  1  0.55506322  0.65350029  0.79103783  1
  O2-  O417  1  0.57876416  0.86663881  0.13574324  1
  O2-  O418  1  0.58422548  0.91064433  0.48812828  1
  O2-  O419  1  0.60722472  0.89564669  0.79182394  1
  O2-  O420  1  0.85295930  0.17377479  0.13692426  1
  O2-  O421  1  0.85201331  0.18351741  0.47938610  1
  O2-  O422  1  0.83763149  0.16751145  0.81528118  1
  O2-  O423  1  0.82545136  0.41674141  0.14112838  1
  O2-  O424  1  0.82369303  0.39691462  0.48739588  1
  O2-  O425  1  0.82335445  0.42565735  0.81834949  1
  O2-  O426  1  0.79680784  0.60345080  0.11107802  1
  O2-  O427  1  0.83854474  0.66528127  0.47392165  1
  O2-  O428  1  0.85634320  0.65065321  0.82050861  1
  O2-  O429  1  0.82386903  0.89851062  0.14932956  1
  O2-  O430  1  0.84171666  0.92929646  0.48001607  1
  O2-  O431  1  0.83528869  0.90059941  0.81677929  1
  O2-  O432  1  0.17510362  0.08260210  0.18017469  1
  O2-  O433  1  0.14259215  0.06663720  0.52785998  1
  O2-  O434  1  0.16845331  0.06515148  0.86237228  1
  O2-  O435  1  0.16180838  0.33083962  0.17730506  1
  O2-  O436  1  0.17221404  0.33662612  0.52785865  1
  O2-  O437  1  0.16683817  0.32852600  0.85305806  1
  O2-  O438  1  0.15751798  0.57999607  0.19158927  1
  O2-  O439  1  0.14561486  0.57816985  0.51850325  1
  O2-  O440  1  0.13444289  0.58834049  0.86841480  1
  O2-  O441  1  0.16736722  0.82474556  0.18520211  1
  O2-  O442  1  0.14031392  0.81106203  0.52069055  1
  O2-  O443  1  0.16804338  0.83345325  0.85517596  1
  O2-  O444  1  0.42571588  0.07284703  0.19020163  1
  O2-  O445  1  0.34353467  0.03892056  0.47309829  1
  O2-  O446  1  0.41529310  0.07867094  0.85981782  1
  O2-  O447  1  0.41342674  0.32882339  0.18253000  1
  O2-  O448  1  0.41348084  0.33870064  0.51645974  1
  O2-  O449  1  0.41669601  0.32600503  0.85863380  1
  O2-  O450  1  0.40252426  0.56985104  0.17149739  1
  O2-  O451  1  0.40281407  0.57588269  0.54249512  1
  O2-  O452  1  0.40663658  0.56699771  0.85617300  1
  O2-  O453  1  0.41661963  0.81167658  0.15098769  1
  O2-  O454  1  0.42442541  0.83256139  0.53842617  1
  O2-  O455  1  0.46927838  0.92054534  0.77538460  1
  O2-  O456  1  0.73393386  0.15994500  0.21732750  1
  O2-  O457  1  0.68222188  0.07801946  0.52299352  1
  O2-  O458  1  0.67050914  0.08529223  0.86250882  1
  O2-  O459  1  0.66393785  0.33969189  0.18565996  1
  O2-  O460  1  0.68320650  0.37292351  0.53303606  1
  O2-  O461  1  0.66443482  0.33956814  0.86415371  1
  O2-  O462  1  0.64522992  0.56711956  0.18786195  1
  O2-  O463  1  0.67344063  0.56481313  0.51413156  1
  O2-  O464  1  0.69702803  0.57773218  0.86601043  1
  O2-  O465  1  0.66802231  0.80529585  0.19297910  1
  O2-  O466  1  0.69091593  0.85231465  0.52745806  1
  O2-  O467  1  0.66507980  0.80312808  0.84322151  1
  O2-  O468  1  0.92508004  0.08796988  0.18727142  1
  O2-  O469  1  0.91554677  0.08721027  0.51200712  1
  O2-  O470  1  0.90041287  0.06806061  0.85390260  1
  O2-  O471  1  0.91912541  0.34255005  0.17434932  1
  O2-  O472  1  0.90477955  0.33024660  0.52922157  1
  O2-  O473  1  0.92231536  0.34164520  0.85356429  1
  O2-  O474  1  0.90924582  0.58814321  0.16435343  1
  O2-  O475  1  0.91578602  0.58545800  0.51953023  1
  O2-  O476  1  0.90165920  0.60589820  0.83920590  1
  O2-  O477  1  0.91357079  0.82625203  0.18408659  1
  O2-  O478  1  0.90718857  0.82581009  0.52005586  1
  O2-  O479  1  0.90908236  0.80717585  0.86646263  1
  O2-  O480  1  0.15753937  0.07625090  0.30658127  1
  O2-  O481  1  0.14615031  0.07413702  0.64640461  1
  O2-  O482  1  0.18283373  0.08642880  0.98216891  1
  O2-  O483  1  0.16362863  0.32809712  0.30198307  1
  O2-  O484  1  0.16003724  0.33158757  0.65258321  1
  O2-  O485  1  0.16526627  0.33570385  0.97565435  1
  O2-  O486  1  0.17285170  0.58868987  0.30771035  1
  O2-  O487  1  0.15865966  0.57882224  0.64340198  1
  O2-  O488  1  0.16833676  0.59534709  0.98844914  1
  O2-  O489  1  0.15836095  0.82870766  0.30792812  1
  O2-  O490  1  0.15375839  0.82504007  0.64397769  1
  O2-  O491  1  0.14492134  0.84319740  0.97959827  1
  O2-  O492  1  0.38623541  0.06728556  0.34910455  1
  O2-  O493  1  0.42579114  0.08519882  0.69897655  1
  O2-  O494  1  0.40915025  0.07695690  0.97954668  1
  O2-  O495  1  0.41291535  0.33183448  0.30914721  1
  O2-  O496  1  0.38688831  0.32675855  0.63365880  1
  O2-  O497  1  0.42207311  0.34095322  0.97263586  1
  O2-  O498  1  0.39363602  0.56834241  0.28670454  1
  O2-  O499  1  0.41803543  0.58521716  0.67133581  1
  O2-  O500  1  0.41929990  0.57929813  0.98063064  1
  O2-  O501  1  0.42795785  0.83472300  0.32067832  1
  O2-  O502  1  0.40089316  0.82815364  0.66817864  1
  O2-  O503  1  0.42731842  0.83255882  1.02688218  1
  O2-  O504  1  0.66012706  0.09047708  0.36623859  1
  O2-  O505  1  0.67696668  0.06066130  0.64795849  1
  O2-  O506  1  0.69862180  0.08031401  0.98119087  1
  O2-  O507  1  0.65644666  0.33097907  0.30350656  1
  O2-  O508  1  0.65608986  0.33562869  0.66157088  1
  O2-  O509  1  0.66088859  0.33499235  0.98627183  1
  O2-  O510  1  0.66982924  0.58045702  0.30525351  1
  O2-  O511  1  0.66337850  0.60131293  0.69822283  1
  O2-  O512  1  0.67034797  0.57215555  0.98796041  1
  O2-  O513  1  0.67453188  0.83886212  0.31252044  1
  O2-  O514  1  0.65789526  0.79084845  0.68911116  1
  O2-  O515  1  0.66539795  0.82093652  0.96551499  1
  O2-  O516  1  0.90858442  0.09437573  0.35106530  1
  O2-  O517  1  0.90240296  0.07721000  0.64526304  1
  O2-  O518  1  0.92311015  0.07404858  0.97578610  1
  O2-  O519  1  0.91367711  0.34283724  0.30056228  1
  O2-  O520  1  0.90780832  0.33305049  0.65947449  1
  O2-  O521  1  0.92619961  0.33652428  0.97783270  1
  O2-  O522  1  0.92506774  0.60712084  0.29106489  1
  O2-  O523  1  0.92001086  0.59062698  0.64594668  1
  O2-  O524  1  0.91294327  0.57692827  0.98710183  1
  O2-  O525  1  0.91620456  0.84172160  0.31482358  1
  O2-  O526  1  0.91079630  0.82409561  0.64606600  1
  O2-  O527  1  0.93928299  0.89192893  0.97550756  1
  O2-  O528  1  0.08594682  0.16411696  0.01735232  1
  O2-  O529  1  0.08372153  0.16969514  0.34931038  1
  O2-  O530  1  0.06980911  0.16021509  0.68399714  1
  O2-  O531  1  0.08824931  0.42417544  0.02129353  1
  O2-  O532  1  0.08890727  0.41567564  0.32801443  1
  O2-  O533  1  0.07738075  0.41684612  0.68512401  1
  O2-  O534  1  0.09328418  0.68758510  0.01322008  1
  O2-  O535  1  0.07669837  0.66430723  0.35165126  1
  O2-  O536  1  0.07843072  0.66436407  0.69312400  1
  O2-  O537  1  0.07842468  0.85106684  -0.00190167  1
  O2-  O538  1  0.08092288  0.91590172  0.35434214  1
  O2-  O539  1  0.07950358  0.91923315  0.67776040  1
  O2-  O540  1  0.33872461  0.15730960  0.03436382  1
  O2-  O541  1  0.31715047  0.16961170  0.35393430  1
  O2-  O542  1  0.30090785  0.16051247  0.68369261  1
  O2-  O543  1  0.33697777  0.41172037  0.01288802  1
  O2-  O544  1  0.32367812  0.41255772  0.35041613  1
  O2-  O545  1  0.32101111  0.41383524  0.69655237  1
  O2-  O546  1  0.33497495  0.66125692  0.02040115  1
  O2-  O547  1  0.33135929  0.67070654  0.29701874  1
  O2-  O548  1  0.31531753  0.65461632  0.69636041  1
  O2-  O549  1  0.32928784  0.91227817  0.02148389  1
  O2-  O550  1  0.31503512  0.89641639  0.35553633  1
  O2-  O551  1  0.31159217  0.90694842  0.69520134  1
  O2-  O552  1  0.56507105  0.16232392  0.03086836  1
  O2-  O553  1  0.56626625  0.16407663  0.33481918  1
  O2-  O554  1  0.60961007  0.18353505  0.71786960  1
  O2-  O555  1  0.57257546  0.40711453  0.02186413  1
  O2-  O556  1  0.58047101  0.41896317  0.34925458  1
  O2-  O557  1  0.59243662  0.42598166  0.69707331  1
  O2-  O558  1  0.58560788  0.65504590  0.02485864  1
  O2-  O559  1  0.62423157  0.69001006  0.35869919  1
  O2-  O560  1  0.60424352  0.71164330  0.65489351  1
  O2-  O561  1  0.59724609  0.90523800  0.01228859  1
  O2-  O562  1  0.58320345  0.91047837  0.36737605  1
  O2-  O563  1  0.60854489  0.90031207  0.66336332  1
  O2-  O564  1  0.85611886  0.17166523  0.01297417  1
  O2-  O565  1  0.81805291  0.17096252  0.31735871  1
  O2-  O566  1  0.83403906  0.16457248  0.69592519  1
  O2-  O567  1  0.83162910  0.40991923  0.01694816  1
  O2-  O568  1  0.83570317  0.43312881  0.32533976  1
  O2-  O569  1  0.82789625  0.41672621  0.63843461  1
  O2-  O570  1  0.82569675  0.64704195  0.05224543  1
  O2-  O571  1  0.83840656  0.67233685  0.35008608  1
  O2-  O572  1  0.83969562  0.66667731  0.69612614  1
  O2-  O573  1  0.84208759  0.90785418  0.02308573  1
  O2-  O574  1  0.83389857  0.91743801  0.35594331  1
  O2-  O575  1  0.83518612  0.90966697  0.68939154  1
