# generated using pymatgen
data_H2O
_symmetry_space_group_name_H-M   'P 1'
_cell_length_a   17.99437755
_cell_length_b   17.99324852
_cell_length_c   22.00863507
_cell_angle_alpha   90.00804241
_cell_angle_beta   90.00707511
_cell_angle_gamma   120.00559989
_symmetry_Int_Tables_number   1
_chemical_formula_structural   H2O
_chemical_formula_sum   'H384 O192'
_cell_volume   6170.85900627
_cell_formula_units_Z   192
loop_
 _symmetry_equiv_pos_site_id
 _symmetry_equiv_pos_as_xyz
  1  'x, y, z'
loop_
 _atom_type_symbol
 _atom_type_oxidation_number
  H+  1.0
  O2-  -2.0
loop_
 _atom_site_type_symbol
 _atom_site_label
 _atom_site_symmetry_multiplicity
 _atom_site_fract_x
 _atom_site_fract_y
 _atom_site_fract_z
 _atom_site_occupancy
  H+  H0  1  0.11239179  -0.02033702  0.34167807  1
  H+  H1  1  0.30750613  0.95355467  -0.01209311  1
  H+  H2  1  0.46642218  0.60549735  0.66723843  1
  H+  H3  1  0.90516831  0.74495272  0.15606526  1
  H+  H4  1  0.12080533  0.28442128  0.85470247  1
  H+  H5  1  0.72615908  0.37155478  0.33047656  1
  H+  H6  1  0.13738280  0.77890156  0.33043942  1
  H+  H7  1  0.90083128  0.61457460  0.16578197  1
  H+  H8  1  0.58854495  0.20203367  0.67454081  1
  H+  H9  1  0.48119149  0.68444895  0.13317595  1
  H+  H10  1  0.12519747  0.37368076  0.48395109  1
  H+  H11  1  0.14116642  0.30561661  0.74624928  1
  H+  H12  1  0.89051153  0.76151470  0.50364680  1
  H+  H13  1  0.89257021  0.28993743  0.16897675  1
  H+  H14  1  0.11592185  0.89210534  0.34252527  1
  H+  H15  1  0.37702088  0.84517855  0.15915944  1
  H+  H16  1  0.12550420  0.11137173  0.32248501  1
  H+  H17  1  0.88667643  0.22016472  0.66931886  1
  H+  H18  1  0.86069287  0.23853909  0.82745626  1
  H+  H19  1  0.38680440  0.51499103  0.33242872  1
  H+  H20  1  0.20098977  0.58886281  0.33102837  1
  H+  H21  1  0.11756855  0.89570009  0.15682323  1
  H+  H22  1  0.21446272  0.10429109  0.66926237  1
  H+  H23  1  0.22651196  0.86635726  0.32416600  1
  H+  H24  1  0.56554406  -0.01073567  1.01216905  1
  H+  H25  1  0.39456666  0.27118164  0.17265635  1
  H+  H26  1  0.44561234  0.10156629  0.51906748  1
  H+  H27  1  0.87125865  0.73867544  -0.00621167  1
  H+  H28  1  0.13145885  0.35689815  0.32193345  1
  H+  H29  1  0.58669406  0.17151704  0.77818925  1
  H+  H30  1  0.44869777  0.11000189  0.36547872  1
  H+  H31  1  0.72422765  0.11566898  0.49418298  1
  H+  H32  1  0.77416029  0.39285788  0.16709607  1
  H+  H33  1  0.81625735  0.92107326  -0.00049795  1
  H+  H34  1  0.93126548  0.17256198  0.47638331  1
  H+  H35  1  0.86067090  -0.03338628  0.33721940  1
  H+  H36  1  0.40164354  0.02573579  0.15224819  1
  H+  H37  1  0.12075482  0.39565970  0.69580140  1
  H+  H38  1  0.36425048  0.10456778  0.99346950  1
  H+  H39  1  0.74569017  0.14049097  0.83749600  1
  H+  H40  1  0.15974678  0.57604974  0.26466285  1
  H+  H41  1  0.53156625  0.39069133  0.16182337  1
  H+  H42  1  0.92254435  0.58450955  0.26969828  1
  H+  H43  1  0.40738838  0.54016402  0.99231544  1
  H+  H44  1  0.18647451  0.57825917  0.83960295  1
  H+  H45  1  0.34916783  0.22348672  0.68573854  1
  H+  H46  1  0.87437377  0.63909600  0.49204158  1
  H+  H47  1  0.14802602  0.87423112  0.67010057  1
  H+  H48  1  0.61022543  0.70981695  0.67364014  1
  H+  H49  1  0.59046488  0.17077516  0.54278604  1
  H+  H50  1  0.33151645  0.91521981  0.08090640  1
  H+  H51  1  0.61700368  0.23948513  0.83450498  1
  H+  H52  1  0.36129533  0.63858800  0.67508781  1
  H+  H53  1  0.17251533  0.84300513  0.60821849  1
  H+  H54  1  0.63321780  0.36455379  0.33046185  1
  H+  H55  1  0.02350953  0.64280658  0.34568620  1
  H+  H56  1  0.42986610  0.94913793  0.08285939  1
  H+  H57  1  0.62063171  0.64339363  0.32627582  1
  H+  H58  1  0.02473913  0.40200314  0.15889845  1
  H+  H59  1  0.39392819  0.50021370  0.51340002  1
  H+  H60  1  0.38855776  0.77860177  0.65308887  1
  H+  H61  1  0.68786189  0.63454795  0.15081648  1
  H+  H62  1  0.53760055  0.14248750  0.16000882  1
  H+  H63  1  0.14296476  0.52789175  0.16979697  1
  H+  H64  1  0.40860201  0.87083394  0.83386005  1
  H+  H65  1  0.35253511  0.22501653  0.33547706  1
  H+  H66  1  0.30083906  0.66111448  0.83744398  1
  H+  H67  1  0.13248919  0.37292354  0.16827924  1
  H+  H68  1  0.37263537  0.98630914  0.48729420  1
  H+  H69  1  0.39385794  0.60807693  0.32853081  1
  H+  H70  1  0.32935467  0.12620914  0.49272179  1
  H+  H71  1  0.88197905  0.73843877  0.33457379  1
  H+  H72  1  0.92149413  0.83819897  0.74559303  1
  H+  H73  1  0.71893991  0.35464643  0.50486533  1
  H+  H74  1  0.10177708  0.46109195  0.33304232  1
  H+  H75  1  0.55804025  0.07222042  0.53646842  1
  H+  H76  1  0.86367956  0.22374061  0.00284758  1
  H+  H77  1  0.50223123  0.85859556  0.47169822  1
  H+  H78  1  0.89895311  0.50959573  0.70110333  1
  H+  H79  1  0.39254774  0.61431135  0.83862800  1
  H+  H80  1  0.21607698  0.11453514  0.32594707  1
  H+  H81  1  0.73249539  0.15232100  0.51514177  1
  H+  H82  1  0.92934019  0.83541596  0.22990267  1
  H+  H83  1  0.51506634  0.36831952  0.00489084  1
  H+  H84  1  0.35454161  0.37760232  0.33562654  1
  H+  H85  1  0.23375807  0.61490239  0.17305331  1
  H+  H86  1  0.97863133  0.60885207  0.51412044  1
  H+  H87  1  0.95201343  0.02599932  1.00571213  1
  H+  H88  1  0.91683441  0.34587674  0.23168742  1
  H+  H89  1  0.37530878  0.35725220  0.66908987  1
  H+  H90  1  0.51049835  0.37882673  0.67363093  1
  H+  H91  1  0.15169272  0.86585215  0.85734570  1
  H+  H92  1  0.11633596  0.48220425  0.68233088  1
  H+  H93  1  0.11466546  0.23174320  0.16271644  1
  H+  H94  1  0.62308770  0.63710201  0.83511711  1
  H+  H95  1  0.37116839  0.98736689  0.66412624  1
  H+  H96  1  0.67737859  0.03372121  0.16423010  1
  H+  H97  1  0.36502189  0.61849724  0.47935420  1
  H+  H98  1  0.80398375  0.91861792  0.82595221  1
  H+  H99  1  0.98463563  0.63901880  0.66896145  1
  H+  H100  1  0.59878873  0.21820422  0.00154534  1
  H+  H101  1  0.11096145  0.63435060  0.84156988  1
  H+  H102  1  0.35036544  0.13529258  0.33803805  1
  H+  H103  1  0.60468241  0.46094025  0.66638602  1
  H+  H104  1  0.51913697  0.10989698  0.69238215  1
  H+  H105  1  0.37065985  0.38141753  -0.00860041  1
  H+  H106  1  0.37679126  0.51865124  0.67086499  1
  H+  H107  1  0.34709092  0.92382949  0.38865746  1
  H+  H108  1  0.25451634  0.13728625  0.01021432  1
  H+  H109  1  0.10931740  0.46402108  0.00351160  1
  H+  H110  1  0.53730431  0.89611352  0.32248968  1
  H+  H111  1  0.92520980  0.06344851  0.83283112  1
  H+  H112  1  0.67345863  0.54765573  0.29930037  1
  H+  H113  1  0.99210689  0.12713541  0.17632842  1
  H+  H114  1  0.21375571  0.59602235  0.99013246  1
  H+  H115  1  0.90519386  0.87657036  0.99069891  1
  H+  H116  1  0.13658792  0.78215641  0.51659156  1
  H+  H117  1  0.10447679  1.03568871  0.49492436  1
  H+  H118  1  0.83272712  0.17425479  0.76792523  1
  H+  H119  1  0.81664702  0.02554577  0.28554665  1
  H+  H120  1  0.53011224  0.61688324  0.49393808  1
  H+  H121  1  0.26804514  0.38010107  0.69526911  1
  H+  H122  1  0.62878057  0.59071437  0.50406509  1
  H+  H123  1  0.62932689  -0.01717229  0.32689141  1
  H+  H124  1  0.37838324  0.75619718  0.16804386  1
  H+  H125  1  0.39269456  0.35705940  0.16654772  1
  H+  H126  1  0.61174740  -0.02611751  0.68586551  1
  H+  H127  1  0.63189769  0.48670502  0.82110445  1
  H+  H128  1  0.38761107  0.86706129  0.64779534  1
  H+  H129  1  0.34051061  0.83814721  0.97945299  1
  H+  H130  1  0.63560133  0.76681971  0.33121322  1
  H+  H131  1  0.12653635  0.37363474  0.85840317  1
  H+  H132  1  0.10308291  0.25468709  0.47691749  1
  H+  H133  1  0.76742016  0.85717710  0.15691742  1
  H+  H134  1  0.38808682  0.02481316  0.33008351  1
  H+  H135  1  0.40753496  0.78990946  0.32085322  1
  H+  H136  1  0.36103164  0.62762670  0.51222687  1
  H+  H137  1  0.67599482  0.80130219  0.82582038  1
  H+  H138  1  0.11581244  0.63643809  0.15881699  1
  H+  H139  1  0.58055782  0.96395899  0.52132005  1
  H+  H140  1  0.56119026  0.39868558  0.41308341  1
  H+  H141  1  0.58951268  0.91427272  0.77513132  1
  H+  H142  1  0.13016265  0.26837637  0.68324614  1
  H+  H143  1  0.58915266  0.69369600  0.86709932  1
  H+  H144  1  1.02284222  0.88859217  0.49847657  1
  H+  H145  1  0.88441326  0.28052233  0.31953213  1
  H+  H146  1  0.74205178  0.36940539  0.71625680  1
  H+  H147  1  0.19884625  0.31822587  0.01161026  1
  H+  H148  1  0.90603066  0.79162062  0.83807000  1
  H+  H149  1  0.22716829  0.62208649  0.66638027  1
  H+  H150  1  -0.01388042  0.86991819  0.32752301  1
  H+  H151  1  0.91296449  0.29850731  0.49871267  1
  H+  H152  1  0.10477706  0.37201201  0.01925265  1
  H+  H153  1  0.54284941  0.88635053  0.83849482  1
  H+  H154  1  0.27229750  0.30789224  0.11474071  1
  H+  H155  1  0.89225469  0.62042431  0.32549211  1
  H+  H156  1  0.86573223  0.14158311  0.32537388  1
  H+  H157  1  0.41626485  0.83303218  0.89874041  1
  H+  H158  1  -0.02698828  0.36649604  0.32406389  1
  H+  H159  1  0.71542700  0.60402965  0.66259244  1
  H+  H160  1  0.34813660  0.24610104  0.84835599  1
  H+  H161  1  0.67614427  0.82493356  0.98599004  1
  H+  H162  1  0.34681146  0.71646411  1.00771987  1
  H+  H163  1  0.63944480  0.37026154  0.83835267  1
  H+  H164  1  0.53507170  0.13899661  0.29531745  1
  H+  H165  1  0.50751406  0.87573246  0.16308318  1
  H+  H166  1  0.18428457  0.84104733  -0.06411931  1
  H+  H167  1  0.86211119  0.48179089  0.34417416  1
  H+  H168  1  -0.01726118  0.63374136  0.85009296  1
  H+  H169  1  0.11400963  0.23736102  1.03029923  1
  H+  H170  1  0.36453157  0.13707731  0.15582816  1
  H+  H171  1  0.85988423  0.46901143  0.01032584  1
  H+  H172  1  0.36170102  0.26104062  0.50906609  1
  H+  H173  1  0.65026945  0.11823781  0.30148627  1
  H+  H174  1  0.37053878  0.89380898  0.32731424  1
  H+  H175  1  0.33885932  0.36797750  0.49257275  1
  H+  H176  1  0.87105369  0.87437571  0.48954870  1
  H+  H177  1  0.14067526  0.51576976  0.50242660  1
  H+  H178  1  0.43515080  0.86284942  0.99675478  1
  H+  H179  1  0.23610847  0.57545119  0.53388601  1
  H+  H180  1  0.28234634  0.89856749  0.66911841  1
  H+  H181  1  0.27604489  0.13902079  0.16321755  1
  H+  H182  1  0.93675887  0.85328079  0.89502522  1
  H+  H183  1  0.73492322  0.86090326  0.33675188  1
  H+  H184  1  0.14283569  0.77068988  0.86015826  1
  H+  H185  1  0.45249626  0.34818061  0.51089394  1
  H+  H186  1  0.89329994  0.86287816  0.32389706  1
  H+  H187  1  0.21851225  0.36809133  0.16408661  1
  H+  H188  1  0.87520518  0.65502535  0.83354069  1
  H+  H189  1  0.86613141  0.87987557  0.14907180  1
  H+  H190  1  0.12444072  0.10032552  0.66859682  1
  H+  H191  1  0.67488788  0.59883793  0.89734244  1
  H+  H192  1  0.13145393  0.90219722  0.00704458  1
  H+  H193  1  0.64825298  0.65146569  -0.01743729  1
  H+  H194  1  0.34064935  0.65330890  0.09569161  1
  H+  H195  1  0.23810644  0.64494463  0.45652066  1
  H+  H196  1  0.90737069  0.13711721  0.17175074  1
  H+  H197  1  0.10897801  0.63938154  0.34296696  1
  H+  H198  1  0.77590273  0.40090012  0.84544880  1
  H+  H199  1  0.71615204  0.35042630  -0.00789096  1
  H+  H200  1  0.88412078  0.35509455  0.99493548  1
  H+  H201  1  0.98965208  0.39220619  0.50231068  1
  H+  H202  1  0.37636673  0.12384203  0.66760212  1
  H+  H203  1  0.19198008  0.12365613  0.49285987  1
  H+  H204  1  0.88720986  0.60913175  1.00329532  1
  H+  H205  1  0.85852887  0.64204413  0.67729634  1
  H+  H206  1  0.96704684  0.36284005  0.84129722  1
  H+  H207  1  0.85012368  0.37554246  0.64804411  1
  H+  H208  1  0.12175572  0.64294101  0.50114815  1
  H+  H209  1  0.47290784  0.59947674  0.83943901  1
  H+  H210  1  0.72900818  0.63759815  -0.01451665  1
  H+  H211  1  0.34867747  0.60702997  0.15968356  1
  H+  H212  1  0.10228930  0.22731845  0.32446329  1
  H+  H213  1  0.62060324  0.22878588  0.29950463  1
  H+  H214  1  0.13816736  0.87102971  0.51575275  1
  H+  H215  1  0.54434468  0.65026469  0.14982100  1
  H+  H216  1  0.08615695  0.47543144  0.84000939  1
  H+  H217  1  0.59082150  0.37029991  0.49715442  1
  H+  H218  1  0.21036868  0.36376823  0.48919404  1
  H+  H219  1  0.26654097  0.37971925  0.33402202  1
  H+  H220  1  0.79576139  0.15653303  0.15680375  1
  H+  H221  1  0.38347856  0.85975997  0.49626041  1
  H+  H222  1  0.58480851  0.46497689  0.36001594  1
  H+  H223  1  0.62287727  0.39674599  0.16065441  1
  H+  H224  1  -0.00958727  0.87346167  0.17084719  1
  H+  H225  1  0.81743527  0.03121727  0.52946339  1
  H+  H226  1  0.85768144  0.13208946  0.00511373  1
  H+  H227  1  0.36727861  0.49551173  0.18071441  1
  H+  H228  1  0.71709711  0.11096283  0.99517850  1
  H+  H229  1  0.85565918  0.72775105  0.68686733  1
  H+  H230  1  0.12796366  0.77492875  0.17064006  1
  H+  H231  1  0.63312793  0.27608973  0.47901931  1
  H+  H232  1  0.97370982  0.35467813  0.99582917  1
  H+  H233  1  0.62313733  0.59600703  0.66370949  1
  H+  H234  1  0.73916054  0.62995889  0.83967828  1
  H+  H235  1  0.09277200  0.68011733  0.78356739  1
  H+  H236  1  -0.02471787  0.60965740  0.00966500  1
  H+  H237  1  0.44936953  0.09758885  0.99644571  1
  H+  H238  1  0.11934294  0.14465213  0.16293938  1
  H+  H239  1  0.86029092  0.38895776  0.49887791  1
  H+  H240  1  0.52015766  0.88941087  0.67989433  1
  H+  H241  1  0.64362183  0.75810719  0.50735772  1
  H+  H242  1  0.34229557  0.10991127  0.83605020  1
  H+  H243  1  0.65823344  0.88066364  0.83331860  1
  H+  H244  1  0.40101403  0.31601631  0.93123659  1
  H+  H245  1  0.41960509  0.83809910  0.25869738  1
  H+  H246  1  0.81899236  0.33745288  0.62912290  1
  H+  H247  1  1.01236792  0.13816549  0.32409062  1
  H+  H248  1  0.90998507  0.32531935  0.90163017  1
  H+  H249  1  0.39003716  0.74535926  0.83029755  1
  H+  H250  1  0.90813358  0.14094139  0.83522200  1
  H+  H251  1  0.31433826  0.66889550  0.29919955  1
  H+  H252  1  0.87220587  0.89243823  0.68509034  1
  H+  H253  1  0.86570311  0.96127166  0.49216156  1
  H+  H254  1  0.72780841  0.83947212  0.66433117  1
  H+  H255  1  0.59170025  0.46085288  0.50052214  1
  H+  H256  1  0.64587963  0.14051366  0.84356737  1
  H+  H257  1  0.55578707  0.97350608  0.16726661  1
  H+  H258  1  0.98953023  0.86869020  0.98811663  1
  H+  H259  1  0.11369347  0.64952526  0.68291183  1
  H+  H260  1  0.38329812  0.97731798  0.82185214  1
  H+  H261  1  0.11793810  0.97991929  0.68354470  1
  H+  H262  1  0.73934815  0.12233983  0.32124457  1
  H+  H263  1  0.37342181  0.26509769  0.99484452  1
  H+  H264  1  0.12294941  0.74241668  0.68306474  1
  H+  H265  1  0.46617679  0.35424768  0.32902315  1
  H+  H266  1  0.52709895  0.63413347  0.33097661  1
  H+  H267  1  0.69906531  0.33716900  0.70330087  1
  H+  H268  1  0.47624180  0.11756964  0.84726289  1
  H+  H269  1  0.78787334  0.14110237  0.67440920  1
  H+  H270  1  0.00175097  0.34639110  0.65502322  1
  H+  H271  1  0.57639315  0.31961550  0.64709463  1
  H+  H272  1  0.86825583  0.39254182  0.16607733  1
  H+  H273  1  0.86000213  0.39237320  0.34222036  1
  H+  H274  1  0.63191508  0.11933485  -0.00958846  1
  H+  H275  1  0.98265609  0.60217418  0.16768969  1
  H+  H276  1  0.32024898  0.73585460  0.45910560  1
  H+  H277  1  0.11826944  0.63468585  1.00388720  1
  H+  H278  1  0.53740713  0.67547971  -0.00996482  1
  H+  H279  1  0.64572917  0.11136433  0.67028903  1
  H+  H280  1  0.64114955  0.86710822  0.33118105  1
  H+  H281  1  0.88687154  0.10632896  0.66221427  1
  H+  H282  1  0.05738953  0.90862917  0.83579686  1
  H+  H283  1  0.87439242  0.49542564  0.16534289  1
  H+  H284  1  0.35224777  0.33686932  0.84819397  1
  H+  H285  1  0.73258013  0.84432403  0.50728401  1
  H+  H286  1  0.01649664  0.12777603  0.66770415  1
  H+  H287  1  0.34658012  0.46395602  0.83898940  1
  H+  H288  1  0.86219228  0.18407101  0.38819742  1
  H+  H289  1  0.41589001  0.33095910  0.26469937  1
  H+  H290  1  0.84198994  0.93171708  0.73557442  1
  H+  H291  1  0.06690625  0.16219761  0.73070376  1
  H+  H292  1  0.42692747  0.55873318  0.57315745  1
  H+  H293  1  0.32055357  0.16406814  0.06652356  1
  H+  H294  1  0.67659905  0.60760002  0.24715834  1
  H+  H295  1  0.39595122  0.81096726  0.55199325  1
  H+  H296  1  0.53220410  -0.05179936  0.58409446  1
  H+  H297  1  0.59619638  0.42107864  0.76490306  1
  H+  H298  1  0.64846334  0.28003196  0.17356903  1
  H+  H299  1  0.82734964  0.41840576  0.44120424  1
  H+  H300  1  0.44960736  0.98360763  0.45690945  1
  H+  H301  1  0.57382203  0.65621833  0.73514014  1
  H+  H302  1  0.31410958  0.15560898  0.74236578  1
  H+  H303  1  0.69130559  0.08624089  0.22553050  1
  H+  H304  1  0.62704710  0.14430724  0.15722671  1
  H+  H305  1  0.30621911  0.41324623  -0.03137982  1
  H+  H306  1  0.16508056  0.58753168  0.60914857  1
  H+  H307  1  0.31773444  0.68060634  0.37364692  1
  H+  H308  1  0.14979635  0.56842329  0.92984450  1
  H+  H309  1  0.85216526  0.18519647  0.09718634  1
  H+  H310  1  0.11567599  0.98350924  0.00487290  1
  H+  H311  1  0.94809052  0.71427925  0.10715864  1
  H+  H312  1  0.67725695  0.10269055  0.90289463  1
  H+  H313  1  0.85269894  0.92145276  0.06679571  1
  H+  H314  1  0.40838125  0.07560317  0.90194180  1
  H+  H315  1  0.46542118  0.16214678  0.63358688  1
  H+  H316  1  0.41986356  0.58933993  0.93021157  1
  H+  H317  1  0.06470470  0.18123562  0.41653655  1
  H+  H318  1  0.65522753  0.06040157  0.61466558  1
  H+  H319  1  0.08516133  0.66204439  0.09770688  1
  H+  H320  1  0.39590581  0.32203764  0.60770698  1
  H+  H321  1  0.57381957  0.91274168  0.42137420  1
  H+  H322  1  0.88469204  0.01554077  0.66114120  1
  H+  H323  1  0.99353424  0.87006426  0.69650715  1
  H+  H324  1  0.58260083  0.65421255  0.43111050  1
  H+  H325  1  0.08237585  0.92139990  0.43961425  1
  H+  H326  1  0.36138731  0.63578240  0.00295552  1
  H+  H327  1  0.31137729  0.16272568  0.43176561  1
  H+  H328  1  0.58028401  0.17598923  0.40872219  1
  H+  H329  1  0.57717736  0.40390734  0.06275825  1
  H+  H330  1  0.07963353  0.41044203  0.39548668  1
  H+  H331  1  0.34101593  0.67803281  0.73327891  1
  H+  H332  1  0.09006627  0.92792242  0.09705222  1
  H+  H333  1  0.37651896  0.07413431  0.56857669  1
  H+  H334  1  0.58678895  0.70916272  0.05016475  1
  H+  H335  1  0.09072193  0.14756000  0.47929047  1
  H+  H336  1  0.67464586  0.80567137  0.60227019  1
  H+  H337  1  0.79086361  0.65442501  0.33002159  1
  H+  H338  1  0.82561333  0.40332782  0.06326340  1
  H+  H339  1  0.10699467  0.92369071  0.74488994  1
  H+  H340  1  0.13212870  0.73073959  0.00891306  1
  H+  H341  1  0.08092532  0.42320104  0.09774756  1
  H+  H342  1  0.84229045  0.16308501  0.48475627  1
  H+  H343  1  0.64643078  0.78968457  0.16576030  1
  H+  H344  1  0.13950872  0.09849335  0.94578982  1
  H+  H345  1  0.90565965  0.08103381  0.24901757  1
  H+  H346  1  0.60395384  0.28675593  0.58821074  1
  H+  H347  1  0.83978330  0.90971059  0.39941149  1
  H+  H348  1  0.64856065  0.55886530  0.56657913  1
  H+  H349  1  0.16737201  0.08517314  0.23043695  1
  H+  H350  1  0.92347004  0.59810120  0.61030513  1
  H+  H351  1  0.83973898  0.68191725  0.05325987  1
  H+  H352  1  0.36195637  0.92530733  0.75942313  1
  H+  H353  1  0.85110745  0.67283171  0.43087556  1
  H+  H354  1  0.87531327  0.45788757  0.76231105  1
  H+  H355  1  0.15656678  -0.01103889  0.83291271  1
  H+  H356  1  0.15710413  0.83339170  0.22952651  1
  H+  H357  1  0.83730208  0.67452746  0.77226164  1
  H+  H358  1  0.71382092  0.87392101  0.92532128  1
  H+  H359  1  0.32288723  0.39376797  0.07994203  1
  H+  H360  1  0.06046525  0.48111945  0.44498475  1
  H+  H361  1  0.41240109  0.06728154  0.21770178  1
  H+  H362  1  0.33388991  0.41281740  0.74706078  1
  H+  H363  1  0.32054978  0.40397658  0.43059932  1
  H+  H364  1  0.89740385  0.06310696  0.57167740  1
  H+  H365  1  0.25172367  0.38116395  0.84181900  1
  H+  H366  1  0.06897586  0.41959218  0.77794074  1
  H+  H367  1  0.08836011  0.66841402  0.44206765  1
  H+  H368  1  0.54093123  0.93410407  0.07306615  1
  H+  H369  1  0.63093303  0.53336671  0.16222918  1
  H+  H370  1  0.89295831  0.54786675  0.85699688  1
  H+  H371  1  0.65830469  0.33256596  0.90075362  1
  H+  H372  1  0.88634440  0.52296140  0.51584811  1
  H+  H373  1  0.86337506  0.39863446  0.84907409  1
  H+  H374  1  0.37957277  0.54829853  0.24144286  1
  H+  H375  1  0.94536940  0.32078004  0.59474920  1
  H+  H376  1  0.57684803  0.16257073  0.06175919  1
  H+  H377  1  0.67300468  0.34070283  0.23322188  1
  H+  H378  1  0.55684379  0.20097763  0.41117088  1
  H+  H379  1  0.16376791  0.33504387  0.25990822  1
  H+  H380  1  0.14314812  0.03116356  0.16845643  1
  H+  H381  1  0.89179638  0.91709364  0.82569568  1
  H+  H382  1  0.62582537  0.35028338  0.99497444  1
  H+  H383  1  0.90968256  0.81741391  0.56553581  1
  O2-  O384  1  0.08476347  0.17091246  0.15009981  1
  O2-  O385  1  0.06451881  0.18593383  0.46239210  1
  O2-  O386  1  0.06539236  0.20539086  0.79875173  1
  O2-  O387  1  0.08480558  0.42920310  0.14367907  1
  O2-  O388  1  0.07923257  0.44546663  0.46593037  1
  O2-  O389  1  0.06281810  0.41417884  0.82304072  1
  O2-  O390  1  0.07820112  0.65814586  0.14347700  1
  O2-  O391  1  0.08592843  0.66656698  0.48735982  1
  O2-  O392  1  0.09201635  0.67788634  0.82859569  1
  O2-  O393  1  0.09050302  0.93000237  0.14265521  1
  O2-  O394  1  0.08294599  0.92754426  0.48463938  1
  O2-  O395  1  0.11655559  0.92634866  0.82201988  1
  O2-  O396  1  0.33640055  0.17096191  0.14607850  1
  O2-  O397  1  0.30467290  0.16105731  0.47676464  1
  O2-  O398  1  0.30608085  0.13437795  0.82034303  1
  O2-  O399  1  0.31115722  0.36910504  0.12190900  1
  O2-  O400  1  0.31255142  0.40127727  0.47556251  1
  O2-  O401  1  0.31210678  0.40354306  0.82539784  1
  O2-  O402  1  0.35118252  0.65934882  0.14114519  1
  O2-  O403  1  0.27623600  0.69383843  0.43009233  1
  O2-  O404  1  0.35530463  0.68189417  0.81631072  1
  O2-  O405  1  0.38019982  0.93495396  0.10972348  1
  O2-  O406  1  0.38742537  0.94880793  0.46194211  1
  O2-  O407  1  0.36823351  0.92113851  0.80371210  1
  O2-  O408  1  0.59711057  0.17492990  0.14369767  1
  O2-  O409  1  0.54954826  0.11976672  0.52050061  1
  O2-  O410  1  0.58808281  0.17524223  0.82333289  1
  O2-  O411  1  0.59120920  0.42515606  0.14581133  1
  O2-  O412  1  0.55773843  0.39758882  0.48347941  1
  O2-  O413  1  0.60317041  0.42529973  0.80950207  1
  O2-  O414  1  0.53680024  0.68971711  0.12350857  1
  O2-  O415  1  0.58863001  0.65393513  0.47557475  1
  O2-  O416  1  0.58578993  0.66556680  0.82846103  1
  O2-  O417  1  0.56221852  0.92712591  0.14991279  1
  O2-  O418  1  0.56296003  0.90259040  0.46543633  1
  O2-  O419  1  0.60072501  0.91601031  0.81985861  1
  O2-  O420  1  0.85607052  0.19315095  0.14232031  1
  O2-  O421  1  0.89660162  0.19818734  0.46339486  1
  O2-  O422  1  0.82805228  0.17570285  0.81355444  1
  O2-  O423  1  0.83655020  0.42467380  0.15129976  1
  O2-  O424  1  0.82376309  0.41439302  0.48637355  1
  O2-  O425  1  0.83935828  0.43713285  0.84139984  1
  O2-  O426  1  0.89591364  0.69183136  0.13158274  1
  O2-  O427  1  0.85058579  0.67450002  0.47576655  1
  O2-  O428  1  0.84464605  0.68611719  0.81682597  1
  O2-  O429  1  0.82645355  0.89688728  0.13188417  1
  O2-  O430  1  0.84209051  0.90451527  0.47137111  1
  O2-  O431  1  0.86434216  0.94942839  0.80989691  1
  O2-  O432  1  0.17514196  0.09123563  0.18549729  1
  O2-  O433  1  0.12926908  0.09907911  0.49847071  1
  O2-  O434  1  0.22510592  0.08978904  0.85055265  1
  O2-  O435  1  0.16248835  0.34290291  0.18476023  1
  O2-  O436  1  0.14634947  0.33526962  0.49713339  1
  O2-  O437  1  0.15654567  0.34304171  0.87284626  1
  O2-  O438  1  0.17437697  0.58708377  0.18885892  1
  O2-  O439  1  0.18311951  0.57567067  0.52477021  1
  O2-  O440  1  0.13735557  0.56934894  0.86343427  1
  O2-  O441  1  0.15655235  0.83507619  0.18452992  1
  O2-  O442  1  0.16760824  0.84133477  0.53247108  1
  O2-  O443  1  0.17416824  0.83118947  0.87773447  1
  O2-  O444  1  0.42343010  0.08139163  0.17464098  1
  O2-  O445  1  0.38178821  0.07349823  0.52350112  1
  O2-  O446  1  0.41431559  0.07984463  0.85669560  1
  O2-  O447  1  0.42456458  0.33269382  0.18722778  1
  O2-  O448  1  0.39206332  0.32070809  0.52597352  1
  O2-  O449  1  0.38217136  0.30606208  0.86206990  1
  O2-  O450  1  0.34832435  0.53079769  0.20173387  1
  O2-  O451  1  0.44467265  0.54792281  0.53308245  1
  O2-  O452  1  0.41329043  0.57598487  0.85499110  1
  O2-  O453  1  0.39982106  0.81550741  0.18437714  1
  O2-  O454  1  0.39246352  0.81106945  0.50672359  1
  O2-  O455  1  0.43254675  0.83669483  0.85516513  1
  O2-  O456  1  0.69231720  0.09069344  0.17974253  1
  O2-  O457  1  0.57654835  -0.00567201  0.55942950  1
  O2-  O458  1  0.68186057  0.11291997  0.85713523  1
  O2-  O459  1  0.67837881  0.34124499  0.18781186  1
  O2-  O460  1  0.65483487  0.31808268  0.51202516  1
  O2-  O461  1  0.66469817  0.33463312  0.85549459  1
  O2-  O462  1  0.64474981  0.59131704  0.17754236  1
  O2-  O463  1  0.64500903  0.54988310  0.52185781  1
  O2-  O464  1  0.67691691  0.59520477  0.85109657  1
  O2-  O465  1  0.69489513  0.80463225  0.19313354  1
  O2-  O466  1  0.67549752  0.81574651  0.52648894  1
  O2-  O467  1  0.70007302  0.85815953  0.84421640  1
  O2-  O468  1  0.93057379  0.10340363  0.19118366  1
  O2-  O469  1  0.87899361  0.05285551  0.52697870  1
  O2-  O470  1  0.94682679  0.12124245  0.85097055  1
  O2-  O471  1  0.91754013  0.35030832  0.18589726  1
  O2-  O472  1  0.92893372  0.35365415  0.51856088  1
  O2-  O473  1  0.90498941  0.32992799  0.85693075  1
  O2-  O474  1  0.92025027  0.57424041  0.18298033  1
  O2-  O475  1  0.91876487  0.58382456  0.52936998  1
  O2-  O476  1  0.92233214  0.61091700  0.86338812  1
  O2-  O477  1  0.93027221  0.83253983  0.18472130  1
  O2-  O478  1  0.91758515  0.82349224  0.52171267  1
  O2-  O479  1  0.94020917  0.85416975  0.84925488  1
  O2-  O480  1  0.15621442  0.08099618  0.30970301  1
  O2-  O481  1  0.15413513  0.06832035  0.65601759  1
  O2-  O482  1  0.14811331  0.08745007  0.98821843  1
  O2-  O483  1  0.16211619  0.32751584  0.30537847  1
  O2-  O484  1  0.15944733  0.32566946  0.70414151  1
  O2-  O485  1  0.14622902  0.30065665  1.03429521  1
  O2-  O486  1  0.14665009  0.56796794  0.30965641  1
  O2-  O487  1  0.16540037  0.59079527  0.65395934  1
  O2-  O488  1  0.15270960  0.56637667  0.97792120  1
  O2-  O489  1  0.16487301  0.83781149  0.31283058  1
  O2-  O490  1  0.17905061  0.84479530  0.65385738  1
  O2-  O491  1  0.19004922  0.84855609  0.98833610  1
  O2-  O492  1  0.42031013  0.08986711  0.32612445  1
  O2-  O493  1  0.41444538  0.10646279  0.64443714  1
  O2-  O494  1  0.39011456  0.06922563  0.97989282  1
  O2-  O495  1  0.40809599  0.32683453  0.30998755  1
  O2-  O496  1  0.40172551  0.32359080  0.65284502  1
  O2-  O497  1  0.40769563  0.32434765  0.97754675  1
  O2-  O498  1  0.42025678  0.57416472  0.31438354  1
  O2-  O499  1  0.40539013  0.57731132  0.65258144  1
  O2-  O500  1  0.42590240  0.59786865  0.97558344  1
  O2-  O501  1  0.43107366  0.84852362  0.30341058  1
  O2-  O502  1  0.41619174  0.83535412  0.63185480  1
  O2-  O503  1  0.38268413  0.81826728  0.97518015  1
  O2-  O504  1  0.68269317  0.08590786  0.30090228  1
  O2-  O505  1  0.67850974  0.08401401  0.65537782  1
  O2-  O506  1  0.66003225  0.08645769  0.97521219  1
  O2-  O507  1  0.66777338  0.34206575  0.31115532  1
  O2-  O508  1  0.57186241  0.26697345  0.62678712  1
  O2-  O509  1  0.65580609  0.31914066  0.97766806  1
  O2-  O510  1  0.68684796  0.60658554  0.29275417  1
  O2-  O511  1  0.65543438  0.56849041  0.64730765  1
  O2-  O512  1  0.67030333  0.61379231  0.96843860  1
  O2-  O513  1  0.67131884  0.83222660  0.32409476  1
  O2-  O514  1  0.67099355  0.79828367  0.64754621  1
  O2-  O515  1  0.71713281  0.88232371  0.96988420  1
  O2-  O516  1  0.87746403  0.06157942  0.29534748  1
  O2-  O517  1  0.91386693  0.07506585  0.64262320  1
  O2-  O518  1  0.99931256  0.08178023  0.98465859  1
  O2-  O519  1  0.91329857  0.34272776  0.30773732  1
  O2-  O520  1  0.96040305  0.29676216  0.62988330  1
  O2-  O521  1  0.91290203  0.32276246  0.98085476  1
  O2-  O522  1  0.92083424  0.58587446  0.31451800  1
  O2-  O523  1  0.92361164  0.60765188  0.65478040  1
  O2-  O524  1  0.91299318  0.57462612  1.01679748  1
  O2-  O525  1  0.92711944  0.83648291  0.30902907  1
  O2-  O526  1  0.92793352  0.83936273  0.70143551  1
  O2-  O527  1  0.93009613  0.84250768  0.97135073  1
  O2-  O528  1  0.07267205  0.11659500  0.01830542  1
  O2-  O529  1  0.06913189  0.16756775  0.34299830  1
  O2-  O530  1  0.07548736  0.15740993  0.68569534  1
  O2-  O531  1  0.07584806  0.40648978  0.02434273  1
  O2-  O532  1  0.07553017  0.40177069  0.34967193  1
  O2-  O533  1  0.08469832  0.42318264  0.69925932  1
  O2-  O534  1  0.09560621  0.67052404  0.02249758  1
  O2-  O535  1  0.08410497  0.67252561  0.36083209  1
  O2-  O536  1  0.08750791  0.68261704  0.69919592  1
  O2-  O537  1  0.09197368  0.92294199  0.01977080  1
  O2-  O538  1  0.08404323  0.92019848  0.35874624  1
  O2-  O539  1  0.09399080  0.91813329  0.70029337  1
  O2-  O540  1  0.31662597  0.16223736  0.02135032  1
  O2-  O541  1  0.31936350  0.16482993  0.35178058  1
  O2-  O542  1  0.32130100  0.16140975  0.69747144  1
  O2-  O543  1  0.34364933  0.41935960  0.00265457  1
  O2-  O544  1  0.32576077  0.40890562  0.35166401  1
  O2-  O545  1  0.33172319  0.41309148  0.70160649  1
  O2-  O546  1  0.32526682  0.65677762  0.02284222  1
  O2-  O547  1  0.34960644  0.67792171  0.33509329  1
  O2-  O548  1  0.33582594  0.67469735  0.68832981  1
  O2-  O549  1  0.28285923  0.89330019  0.00310162  1
  O2-  O550  1  0.33850643  0.92169142  0.34372452  1
  O2-  O551  1  0.34633021  0.92747808  0.67742254  1
  O2-  O552  1  0.56841378  0.15701914  0.01705200  1
  O2-  O553  1  0.59648798  0.16881628  0.28511128  1
  O2-  O554  1  0.58004676  0.15143721  0.69933638  1
  O2-  O555  1  0.57553225  0.39405020  0.01858163  1
  O2-  O556  1  0.56560831  0.40437897  0.36618537  1
  O2-  O557  1  0.57261232  0.40029112  0.68159744  1
  O2-  O558  1  0.59670789  0.71074246  0.00580062  1
  O2-  O559  1  0.58820069  0.66903761  0.34489022  1
  O2-  O560  1  0.57029379  0.64911420  0.69095004  1
  O2-  O561  1  0.51642732  0.94508448  0.03579348  1
  O2-  O562  1  0.59617455  0.92141664  0.34049863  1
  O2-  O563  1  0.57601708  0.91448472  0.70050057  1
  O2-  O564  1  0.83051520  0.16351377  0.02069212  1
  O2-  O565  1  0.84541119  0.17907210  0.34456983  1
  O2-  O566  1  0.84601589  0.16578964  0.69259126  1
  O2-  O567  1  0.82800107  0.40505577  0.01867810  1
  O2-  O568  1  0.82926138  0.42118236  0.35905439  1
  O2-  O569  1  0.89798577  0.46022854  0.72106636  1
  O2-  O570  1  0.83567477  0.67786702  0.00868445  1
  O2-  O571  1  0.84854349  0.67632122  0.34804082  1
  O2-  O572  1  0.82084050  0.66472281  0.69265272  1
  O2-  O573  1  0.87141512  0.93713609  0.02154578  1
  O2-  O574  1  0.83254407  0.90700392  0.35321419  1
  O2-  O575  1  0.83655946  0.92012424  0.69049175  1
