# generated using pymatgen
data_H2O
_symmetry_space_group_name_H-M   'P 1'
_cell_length_a   17.99217674
_cell_length_b   17.99019455
_cell_length_c   21.99676910
_cell_angle_alpha   90.02753883
_cell_angle_beta   89.98579628
_cell_angle_gamma   119.98335893
_symmetry_Int_Tables_number   1
_chemical_formula_structural   H2O
_chemical_formula_sum   'H384 O192'
_cell_volume   6167.11215904
_cell_formula_units_Z   192
loop_
 _symmetry_equiv_pos_site_id
 _symmetry_equiv_pos_as_xyz
  1  'x, y, z'
loop_
 _atom_type_symbol
 _atom_type_oxidation_number
  H+  1.0
  O2-  -2.0
loop_
 _atom_site_type_symbol
 _atom_site_label
 _atom_site_symmetry_multiplicity
 _atom_site_fract_x
 _atom_site_fract_y
 _atom_site_fract_z
 _atom_site_occupancy
  H+  H0  1  0.60843997  0.20807849  0.17273717  1
  H+  H1  1  0.36529278  0.47707175  0.16977268  1
  H+  H2  1  0.13159406  1.02597003  0.65446347  1
  H+  H3  1  0.22687889  0.60568055  0.17952622  1
  H+  H4  1  0.27525718  0.39759626  0.18489222  1
  H+  H5  1  0.62556111  0.57712274  0.82968906  1
  H+  H6  1  0.85802531  0.88672449  0.66885474  1
  H+  H7  1  0.72165681  0.36106726  0.99403326  1
  H+  H8  1  0.14592903  0.12148177  0.16856762  1
  H+  H9  1  0.63120340  0.35843644  -0.00447314  1
  H+  H10  1  0.48368967  0.37211948  -0.00013477  1
  H+  H11  1  0.42553492  0.84793145  0.55697890  1
  H+  H12  1  0.11344307  0.59174813  0.84317662  1
  H+  H13  1  0.02538255  0.89137395  0.49825387  1
  H+  H14  1  0.51712933  0.90499510  0.64862559  1
  H+  H15  1  0.83472709  0.45704557  0.66791749  1
  H+  H16  1  0.46545432  0.11292103  0.65849726  1
  H+  H17  1  0.14414268  0.78226845  0.32358078  1
  H+  H18  1  0.16026767  0.04363032  0.31427204  1
  H+  H19  1  0.89037073  0.27418589  0.31189561  1
  H+  H20  1  0.33698603  0.64675688  0.82944613  1
  H+  H21  1  0.36584099  -0.02492614  0.16870117  1
  H+  H22  1  0.38989278  0.11798607  0.33461295  1
  H+  H23  1  0.85232137  0.59883184  0.17591581  1
  H+  H24  1  0.88004747  0.85681980  0.49771405  1
  H+  H25  1  0.02998980  0.37808908  0.33546610  1
  H+  H26  1  0.37085462  0.23248540  0.34278521  1
  H+  H27  1  0.87081192  0.61549496  0.84598755  1
  H+  H28  1  0.47886613  0.56618265  0.83497150  1
  H+  H29  1  0.55344100  0.60859827  0.75166846  1
  H+  H30  1  0.63211076  0.60986235  0.16868260  1
  H+  H31  1  0.03942389  0.14490006  0.15883289  1
  H+  H32  1  0.74099455  0.60342357  0.99136492  1
  H+  H33  1  0.37088131  0.14398887  1.00652222  1
  H+  H34  1  0.07673902  0.39913838  0.43050377  1
  H+  H35  1  0.12444079  0.57075318  0.65867910  1
  H+  H36  1  0.71200870  0.12174079  0.63936556  1
  H+  H37  1  0.27990407  0.63738246  0.33785241  1
  H+  H38  1  0.14415612  0.03178821  0.98547536  1
  H+  H39  1  0.32453654  0.65306424  0.10483295  1
  H+  H40  1  0.60072659  0.21532987  0.82432077  1
  H+  H41  1  0.00438308  0.63546803  0.01437702  1
  H+  H42  1  0.75120092  0.46698999  0.78114654  1
  H+  H43  1  0.75408402  0.12166034  0.81875567  1
  H+  H44  1  0.47809922  0.36887609  0.85120180  1
  H+  H45  1  0.12999125  0.76219929  1.02045500  1
  H+  H46  1  0.96287903  0.34653112  0.50334092  1
  H+  H47  1  0.51917216  0.88325782  0.38909161  1
  H+  H48  1  0.76751384  0.63467887  0.14845847  1
  H+  H49  1  0.77315712  0.12500254  0.02817034  1
  H+  H50  1  0.85055814  0.21291195  0.49741175  1
  H+  H51  1  0.59657339  0.22787781  0.67037492  1
  H+  H52  1  0.18185450  0.76536007  0.72551158  1
  H+  H53  1  0.89303114  0.27837285  0.17391604  1
  H+  H54  1  0.27071561  0.14198857  0.16040041  1
  H+  H55  1  0.86346554  0.59655178  0.66091210  1
  H+  H56  1  0.38380887  0.48070445  0.48803953  1
  H+  H57  1  0.61826422  0.47431593  0.00639262  1
  H+  H58  1  0.37181707  -0.01783550  0.48630591  1
  H+  H59  1  0.57591373  0.21650207  0.15772495  1
  H+  H60  1  0.12919449  0.38811035  0.01495505  1
  H+  H61  1  0.86861752  0.85569170  0.84172544  1
  H+  H62  1  0.82868304  0.16404417  0.22545673  1
  H+  H63  1  0.60817822  0.47284606  0.33813092  1
  H+  H64  1  0.63904634  0.12335018  0.99277598  1
  H+  H65  1  0.89062839  1.01536579  -0.00301366  1
  H+  H66  1  0.60232017  0.88571790  -0.02177951  1
  H+  H67  1  0.35607557  0.11845956  0.82290305  1
  H+  H68  1  0.87140862  0.35241577  0.65904515  1
  H+  H69  1  0.37302414  -0.01910631  0.33478092  1
  H+  H70  1  0.60411694  -0.02623489  0.96843378  1
  H+  H71  1  0.62778699  0.35732038  0.50521147  1
  H+  H72  1  0.40065243  0.74688105  0.48420339  1
  H+  H73  1  0.88626015  0.02540295  0.50192323  1
  H+  H74  1  0.17018180  0.09211162  0.59873546  1
  H+  H75  1  0.14545843  0.90876179  0.31957625  1
  H+  H76  1  0.59361039  0.71563633  0.34293772  1
  H+  H77  1  0.44251785  0.62616075  0.84988161  1
  H+  H78  1  0.77371907  0.88053573  0.01841385  1
  H+  H79  1  0.49406464  0.63199600  0.65939458  1
  H+  H80  1  0.72995631  0.88043976  0.64935830  1
  H+  H81  1  0.63858051  0.85738778  0.49986380  1
  H+  H82  1  0.62229744  0.63992863  1.01053134  1
  H+  H83  1  0.40529626  0.32816407  0.24029805  1
  H+  H84  1  0.63661157  0.85239300  1.05846206  1
  H+  H85  1  0.88226885  0.11045567  0.50891894  1
  H+  H86  1  0.11707583  0.63227824  0.16861342  1
  H+  H87  1  0.67215318  0.74628416  0.82482639  1
  H+  H88  1  0.38426501  0.60725950  0.17402944  1
  H+  H89  1  0.56772296  0.39426989  0.78375931  1
  H+  H90  1  0.36389739  0.47429172  0.02205400  1
  H+  H91  1  0.47618435  0.36637993  0.32336242  1
  H+  H92  1  0.79768250  0.78386133  0.88117440  1
  H+  H93  1  0.83961234  0.11566909  0.81817765  1
  H+  H94  1  0.76464888  0.92199328  0.84833682  1
  H+  H95  1  0.64283614  0.76753134  0.49771549  1
  H+  H96  1  -0.05746330  0.57961210  0.65620949  1
  H+  H97  1  0.61418898  0.22219018  0.00826477  1
  H+  H98  1  0.41747950  0.58061895  0.23357311  1
  H+  H99  1  0.14592731  0.77074343  0.17459900  1
  H+  H100  1  0.36074844  0.62822625  1.01070013  1
  H+  H101  1  0.60724553  0.71447081  0.16815356  1
  H+  H102  1  0.39275382  0.36238785  0.50405045  1
  H+  H103  1  0.08666556  0.66628796  0.66184192  1
  H+  H104  1  0.41414291  0.62617336  0.50301225  1
  H+  H105  1  0.11678402  0.14019496  0.49702460  1
  H+  H106  1  0.76243968  0.62201917  0.82294850  1
  H+  H107  1  0.84243172  0.71642541  0.82601457  1
  H+  H108  1  0.89921748  0.36985374  0.16356351  1
  H+  H109  1  0.03665698  0.14346754  0.83157901  1
  H+  H110  1  0.39159961  0.36930338  1.00563445  1
  H+  H111  1  0.36149809  0.72004790  0.15928290  1
  H+  H112  1  0.63235778  0.40136010  0.15709593  1
  H+  H113  1  0.11243691  0.88747094  0.17351407  1
  H+  H114  1  0.39380802  0.11787000  0.50464418  1
  H+  H115  1  0.11868063  0.25508256  0.65837942  1
  H+  H116  1  0.90307934  0.02689113  0.17094799  1
  H+  H117  1  0.42635009  0.82930834  0.21705584  1
  H+  H118  1  0.23048262  0.36345718  0.00203614  1
  H+  H119  1  0.10046409  0.44942084  0.67132363  1
  H+  H120  1  0.11104393  0.34189455  0.66117429  1
  H+  H121  1  0.26385833  0.12973802  0.67598767  1
  H+  H122  1  0.51800101  0.62627441  0.15931066  1
  H+  H123  1  0.02004494  0.89054644  0.65802100  1
  H+  H124  1  0.75593466  0.45715083  0.20986452  1
  H+  H125  1  0.64698999  0.63220262  0.64989899  1
  H+  H126  1  0.14676546  0.37732772  0.21148563  1
  H+  H127  1  0.86291977  0.71695124  0.34651858  1
  H+  H128  1  0.93087180  0.34468683  0.26151707  1
  H+  H129  1  0.61653425  0.47880974  0.15267632  1
  H+  H130  1  0.57780290  0.65480734  0.39977124  1
  H+  H131  1  0.63651193  0.50051646  0.84778775  1
  H+  H132  1  0.25354046  0.89799728  0.65051774  1
  H+  H133  1  0.62259147  0.03396675  0.63735590  1
  H+  H134  1  0.86013526  0.39152147  0.50572641  1
  H+  H135  1  0.07654489  0.86307908  0.84908400  1
  H+  H136  1  0.60284672  0.14194899  0.66444950  1
  H+  H137  1  0.72716364  0.60803970  0.50297999  1
  H+  H138  1  0.85115272  0.12999179  0.66354052  1
  H+  H139  1  0.11051830  0.46414895  0.82655680  1
  H+  H140  1  0.85292788  0.48018091  0.00492021  1
  H+  H141  1  0.39689201  0.86017045  0.16014780  1
  H+  H142  1  0.52251339  0.12489734  0.50259655  1
  H+  H143  1  0.05562396  0.90377620  0.32452728  1
  H+  H144  1  0.85831309  0.87111772  1.01026547  1
  H+  H145  1  0.13376979  0.59464348  0.33413197  1
  H+  H146  1  0.23325504  0.87142136  0.49157322  1
  H+  H147  1  0.90019872  -0.01145571  0.81517312  1
  H+  H148  1  0.12187090  0.73954402  0.48155391  1
  H+  H149  1  0.88911298  0.10285077  1.00507288  1
  H+  H150  1  0.36041039  0.71702052  1.01340630  1
  H+  H151  1  0.59247698  0.35902082  0.84448982  1
  H+  H152  1  0.87543490  0.76529871  0.49879950  1
  H+  H153  1  0.07701340  0.99293906  0.81331388  1
  H+  H154  1  0.70294111  0.35713227  0.65957378  1
  H+  H155  1  0.11499077  0.35164499  0.51148999  1
  H+  H156  1  0.63526348  0.36067621  0.33204448  1
  H+  H157  1  0.12497719  0.23041909  0.82826513  1
  H+  H158  1  0.00540405  0.36771095  0.67741047  1
  H+  H159  1  1.00802746  0.62703719  0.32686053  1
  H+  H160  1  0.47349932  0.60641920  0.32670572  1
  H+  H161  1  0.12171804  0.26274516  0.51096264  1
  H+  H162  1  0.36719981  0.35979786  0.18013775  1
  H+  H163  1  0.38562613  1.01542083  0.83587751  1
  H+  H164  1  0.89735985  0.11369457  0.17566016  1
  H+  H165  1  0.84485669  0.35953555  0.85799550  1
  H+  H166  1  0.41718309  0.08418955  0.93191538  1
  H+  H167  1  0.27387134  0.38713825  0.32613021  1
  H+  H168  1  0.35824345  0.46718330  0.83164978  1
  H+  H169  1  0.36897901  0.74630528  0.82677962  1
  H+  H170  1  0.97250662  0.11055829  0.66133696  1
  H+  H171  1  0.90349690  0.02900438  0.31832506  1
  H+  H172  1  0.15140586  0.78222176  0.72995007  1
  H+  H173  1  0.09262510  0.67941915  0.42257819  1
  H+  H174  1  0.38639269  0.79394128  0.65360945  1
  H+  H175  1  0.99360824  0.32397755  0.84928154  1
  H+  H176  1  0.87703042  0.27072408  1.00612238  1
  H+  H177  1  0.39082042  1.02938436  -0.00673038  1
  H+  H178  1  0.14305487  0.36050761  0.84283111  1
  H+  H179  1  0.88210527  0.51654828  0.33135186  1
  H+  H180  1  0.52732176  0.85835778  0.13773615  1
  H+  H181  1  0.76492038  0.13204849  0.17096762  1
  H+  H182  1  0.43815372  0.37417591  0.66214597  1
  H+  H183  1  0.23102444  0.11784827  0.50578763  1
  H+  H184  1  0.27213677  0.37624780  0.83424482  1
  H+  H185  1  0.87289636  0.26436735  0.65744113  1
  H+  H186  1  0.38992853  0.86312900  0.30946459  1
  H+  H187  1  0.28171147  0.89017268  0.01761137  1
  H+  H188  1  0.36905954  0.26334100  0.17401505  1
  H+  H189  1  0.12057529  0.90307673  0.84997777  1
  H+  H190  1  0.87519656  0.52251665  0.17507196  1
  H+  H191  1  0.38134790  0.37481716  0.84706590  1
  H+  H192  1  0.64666741  0.76313141  0.80855266  1
  H+  H193  1  0.97582706  0.62637208  0.49023165  1
  H+  H194  1  0.02444264  0.13500046  0.49579758  1
  H+  H195  1  0.81764934  0.88279863  0.30662463  1
  H+  H196  1  0.52764728  0.13313715  0.00418343  1
  H+  H197  1  0.16347433  0.84063796  1.06392134  1
  H+  H198  1  0.08711166  0.62165329  0.00942342  1
  H+  H199  1  0.37229838  0.87586498  0.64632815  1
  H+  H200  1  0.38731276  0.61241747  0.32254818  1
  H+  H201  1  0.09279845  0.46086881  0.48729131  1
  H+  H202  1  0.21261855  0.62271175  0.84081684  1
  H+  H203  1  0.23676487  0.86149885  0.17240057  1
  H+  H204  1  0.61935353  0.10796704  0.82935910  1
  H+  H205  1  0.15050300  0.12485910  0.83949848  1
  H+  H206  1  0.82176096  0.66279170  0.43111736  1
  H+  H207  1  1.03451596  0.14130202  0.33799760  1
  H+  H208  1  0.84349828  0.92711101  0.76181526  1
  H+  H209  1  0.87792940  0.77211336  0.65556307  1
  H+  H210  1  0.37470753  0.02246650  0.65452677  1
  H+  H211  1  0.12344806  0.47904326  1.01370608  1
  H+  H212  1  0.09020583  0.66126782  0.28595534  1
  H+  H213  1  0.28620638  0.88980253  0.33367738  1
  H+  H214  1  0.40416190  0.87801192  0.49510143  1
  H+  H215  1  0.11753537  0.47805612  0.16243020  1
  H+  H216  1  0.70137270  0.35451504  0.84270458  1
  H+  H217  1  0.86923905  0.38960926  0.33423024  1
  H+  H218  1  0.62838175  0.60684824  0.32319656  1
  H+  H219  1  0.48264591  0.60964563  1.00527441  1
  H+  H220  1  0.12148482  0.14293336  1.00119859  1
  H+  H221  1  0.63534931  0.27201028  0.51151416  1
  H+  H222  1  0.26269939  0.12364622  0.82741334  1
  H+  H223  1  0.51185563  0.87106660  0.81864333  1
  H+  H224  1  0.22021664  0.60891991  0.99817805  1
  H+  H225  1  0.85221948  0.92757542  0.10494098  1
  H+  H226  1  0.86290922  -0.02130692  0.67001406  1
  H+  H227  1  0.85879730  0.39212701  0.99856061  1
  H+  H228  1  0.88628010  0.40118738  0.86115373  1
  H+  H229  1  0.63036584  0.83670679  0.17797958  1
  H+  H230  1  0.02543170  0.88826178  -0.00445531  1
  H+  H231  1  0.29283885  0.87141348  0.82917800  1
  H+  H232  1  0.88158700  0.77575481  0.17086542  1
  H+  H233  1  0.40614453  0.62827600  0.66088052  1
  H+  H234  1  0.38703356  0.88931284  0.81763330  1
  H+  H235  1  0.91770456  0.86208568  0.34830647  1
  H+  H236  1  0.36822398  0.22797166  0.49780699  1
  H+  H237  1  0.79295493  0.39432822  0.15857991  1
  H+  H238  1  0.89304765  0.75353964  0.99698978  1
  H+  H239  1  0.97076515  0.84075160  0.39531184  1
  H+  H240  1  0.15305395  0.12889220  0.32401938  1
  H+  H241  1  0.59430354  0.85369362  0.33999527  1
  H+  H242  1  0.62219126  0.63372701  0.49032213  1
  H+  H243  1  0.87477847  0.89468442  0.16587435  1
  H+  H244  1  0.02952232  0.13724804  0.00469254  1
  H+  H245  1  0.26041120  0.52703968  0.50113676  1
  H+  H246  1  0.13971944  0.02981349  0.50519535  1
  H+  H247  1  0.76218439  0.12603106  0.49354975  1
  H+  H248  1  0.35479221  0.13084137  0.67374679  1
  H+  H249  1  0.76512151  0.12373356  0.31163500  1
  H+  H250  1  0.46979329  0.10786770  0.83294548  1
  H+  H251  1  0.11503822  0.89179549  0.99868559  1
  H+  H252  1  0.11770502  0.60880016  0.49740248  1
  H+  H253  1  0.95157492  0.17966151  0.87032277  1
  H+  H254  1  0.77914531  0.38668987  0.33954409  1
  H+  H255  1  0.47272015  0.86092616  0.98084745  1
  H+  H256  1  0.92887103  0.09680960  0.90770555  1
  H+  H257  1  0.63432333  0.75877506  0.66166938  1
  H+  H258  1  0.61540151  1.00525686  0.33286755  1
  H+  H259  1  0.68355975  0.85029949  0.34045518  1
  H+  H260  1  0.61051023  0.46970849  0.49220663  1
  H+  H261  1  0.26887622  0.54011964  0.53393085  1
  H+  H262  1  0.58891888  0.41527248  0.06689767  1
  H+  H263  1  0.11581876  0.90188330  0.65564391  1
  H+  H264  1  0.95176506  0.60258392  0.85357338  1
  H+  H265  1  0.16200196  0.83987421  0.87065579  1
  H+  H266  1  0.61043077  0.12978280  0.34237963  1
  H+  H267  1  0.76438536  0.63415579  0.66799412  1
  H+  H268  1  0.75406300  0.89108205  0.47102745  1
  H+  H269  1  0.54400396  0.89957896  0.49611304  1
  H+  H270  1  0.89687784  0.24629261  0.84407458  1
  H+  H271  1  0.52010357  0.38117642  0.49554125  1
  H+  H272  1  0.10369469  0.71184110  0.83070727  1
  H+  H273  1  0.37213316  0.89420189  0.01449036  1
  H+  H274  1  0.37724065  0.10645616  0.17879026  1
  H+  H275  1  0.53388300  0.63618792  0.49485391  1
  H+  H276  1  0.12307895  0.38340096  0.33052024  1
  H+  H277  1  0.10978852  0.13168692  0.67201063  1
  H+  H278  1  0.63520643  0.90903040  0.82916450  1
  H+  H279  1  0.61655777  0.53310277  0.65912594  1
  H+  H280  1  0.77468896  0.39561779  0.51140972  1
  H+  H281  1  0.61235156  0.97946627  0.81420802  1
  H+  H282  1  0.35160648  0.69655054  0.73742093  1
  H+  H283  1  0.47664227  0.86080153  0.31076042  1
  H+  H284  1  0.03041714  0.69875764  0.78738964  1
  H+  H285  1  0.59077514  0.38199228  0.68122347  1
  H+  H286  1  0.38482702  0.36561645  0.32365661  1
  H+  H287  1  0.11441251  0.89524303  0.48684804  1
  H+  H288  1  0.62941574  0.77588009  1.01820035  1
  H+  H289  1  0.65349064  0.72674505  0.72250167  1
  H+  H290  1  0.91410595  0.31163492  0.94256911  1
  H+  H291  1  0.63874665  0.27333588  0.32971526  1
  H+  H292  1  0.33923224  0.17035745  0.43735538  1
  H+  H293  1  0.90792906  0.32237508  0.56481429  1
  H+  H294  1  0.28155204  0.14612686  0.34039647  1
  H+  H295  1  0.38041123  0.81509488  0.94859817  1
  H+  H296  1  0.43443482  0.59176547  0.56510000  1
  H+  H297  1  0.91620252  0.08091052  0.60001412  1
  H+  H298  1  0.64355909  0.33244091  0.60102651  1
  H+  H299  1  0.90354937  0.82868280  0.59504178  1
  H+  H300  1  0.19830779  0.59649721  0.50244528  1
  H+  H301  1  0.84027632  0.41619258  0.09367768  1
  H+  H302  1  0.37091352  0.23303209  1.00757182  1
  H+  H303  1  0.57671478  0.41303837  0.39818956  1
  H+  H304  1  0.47884577  0.11689643  0.33255373  1
  H+  H305  1  0.46258506  0.84619142  0.88142720  1
  H+  H306  1  0.86383213  0.64143152  0.48870412  1
  H+  H307  1  0.04836516  0.94321001  0.75221616  1
  H+  H308  1  0.40745647  0.07925805  0.23861117  1
  H+  H309  1  0.07617672  0.65723245  0.11402924  1
  H+  H310  1  0.70307585  0.88114193  0.90549474  1
  H+  H311  1  0.58819578  0.16266185  0.40302308  1
  H+  H312  1  0.33790033  0.17638670  0.10317722  1
  H+  H313  1  0.23488677  0.12037964  0.99276787  1
  H+  H314  1  0.17911223  0.09288588  0.89942931  1
  H+  H315  1  0.02749145  0.38649423  0.15670894  1
  H+  H316  1  0.72366701  0.14834667  0.95334235  1
  H+  H317  1  0.64569519  0.07485180  0.88932636  1
  H+  H318  1  0.71783236  0.60788386  0.32328520  1
  H+  H319  1  0.60683283  0.90592333  0.64729191  1
  H+  H320  1  0.85839284  0.12880346  0.30924133  1
  H+  H321  1  0.13940818  0.50849491  0.33367690  1
  H+  H322  1  0.32279810  0.14995854  0.75848039  1
  H+  H323  1  0.88954228  0.53882983  0.50643501  1
  H+  H324  1  0.93347877  0.08964707  0.26043862  1
  H+  H325  1  0.61770953  0.94081261  0.13452639  1
  H+  H326  1  0.40979858  0.32911693  0.56740931  1
  H+  H327  1  0.81346217  0.15297314  0.72103387  1
  H+  H328  1  0.89524035  0.57474459  0.27272096  1
  H+  H329  1  0.69504360  0.36772965  0.24263005  1
  H+  H330  1  0.85112320  0.62369799  0.34148327  1
  H+  H331  1  0.16727217  0.57096537  0.23915807  1
  H+  H332  1  0.88790029  0.59934862  0.94792779  1
  H+  H333  1  0.63536126  0.80653709  0.24518600  1
  H+  H334  1  0.17100455  0.33337516  0.90503477  1
  H+  H335  1  0.34456203  0.92554819  0.10533763  1
  H+  H336  1  0.34724186  0.92429376  0.42532558  1
  H+  H337  1  0.13990532  0.31709826  0.58445286  1
  H+  H338  1  0.80434452  0.39992693  0.72690912  1
  H+  H339  1  0.06069947  0.62571244  0.72638697  1
  H+  H340  1  0.11275576  0.97537512  0.17095905  1
  H+  H341  1  0.31831181  0.91731445  0.71472369  1
  H+  H342  1  0.97022537  0.85997278  0.18221824  1
  H+  H343  1  0.36923487  0.68452337  0.42649332  1
  H+  H344  1  0.90375136  0.81395951  0.94100370  1
  H+  H345  1  0.34672778  0.41938645  0.43027273  1
  H+  H346  1  0.17631271  0.85250606  0.55157102  1
  H+  H347  1  0.63490915  0.05497555  0.27031588  1
  H+  H348  1  0.67572704  0.84370165  0.58706531  1
  H+  H349  1  0.57306943  0.16299666  0.76008065  1
  H+  H350  1  0.13955202  0.27511515  0.99759308  1
  H+  H351  1  0.15840350  0.57553590  0.94013062  1
  H+  H352  1  0.32729261  0.41146193  0.07973418  1
  H+  H353  1  0.58674613  0.66092974  0.07171445  1
  H+  H354  1  0.42435193  0.57190981  0.94678575  1
  H+  H355  1  0.09548644  0.17170076  0.09896772  1
  H+  H356  1  0.53367411  0.51301185  0.74997685  1
  H+  H357  1  0.36589105  0.72807467  0.32510899  1
  H+  H358  1  0.83757617  0.15768958  0.08351729  1
  H+  H359  1  0.07936279  0.40209039  0.76764069  1
  H+  H360  1  0.36315110  0.47399582  0.33244837  1
  H+  H361  1  0.44644308  0.74749839  0.71568644  1
  H+  H362  1  0.66488332  0.58082250  0.22667611  1
  H+  H363  1  0.66516639  0.57844807  0.56156618  1
  H+  H364  1  0.19213584  0.79199669  0.91376183  1
  H+  H365  1  0.14591802  0.80993473  0.63724254  1
  H+  H366  1  0.08266452  0.16187570  0.73311482  1
  H+  H367  1  0.09787945  0.42088601  0.08404422  1
  H+  H368  1  0.18216098  0.10057352  0.22951762  1
  H+  H369  1  0.65332648  0.31473731  0.90690416  1
  H+  H370  1  0.78303830  0.97760248  0.43564123  1
  H+  H371  1  0.14699892  0.54694755  0.59612999  1
  H+  H372  1  0.60737349  0.93138141  0.44003873  1
  H+  H373  1  0.18061489  0.83462272  0.26124500  1
  H+  H374  1  0.63128085  0.11134499  0.55139682  1
  H+  H375  1  0.41849820  0.34897498  0.91491230  1
  H+  H376  1  0.41522621  0.08366819  0.56548980  1
  H+  H377  1  0.83107029  0.91400241  0.37688806  1
  H+  H378  1  0.82374805  0.66393348  0.72765557  1
  H+  H379  1  0.67486883  0.57938475  0.93581890  1
  H+  H380  1  0.83382770  0.65346377  0.09250155  1
  H+  H381  1  0.82521344  0.48728902  0.82701492  1
  H+  H382  1  0.08913766  0.16623652  0.39885600  1
  H+  H383  1  0.37151018  0.27438691  0.66150059  1
  O2-  O384  1  0.09958681  0.17314667  0.14382568  1
  O2-  O385  1  0.08528891  0.16998112  0.48243894  1
  O2-  O386  1  0.09490362  0.17008639  0.81255224  1
  O2-  O387  1  0.09020285  0.41846859  0.14382806  1
  O2-  O388  1  0.06951840  0.39964053  0.47580940  1
  O2-  O389  1  0.08612976  0.40401372  0.81334515  1
  O2-  O390  1  0.08921598  0.66631211  0.15777771  1
  O2-  O391  1  0.09018560  0.67788415  0.46701816  1
  O2-  O392  1  0.05448665  0.66655322  0.80692185  1
  O2-  O393  1  0.07757042  0.91332510  0.16159620  1
  O2-  O394  1  0.08186802  0.92564356  0.47871296  1
  O2-  O395  1  0.02570774  0.95497066  0.78957589  1
  O2-  O396  1  0.33476286  0.17783859  0.14844501  1
  O2-  O397  1  0.33826110  0.16657928  0.48283972  1
  O2-  O398  1  0.32457235  0.14860859  0.80726906  1
  O2-  O399  1  0.32759292  0.41369710  0.15951982  1
  O2-  O400  1  0.35408001  0.42001249  0.47480864  1
  O2-  O401  1  0.33349769  0.40648482  0.81970915  1
  O2-  O402  1  0.32744053  0.65658255  0.14996028  1
  O2-  O403  1  0.37565316  0.68602706  0.47126873  1
  O2-  O404  1  0.31874860  0.68656919  0.81552384  1
  O2-  O405  1  0.34104764  0.91554552  0.14989436  1
  O2-  O406  1  0.34354855  0.92199560  0.47084871  1
  O2-  O407  1  0.34711130  0.91132334  0.80891693  1
  O2-  O408  1  0.59217808  0.05399384  0.14253393  1
  O2-  O409  1  0.58544654  0.15874480  0.48850272  1
  O2-  O410  1  0.56992307  0.15657917  0.80590471  1
  O2-  O411  1  0.59414467  0.41911445  0.13727719  1
  O2-  O412  1  0.57916416  0.40933055  0.47667296  1
  O2-  O413  1  0.56916265  0.39701413  0.83037384  1
  O2-  O414  1  0.57891051  0.65726267  0.14498522  1
  O2-  O415  1  0.59361006  0.66641645  0.47595110  1
  O2-  O416  1  0.54076199  0.56110841  0.77943650  1
  O2-  O417  1  0.58765100  0.87959944  0.12403672  1
  O2-  O418  1  0.60524403  0.92103734  0.48414065  1
  O2-  O419  1  0.59524819  0.91898208  0.80299651  1
  O2-  O420  1  0.82733071  0.16549520  0.17907453  1
  O2-  O421  1  0.82338389  0.15092218  0.48523381  1
  O2-  O422  1  0.81349953  0.14819912  0.80164420  1
  O2-  O423  1  0.85020601  0.41743795  0.13845181  1
  O2-  O424  1  0.83698593  0.43093466  0.50430478  1
  O2-  O425  1  0.78029911  0.44037262  0.80125217  1
  O2-  O426  1  0.82951210  0.66163289  0.13716661  1
  O2-  O427  1  0.82728717  0.66905454  0.47640660  1
  O2-  O428  1  0.82352510  0.65826487  0.80838764  1
  O2-  O429  1  0.85489731  0.93444548  0.14947017  1
  O2-  O430  1  0.80345793  0.93793783  0.44575021  1
  O2-  O431  1  0.84970131  0.93250478  0.80744402  1
  O2-  O432  1  0.17795374  0.09211590  0.18414851  1
  O2-  O433  1  0.17040574  0.09046193  0.52092157  1
  O2-  O434  1  0.17929063  0.09217146  0.85337685  1
  O2-  O435  1  0.20240877  0.40234793  0.23245664  1
  O2-  O436  1  0.14326036  0.32122247  0.53109156  1
  O2-  O437  1  0.17293091  0.33061525  0.85970426  1
  O2-  O438  1  0.16563677  0.57352203  0.19375601  1
  O2-  O439  1  0.13754904  0.56902004  0.51317847  1
  O2-  O440  1  0.15649855  0.57797114  0.85778295  1
  O2-  O441  1  0.17591199  0.83269182  0.18742604  1
  O2-  O442  1  0.17245124  0.84166491  0.50582782  1
  O2-  O443  1  0.18465966  0.80004601  0.87071147  1
  O2-  O444  1  0.40129806  0.07127910  0.19379906  1
  O2-  O445  1  0.42257080  0.08562333  0.52000170  1
  O2-  O446  1  0.40956945  0.07614857  0.84976597  1
  O2-  O447  1  0.39679419  0.32579472  0.19319456  1
  O2-  O448  1  0.41916127  0.32914259  0.52211305  1
  O2-  O449  1  0.41712533  0.34764472  0.86804339  1
  O2-  O450  1  0.41613688  0.57782366  0.18752369  1
  O2-  O451  1  0.43842412  0.59078131  0.51985913  1
  O2-  O452  1  0.43623006  0.57124954  0.86189836  1
  O2-  O453  1  0.42452342  0.82558527  0.17131200  1
  O2-  O454  1  0.43759502  0.85196713  0.51226095  1
  O2-  O455  1  0.44640401  0.83825498  0.83856928  1
  O2-  O456  1  0.64791824  0.05009462  0.17588733  1
  O2-  O457  1  0.62520961  0.10761070  0.50572204  1
  O2-  O458  1  0.65052535  0.07774608  0.84460960  1
  O2-  O459  1  0.71308978  0.39582020  0.20180207  1
  O2-  O460  1  0.65836570  0.33109827  0.52684500  1
  O2-  O461  1  0.64593524  0.31082180  0.86110300  1
  O2-  O462  1  0.66626012  0.58207714  0.18134043  1
  O2-  O463  1  0.66535050  0.57555525  0.51620112  1
  O2-  O464  1  0.66511938  0.56451896  0.85338281  1
  O2-  O465  1  0.64894902  0.80237864  0.20208129  1
  O2-  O466  1  0.67460634  0.82982134  0.51082951  1
  O2-  O467  1  0.71691475  0.92117690  0.87203676  1
  O2-  O468  1  0.93393025  0.08955808  0.18683513  1
  O2-  O469  1  0.91658911  0.08219171  0.52156605  1
  O2-  O470  1  0.93895267  0.11929891  0.86499217  1
  O2-  O471  1  0.93037916  0.34090253  0.18134273  1
  O2-  O472  1  0.90331338  0.31734606  0.51964658  1
  O2-  O473  1  0.94650302  0.27526589  0.87204213  1
  O2-  O474  1  0.85736775  0.55492604  0.20179995  1
  O2-  O475  1  0.91820337  0.60296959  0.50800276  1
  O2-  O476  1  0.89227645  0.57998779  0.86755270  1
  O2-  O477  1  0.90771367  0.83133733  0.19222896  1
  O2-  O478  1  0.90729079  0.82691894  0.51548769  1
  O2-  O479  1  0.85543029  0.80321053  0.86594870  1
  O2-  O480  1  0.19029069  0.10739836  0.30558534  1
  O2-  O481  1  0.16659018  0.08940295  0.64433492  1
  O2-  O482  1  0.17645115  0.09453617  0.97423149  1
  O2-  O483  1  0.18188361  0.35606546  0.29051938  1
  O2-  O484  1  0.14227685  0.31480827  0.64101320  1
  O2-  O485  1  0.17095814  0.33781576  0.98491362  1
  O2-  O486  1  0.16874982  0.57029232  0.31916281  1
  O2-  O487  1  0.15488974  0.54342301  0.64029831  1
  O2-  O488  1  0.15848875  0.57591817  0.98532541  1
  O2-  O489  1  0.18386345  0.83970762  0.30728884  1
  O2-  O490  1  0.17834868  0.86964950  0.62482875  1
  O2-  O491  1  0.16838496  0.82665834  1.02163365  1
  O2-  O492  1  0.41818796  0.08615772  0.31814511  1
  O2-  O493  1  0.40579593  0.08574202  0.64197663  1
  O2-  O494  1  0.42051469  0.08913092  0.97697028  1
  O2-  O495  1  0.41550650  0.33480405  0.30771961  1
  O2-  O496  1  0.53685147  0.45622089  0.69359176  1
  O2-  O497  1  0.42202786  0.34280757  0.98461924  1
  O2-  O498  1  0.41472280  0.57890340  0.30784513  1
  O2-  O499  1  0.43481072  0.59781022  0.64508924  1
  O2-  O500  1  0.42096002  0.57809119  0.99113781  1
  O2-  O501  1  0.41662500  0.83006306  0.29281431  1
  O2-  O502  1  0.40748656  0.84908616  0.63222960  1
  O2-  O503  1  0.40764233  0.82547126  0.98841460  1
  O2-  O504  1  0.64872289  0.06459813  0.31380992  1
  O2-  O505  1  0.65179210  0.09768279  0.62557860  1
  O2-  O506  1  0.67666667  0.09923849  0.97385998  1
  O2-  O507  1  0.66913436  0.33444040  0.31653815  1
  O2-  O508  1  0.64159525  0.33314600  0.64689175  1
  O2-  O509  1  0.66058262  0.32677395  0.98034910  1
  O2-  O510  1  0.65782765  0.57606074  0.30732083  1
  O2-  O511  1  0.66347416  0.58871208  0.63951544  1
  O2-  O512  1  0.67868209  0.58180941  0.98080311  1
  O2-  O513  1  0.62543113  0.81760183  0.32483362  1
  O2-  O514  1  0.67054550  0.84950656  0.63206129  1
  O2-  O515  1  0.65479518  0.83978180  1.01897841  1
  O2-  O516  1  0.92615863  0.08939015  0.30629824  1
  O2-  O517  1  0.91226262  0.08071118  0.64538887  1
  O2-  O518  1  0.92010148  0.07718098  0.98452589  1
  O2-  O519  1  0.92699612  0.33721344  0.30658677  1
  O2-  O520  1  0.90650001  0.32644541  0.64545776  1
  O2-  O521  1  0.89585487  0.32330917  0.98212583  1
  O2-  O522  1  0.90880202  0.57947285  0.31733704  1
  O2-  O523  1  0.88058862  0.55359304  0.64993185  1
  O2-  O524  1  0.89184734  0.59906610  0.99316503  1
  O2-  O525  1  0.94504154  0.82634037  0.35478000  1
  O2-  O526  1  0.90613719  0.83245287  0.64027814  1
  O2-  O527  1  0.91283630  0.81510620  0.98539644  1
  O2-  O528  1  0.09104775  0.17318907  0.01645803  1
  O2-  O529  1  0.09329968  0.16473073  0.35420265  1
  O2-  O530  1  0.07667858  0.15935632  0.68790542  1
  O2-  O531  1  0.10082218  0.42052912  0.03303142  1
  O2-  O532  1  0.08906263  0.40648294  0.35328630  1
  O2-  O533  1  0.06595094  0.39196998  0.69255784  1
  O2-  O534  1  0.06510064  0.65769643  0.02682587  1
  O2-  O535  1  0.07428682  0.65836098  0.32870635  1
  O2-  O536  1  0.05635956  0.61129470  0.68282786  1
  O2-  O537  1  0.08843047  0.92766663  -0.00449778  1
  O2-  O538  1  0.11767100  0.94383113  0.32607159  1
  O2-  O539  1  0.07952935  0.92546007  0.67363397  1
  O2-  O540  1  0.33954948  0.17273764  0.02253216  1
  O2-  O541  1  0.34110070  0.17296563  0.35920289  1
  O2-  O542  1  0.32309813  0.15718038  0.69448257  1
  O2-  O543  1  0.33133621  0.41259969  0.03435182  1
  O2-  O544  1  0.33299456  0.41258502  0.34557949  1
  O2-  O545  1  0.38681149  0.32852984  0.64078058  1
  O2-  O546  1  0.32618149  0.65500771  0.02374871  1
  O2-  O547  1  0.34263905  0.67116481  0.34587093  1
  O2-  O548  1  0.38810360  0.71172165  0.70046615  1
  O2-  O549  1  0.34402227  0.92805455  0.02521148  1
  O2-  O550  1  0.34739131  0.91913231  0.34739126  1
  O2-  O551  1  0.32121926  0.92349427  0.67041206  1
  O2-  O552  1  0.58793814  0.16023755  0.01870509  1
  O2-  O553  1  0.58595623  0.16520926  0.35816432  1
  O2-  O554  1  0.57067430  0.16722741  0.68531708  1
  O2-  O555  1  0.58373850  0.41342397  0.02010492  1
  O2-  O556  1  0.57693869  0.41188072  0.35255943  1
  O2-  O557  1  0.55955743  0.39267943  0.71491607  1
  O2-  O558  1  0.58749027  0.66500448  0.02556328  1
  O2-  O559  1  0.57328293  0.65427912  0.35419930  1
  O2-  O560  1  0.61803093  0.70392891  0.68617074  1
  O2-  O561  1  0.56931952  0.91168612  -0.03931160  1
  O2-  O562  1  0.56161532  0.90607882  0.35654021  1
  O2-  O563  1  0.57898094  0.93886787  0.65947912  1
  O2-  O564  1  0.83471782  0.15525884  0.03904832  1
  O2-  O565  1  0.82632554  0.15979947  0.29943592  1
  O2-  O566  1  0.81787989  0.15829459  0.67591799  1
  O2-  O567  1  0.82670764  0.41910727  0.01663472  1
  O2-  O568  1  0.84103853  0.42112733  0.34954769  1
  O2-  O569  1  0.80683662  0.39478720  0.68247873  1
  O2-  O570  1  0.84605471  0.64591635  0.01335543  1
  O2-  O571  1  0.82039027  0.65537217  0.35347650  1
  O2-  O572  1  0.82555546  0.66571888  0.68247636  1
  O2-  O573  1  0.83711449  0.91089143  0.02171714  1
  O2-  O574  1  0.86031219  0.91525259  0.33775348  1
  O2-  O575  1  0.82924261  0.91804102  0.68552421  1
