# generated using pymatgen
data_H2O
_symmetry_space_group_name_H-M   'P 1'
_cell_length_a   17.98600131
_cell_length_b   17.98006325
_cell_length_c   21.98585048
_cell_angle_alpha   90.03673460
_cell_angle_beta   89.99604403
_cell_angle_gamma   119.98667618
_symmetry_Int_Tables_number   1
_chemical_formula_structural   H2O
_chemical_formula_sum   'H384 O192'
_cell_volume   6158.25860867
_cell_formula_units_Z   192
loop_
 _symmetry_equiv_pos_site_id
 _symmetry_equiv_pos_as_xyz
  1  'x, y, z'
loop_
 _atom_type_symbol
 _atom_type_oxidation_number
  H+  1.0
  O2-  -2.0
loop_
 _atom_site_type_symbol
 _atom_site_label
 _atom_site_symmetry_multiplicity
 _atom_site_fract_x
 _atom_site_fract_y
 _atom_site_fract_z
 _atom_site_occupancy
  H+  H0  1  0.83793519  0.93458037  0.42510145  1
  H+  H1  1  0.85964552  0.89262958  0.67177536  1
  H+  H2  1  0.75670031  0.63623971  0.17210252  1
  H+  H3  1  0.13972556  0.02168166  0.32518739  1
  H+  H4  1  0.27394716  0.63278721  0.49574790  1
  H+  H5  1  0.13975214  0.79081257  0.99362608  1
  H+  H6  1  0.11780422  0.47421609  0.66542073  1
  H+  H7  1  0.39248654  0.86072338  0.99630496  1
  H+  H8  1  0.45631590  0.84279464  0.33305425  1
  H+  H9  1  0.17927905  0.83157046  0.67797594  1
  H+  H10  1  0.59498434  0.42884658  0.80493588  1
  H+  H11  1  0.74128987  0.38045545  0.49694329  1
  H+  H12  1  0.23160932  0.36773288  0.65294485  1
  H+  H13  1  0.85281455  0.45879184  0.15504278  1
  H+  H14  1  0.58820835  0.36619284  0.01560223  1
  H+  H15  1  0.27643282  0.88639232  0.00247982  1
  H+  H16  1  0.38593039  0.77327993  0.50558536  1
  H+  H17  1  0.33262091  0.66423471  0.43701922  1
  H+  H18  1  0.63337396  0.85241025  0.99506050  1
  H+  H19  1  0.61423877  0.97955606  0.15784035  1
  H+  H20  1  0.39037990  0.88130746  0.84816582  1
  H+  H21  1  0.96562892  0.10651341  0.84253223  1
  H+  H22  1  0.38804672  0.52533808  0.50108307  1
  H+  H23  1  0.23329985  0.13047672  0.98944661  1
  H+  H24  1  0.61867563  0.63538907  0.66242803  1
  H+  H25  1  0.14199556  0.27974129  0.66116949  1
  H+  H26  1  0.88792388  0.76860320  0.50101357  1
  H+  H27  1  0.61316927  0.24546693  1.00682739  1
  H+  H28  1  -0.12880856  0.26052506  0.49374827  1
  H+  H29  1  0.18459707  0.35036738  0.36161021  1
  H+  H30  1  0.97869692  0.61112483  0.49874115  1
  H+  H31  1  0.26115273  0.15607489  0.66822780  1
  H+  H32  1  0.28429714  0.62938129  0.15374096  1
  H+  H33  1  0.38685967  0.04381048  0.91683601  1
  H+  H34  1  0.82504457  0.17369491  0.40332701  1
  H+  H35  1  0.03873258  0.39204890  0.81987376  1
  H+  H36  1  0.37728813  0.40345087  0.66425623  1
  H+  H37  1  0.22670280  0.11736589  0.49287602  1
  H+  H38  1  0.26727118  0.17602890  0.82499980  1
  H+  H39  1  0.10040494  0.50071466  1.00471439  1
  H+  H40  1  0.73845988  0.36188971  0.65551069  1
  H+  H41  1  0.29295519  0.41207847  0.81552680  1
  H+  H42  1  0.76710572  0.04285264  0.77858746  1
  H+  H43  1  0.16168177  0.82709773  0.22014608  1
  H+  H44  1  0.65606272  0.37933716  0.86489597  1
  H+  H45  1  0.87167949  0.26083131  0.32477187  1
  H+  H46  1  0.51108511  0.11390651  -0.01143125  1
  H+  H47  1  0.57226248  0.69442047  0.40031300  1
  H+  H48  1  0.38467848  0.85519294  0.17167828  1
  H+  H49  1  0.09743459  0.21585677  0.34154874  1
  H+  H50  1  0.73235845  0.61913359  0.49099624  1
  H+  H51  1  0.43065371  0.11614853  0.71166831  1
  H+  H52  1  0.61707313  0.47967329  0.48430558  1
  H+  H53  1  0.86643781  0.76980675  0.18209880  1
  H+  H54  1  -0.02906115  0.37080042  0.00679740  1
  H+  H55  1  0.90938615  0.36484267  0.16710568  1
  H+  H56  1  0.24638289  0.86548529  0.33996154  1
  H+  H57  1  0.85847063  0.47621878  0.33470357  1
  H+  H58  1  0.36364384  0.03150271  0.68086313  1
  H+  H59  1  0.37982713  0.60885804  0.17024453  1
  H+  H60  1  0.62641789  0.39362540  0.48904305  1
  H+  H61  1  0.88320514  0.76133044  0.98167947  1
  H+  H62  1  0.61446776  0.88803068  0.49652757  1
  H+  H63  1  0.89589630  0.35338086  0.82368137  1
  H+  H64  1  0.35318482  0.97190341  0.49911727  1
  H+  H65  1  0.37951505  0.09723499  -0.02623425  1
  H+  H66  1  0.11964081  0.64686078  0.81971648  1
  H+  H67  1  0.61140368  0.64030884  0.15786952  1
  H+  H68  1  0.11407919  0.37397222  0.10190976  1
  H+  H69  1  0.97354691  0.12444998  0.50947787  1
  H+  H70  1  0.42322045  0.83656265  0.93582140  1
  H+  H71  1  0.38550225  0.29597511  0.84212923  1
  H+  H72  1  0.88367426  0.57264570  0.11170630  1
  H+  H73  1  0.87232821  0.35061902  0.31800935  1
  H+  H74  1  0.13907243  0.88053288  0.98924434  1
  H+  H75  1  0.62472003  0.52575395  0.17271378  1
  H+  H76  1  0.64367607  0.52020134  0.63202476  1
  H+  H77  1  0.29734161  0.93474834  0.75334873  1
  H+  H78  1  0.37523577  0.50930026  0.18055433  1
  H+  H79  1  0.88683264  0.02995918  0.66387167  1
  H+  H80  1  0.81675521  0.82289929  0.02682292  1
  H+  H81  1  0.39186643  0.77018362  0.17384857  1
  H+  H82  1  1.00749650  0.60963177  0.16996676  1
  H+  H83  1  0.87077717  0.86230541  0.17906747  1
  H+  H84  1  0.85622194  0.89025869  0.82723508  1
  H+  H85  1  0.11084448  0.21813047  0.16806992  1
  H+  H86  1  0.66459616  0.64131748  0.83123805  1
  H+  H87  1  0.39068395  0.62504585  0.85590942  1
  H+  H88  1  0.36150970  0.22452327  0.00188555  1
  H+  H89  1  0.36490649  0.97222932  0.00028216  1
  H+  H90  1  0.35342111  0.22474089  0.48685943  1
  H+  H91  1  1.00558302  0.94725891  0.98209269  1
  H+  H92  1  -0.03371819  0.10720370  0.32475957  1
  H+  H93  1  0.59097772  0.22680773  0.34466216  1
  H+  H94  1  0.08758615  0.68594528  0.76405516  1
  H+  H95  1  0.76419208  0.88632899  0.15646190  1
  H+  H96  1  0.88520879  0.61436472  0.32371329  1
  H+  H97  1  0.65809322  0.82672238  0.89682820  1
  H+  H98  1  0.35835876  0.88518261  0.49710994  1
  H+  H99  1  0.02425220  0.15318738  0.68211174  1
  H+  H100  1  0.09239487  0.91500404  0.40024919  1
  H+  H101  1  0.89056985  0.72236928  0.81948707  1
  H+  H102  1  0.22074708  0.85924955  0.51365585  1
  H+  H103  1  0.82015935  0.65378995  0.11707739  1
  H+  H104  1  0.96243422  0.11158184  0.17589125  1
  H+  H105  1  0.39764567  0.54139442  0.84593782  1
  H+  H106  1  0.23595833  0.61922149  -0.00951868  1
  H+  H107  1  0.60543849  0.61986969  0.00954107  1
  H+  H108  1  0.14146055  0.76884641  0.33530592  1
  H+  H109  1  0.18457773  0.08090400  0.14743286  1
  H+  H110  1  0.71927725  0.86362534  0.83866835  1
  H+  H111  1  0.76228019  0.57950624  0.03071271  1
  H+  H112  1  0.85551391  0.99697805  0.33274348  1
  H+  H113  1  0.38091429  0.41216738  0.81948890  1
  H+  H114  1  0.20966179  0.37062197  0.03482042  1
  H+  H115  1  0.13096004  0.51507887  0.49851814  1
  H+  H116  1  0.91223870  0.28751379  0.86031198  1
  H+  H117  1  0.72503609  0.86187132  0.66250039  1
  H+  H118  1  0.86887517  0.72650901  0.33252464  1
  H+  H119  1  0.52856220  0.64316046  0.49190433  1
  H+  H120  1  0.63523422  0.79145768  0.31369119  1
  H+  H121  1  0.91095602  0.93588078  0.98270468  1
  H+  H122  1  0.38193527  0.28634613  0.64828838  1
  H+  H123  1  0.62175116  0.02546745  0.83898830  1
  H+  H124  1  0.38653979  0.01108693  0.16988550  1
  H+  H125  1  0.35797928  0.12489824  0.33738881  1
  H+  H126  1  0.17181011  0.30057456  0.83238857  1
  H+  H127  1  0.38671896  0.61409940  0.50603400  1
  H+  H128  1  0.47547230  0.86345649  0.50449908  1
  H+  H129  1  0.39804851  0.52689095  0.32603481  1
  H+  H130  1  0.77510997  0.64118318  0.33268005  1
  H+  H131  1  0.92431794  0.87037300  0.33326846  1
  H+  H132  1  0.61622286  0.41992091  0.39803760  1
  H+  H133  1  1.01523213  0.89709878  0.67518098  1
  H+  H134  1  0.10678460  0.35478086  0.33368283  1
  H+  H135  1  0.89705810  0.78569981  0.65698001  1
  H+  H136  1  0.01392000  0.13376680  0.00929220  1
  H+  H137  1  0.87529157  0.46907523  0.82913335  1
  H+  H138  1  0.11394016  0.13442830  1.00923619  1
  H+  H139  1  0.36967101  0.38456807  0.17377695  1
  H+  H140  1  0.59344966  0.87664045  0.33945519  1
  H+  H141  1  0.37444406  0.11076136  0.50983153  1
  H+  H142  1  0.11956444  0.38577516  0.66642198  1
  H+  H143  1  0.37204212  0.72649713  0.00605806  1
  H+  H144  1  0.09456887  0.88218831  0.67643314  1
  H+  H145  1  0.86751165  0.34528335  0.00666973  1
  H+  H146  1  0.38234060  0.51885935  1.00181184  1
  H+  H147  1  0.38616226  0.13470440  0.15714802  1
  H+  H148  1  0.04541152  0.67935402  0.65752898  1
  H+  H149  1  0.66715817  1.02768949  0.00363445  1
  H+  H150  1  0.62470329  0.13497003  0.66204242  1
  H+  H151  1  0.73391224  0.86743248  0.50867604  1
  H+  H152  1  0.11235049  0.88755193  0.49699878  1
  H+  H153  1  0.12221690  0.77201864  0.83869934  1
  H+  H154  1  0.11614722  0.60360484  0.31335122  1
  H+  H155  1  0.38877728  0.86607279  0.65636162  1
  H+  H156  1  0.38372999  0.01801451  0.32651075  1
  H+  H157  1  0.95960233  0.69586043  0.95925903  1
  H+  H158  1  0.59155527  0.40963361  0.57304011  1
  H+  H159  1  0.63176856  0.60272726  0.33338918  1
  H+  H160  1  0.12952076  1.00297598  0.00338086  1
  H+  H161  1  0.87662700  0.02130842  0.17536369  1
  H+  H162  1  0.04171461  0.88146204  0.33658867  1
  H+  H163  1  0.06225845  0.21687998  0.84203765  1
  H+  H164  1  0.13320554  1.04147638  0.66975368  1
  H+  H165  1  0.63877963  0.12556729  0.30930172  1
  H+  H166  1  0.62577700  0.23922453  0.82201494  1
  H+  H167  1  0.14912357  0.86603089  0.33550450  1
  H+  H168  1  0.61688421  0.13640046  0.14849506  1
  H+  H169  1  0.07402554  0.15953954  0.43133136  1
  H+  H170  1  0.10513804  0.13013114  0.33705456  1
  H+  H171  1  0.63719464  0.50231861  0.85319165  1
  H+  H172  1  0.99865688  0.86966615  0.15933366  1
  H+  H173  1  0.72742567  0.11056943  0.15370524  1
  H+  H174  1  0.66143323  0.10931665  0.99383629  1
  H+  H175  1  0.87200543  0.75700535  0.01517287  1
  H+  H176  1  0.89355464  0.80680711  0.88714177  1
  H+  H177  1  0.30711775  0.14658494  0.16761041  1
  H+  H178  1  0.88081668  1.04254523  0.51138590  1
  H+  H179  1  0.09530973  0.12257886  0.16487773  1
  H+  H180  1  0.41529334  0.57925576  0.93966826  1
  H+  H181  1  0.14524965  0.60705133  0.65471138  1
  H+  H182  1  0.76571304  0.39515413  0.34079248  1
  H+  H183  1  0.61226375  0.88437140  0.66987404  1
  H+  H184  1  0.89558947  0.36342219  0.67138502  1
  H+  H185  1  0.87050736  0.09540144  0.84198489  1
  H+  H186  1  0.86759447  0.63472995  0.48689019  1
  H+  H187  1  0.71902484  0.88447213  0.31424263  1
  H+  H188  1  0.87192668  0.14416587  0.67261038  1
  H+  H189  1  0.27168078  0.13172150  0.33586078  1
  H+  H190  1  0.12791272  0.11446918  0.49488361  1
  H+  H191  1  0.40396016  0.27549280  0.17166117  1
  H+  H192  1  0.11462813  0.72196056  0.49282045  1
  H+  H193  1  0.14420871  0.58857281  0.16128020  1
  H+  H194  1  0.10595564  0.87083120  0.83151426  1
  H+  H195  1  0.89097483  0.26329628  0.67364260  1
  H+  H196  1  0.76093646  0.35617370  1.01061856  1
  H+  H197  1  0.34584885  0.71669762  0.34346090  1
  H+  H198  1  0.88510081  1.10887670  0.00470381  1
  H+  H199  1  0.95718706  0.71499118  0.69088033  1
  H+  H200  1  0.51442377  0.62083143  0.00732119  1
  H+  H201  1  0.64979142  0.27264087  0.65048252  1
  H+  H202  1  0.36319189  0.72746782  0.65820101  1
  H+  H203  1  0.99632663  0.36955194  0.33496230  1
  H+  H204  1  0.08050623  0.46084457  0.32937282  1
  H+  H205  1  0.62162722  0.49895403  0.00529527  1
  H+  H206  1  0.15593922  0.50641910  0.15960385  1
  H+  H207  1  0.74131060  0.10188654  0.81662758  1
  H+  H208  1  0.51175898  0.11634870  0.48763705  1
  H+  H209  1  0.68279211  0.34431184  0.55594354  1
  H+  H210  1  0.04302264  0.37412957  0.15270191  1
  H+  H211  1  0.85358340  0.13880193  0.34258580  1
  H+  H212  1  0.86060265  0.60838171  0.01907323  1
  H+  H213  1  0.67845561  0.09681247  0.21863855  1
  H+  H214  1  0.27608615  0.37639804  0.17896014  1
  H+  H215  1  0.13145759  0.02001870  0.49586676  1
  H+  H216  1  0.62679474  0.26062928  0.16532675  1
  H+  H217  1  0.84134247  0.41623271  0.42819942  1
  H+  H218  1  0.13146324  0.35783578  0.49783721  1
  H+  H219  1  0.06899842  0.60678562  0.22053175  1
  H+  H220  1  0.62890632  0.76051184  0.99062163  1
  H+  H221  1  0.54097407  0.75374252  0.36914432  1
  H+  H222  1  0.28179589  0.64795746  0.83047063  1
  H+  H223  1  0.98631112  0.60851157  0.83772117  1
  H+  H224  1  0.61585045  0.73841412  0.15108353  1
  H+  H225  1  0.85617555  0.97789119  0.83004928  1
  H+  H226  1  0.47857039  0.37809478  0.85919082  1
  H+  H227  1  0.78429781  0.38426762  0.83076350  1
  H+  H228  1  0.52412862  0.12776250  0.15457517  1
  H+  H229  1  0.11601265  0.63256935  0.48929252  1
  H+  H230  1  0.31124840  0.38674839  0.32740697  1
  H+  H231  1  0.34558108  0.62868710  0.34288659  1
  H+  H232  1  0.65286346  0.32196580  0.22355233  1
  H+  H233  1  1.02698161  0.64747034  0.34055454  1
  H+  H234  1  0.32539605  0.15930628  0.43001067  1
  H+  H235  1  0.52697922  0.89126023  0.66760307  1
  H+  H236  1  0.64612890  0.77768908  0.50453269  1
  H+  H237  1  0.47341756  0.36058318  0.49308160  1
  H+  H238  1  0.24356230  0.97073841  0.72354361  1
  H+  H239  1  0.63541273  0.12036489  0.83267385  1
  H+  H240  1  0.01462526  0.37623464  0.49042412  1
  H+  H241  1  0.53707120  0.13685759  0.66419865  1
  H+  H242  1  0.65013216  0.31145994  1.06019899  1
  H+  H243  1  0.62338552  0.38439769  0.63118185  1
  H+  H244  1  0.60362352  0.88221323  0.82537725  1
  H+  H245  1  0.52988693  0.88178311  0.00587378  1
  H+  H246  1  0.15608307  0.63453277  -0.00921728  1
  H+  H247  1  0.34395619  0.38003589  1.01737913  1
  H+  H248  1  0.41570716  0.35816213  0.33031306  1
  H+  H249  1  0.90684006  0.08115417  0.26281660  1
  H+  H250  1  0.62608895  0.72946267  0.82086989  1
  H+  H251  1  0.26929502  0.87341633  0.15194436  1
  H+  H252  1  0.89745722  0.27333015  0.03011993  1
  H+  H253  1  0.61750960  0.64332379  0.48319779  1
  H+  H254  1  0.37006005  0.63539508  0.00690023  1
  H+  H255  1  0.76903226  0.36736539  0.15871085  1
  H+  H256  1  0.52373446  0.88977980  0.16302635  1
  H+  H257  1  0.14574237  0.35205905  0.18359411  1
  H+  H258  1  0.72996109  0.60698542  0.64817626  1
  H+  H259  1  0.36142482  0.38763734  0.48464780  1
  H+  H260  1  0.89053314  0.52122897  0.49633249  1
  H+  H261  1  0.61649238  0.97798129  0.48829270  1
  H+  H262  1  0.02255999  0.88597830  0.49236509  1
  H+  H263  1  0.99043928  0.36212333  0.66840365  1
  H+  H264  1  0.82876484  0.89494341  0.33054477  1
  H+  H265  1  0.13083103  0.12870644  0.67222104  1
  H+  H266  1  0.85402543  0.15067151  0.48688743  1
  H+  H267  1  0.64942069  0.52439361  0.32719351  1
  H+  H268  1  0.35032277  0.15533633  0.67066640  1
  H+  H269  1  0.35834194  0.87785293  0.34350372  1
  H+  H270  1  0.84441584  0.41478422  0.73282222  1
  H+  H271  1  0.87850308  0.47057677  0.67003877  1
  H+  H272  1  0.87074246  0.38576684  0.48835415  1
  H+  H273  1  0.62814994  0.86288187  0.16069553  1
  H+  H274  1  0.39340816  0.51349358  0.65890311  1
  H+  H275  1  0.89535836  0.60134446  0.83768448  1
  H+  H276  1  0.39310758  0.25959327  0.32822699  1
  H+  H277  1  0.75850018  0.86065655  1.00584223  1
  H+  H278  1  1.01570455  0.88763997  0.83259355  1
  H+  H279  1  0.47692939  0.36758728  0.63518834  1
  H+  H280  1  0.61545948  0.39330719  0.15880298  1
  H+  H281  1  0.12355485  0.74795514  0.17661411  1
  H+  H282  1  0.47553796  0.87456925  0.84051910  1
  H+  H283  1  0.10929876  0.99516409  0.17137473  1
  H+  H284  1  0.45606597  0.35826019  -0.00004253  1
  H+  H285  1  0.72719826  0.12717661  0.31620445  1
  H+  H286  1  0.60075704  0.11597757  0.48220068  1
  H+  H287  1  0.41211306  0.33506268  0.55142235  1
  H+  H288  1  0.66981512  0.56065158  0.95034085  1
  H+  H289  1  0.82793875  0.91012890  0.10110587  1
  H+  H290  1  0.14030169  0.53460495  0.83502396  1
  H+  H291  1  0.64453312  1.02273914  0.65376121  1
  H+  H292  1  0.92146466  0.56993012  0.58943814  1
  H+  H293  1  0.26370498  0.89275997  0.84095839  1
  H+  H294  1  0.66024201  0.83341932  0.21889070  1
  H+  H295  1  0.64891598  0.58397747  0.23331955  1
  H+  H296  1  0.61757435  0.72493454  0.66560969  1
  H+  H297  1  0.09844112  0.68161781  0.06775934  1
  H+  H298  1  0.36766973  0.73625876  0.83645357  1
  H+  H299  1  0.41711151  0.07118881  0.22985999  1
  H+  H300  1  0.11813985  0.14415264  0.84255553  1
  H+  H301  1  0.42668492  0.58210509  0.59113055  1
  H+  H302  1  0.58381866  0.66598320  0.08938123  1
  H+  H303  1  0.91898918  0.09281913  0.60559491  1
  H+  H304  1  0.34882994  0.66513697  0.09701624  1
  H+  H305  1  0.16241929  0.07734765  0.26481966  1
  H+  H306  1  0.88531509  0.85627783  0.49945925  1
  H+  H307  1  0.12232140  0.35170806  1.00405497  1
  H+  H308  1  0.07097743  0.90993502  0.76658677  1
  H+  H309  1  0.08788646  0.66992475  0.39977323  1
  H+  H310  1  0.73076971  0.12010638  0.49192492  1
  H+  H311  1  0.40929036  0.08831272  0.56920672  1
  H+  H312  1  0.23555358  0.61102160  0.64810835  1
  H+  H313  1  0.34905926  0.41788457  0.39433112  1
  H+  H314  1  0.08402725  0.86218823  0.15420334  1
  H+  H315  1  0.91608734  0.84081788  0.59658338  1
  H+  H316  1  0.04119515  0.65978684  0.00783011  1
  H+  H317  1  0.57747184  0.91380119  0.76520938  1
  H+  H318  1  0.47114183  0.10948847  0.32476908  1
  H+  H319  1  0.92344109  0.83687750  0.26511695  1
  H+  H320  1  0.89862683  0.60081591  0.65035307  1
  H+  H321  1  0.66916192  0.83214628  0.60142455  1
  H+  H322  1  0.56227186  0.88359697  0.40757919  1
  H+  H323  1  0.16063429  0.38269295  0.83466288  1
  H+  H324  1  0.56366528  0.13755909  0.05163678  1
  H+  H325  1  0.93906164  0.60845615  0.92896971  1
  H+  H326  1  0.35282580  0.43822918  0.72787294  1
  H+  H327  1  0.67110937  0.08211187  0.55211697  1
  H+  H328  1  0.14871818  0.83526941  0.90008197  1
  H+  H329  1  0.40754282  0.58025253  0.23946068  1
  H+  H330  1  0.56616085  0.40783162  0.07169207  1
  H+  H331  1  0.36876426  0.64181897  0.65968558  1
  H+  H332  1  0.82904949  0.91979901  0.73268184  1
  H+  H333  1  0.46927175  0.62816725  0.32679947  1
  H+  H334  1  0.08423651  0.93429471  0.05854918  1
  H+  H335  1  0.93500352  0.33755684  0.22795931  1
  H+  H336  1  0.40540082  0.82826924  0.26962566  1
  H+  H337  1  0.33409000  0.91018440  0.09602852  1
  H+  H338  1  0.87144930  0.60607389  0.17149351  1
  H+  H339  1  0.73295016  0.11303307  0.65246386  1
  H+  H340  1  0.55134435  0.40605584  0.72998804  1
  H+  H341  1  0.68207376  0.32826633  0.91054147  1
  H+  H342  1  0.07696322  0.18422258  0.74468622  1
  H+  H343  1  0.34109336  0.16083638  0.05748503  1
  H+  H344  1  0.54824389  0.36262162  0.73299695  1
  H+  H345  1  0.16236471  0.57390370  0.55820295  1
  H+  H346  1  0.79448550  0.64533946  0.82202393  1
  H+  H347  1  0.16961064  0.11254170  0.93104635  1
  H+  H348  1  0.41729454  0.84051058  0.59446246  1
  H+  H349  1  0.16682339  0.33090001  0.55587042  1
  H+  H350  1  0.60426382  0.66944504  0.76082643  1
  H+  H351  1  0.72130160  0.65507588  0.89192808  1
  H+  H352  1  0.91870374  0.58273004  0.26816482  1
  H+  H353  1  0.82568140  0.39459478  0.06614831  1
  H+  H354  1  0.52573002  0.39060083  0.16524824  1
  H+  H355  1  0.32955954  0.91085863  0.40547898  1
  H+  H356  1  0.67402346  0.59398873  0.54992951  1
  H+  H357  1  0.39929862  0.33716999  0.93990448  1
  H+  H358  1  0.82624901  0.15730089  0.73128869  1
  H+  H359  1  0.27226966  0.38804085  0.48316063  1
  H+  H360  1  0.11057425  0.22370917  0.48933562  1
  H+  H361  1  0.58621147  0.90883217  0.06630391  1
  H+  H362  1  0.49358371  0.61622897  0.65238704  1
  H+  H363  1  0.84031523  0.66726238  0.42712635  1
  H+  H364  1  0.91840064  0.09706572  0.93858322  1
  H+  H365  1  0.07698518  0.15820910  0.07511949  1
  H+  H366  1  0.90874254  0.32266050  0.55628043  1
  H+  H367  1  0.32478667  0.20296364  0.76498417  1
  H+  H368  1  0.16433210  0.32125357  0.24701738  1
  H+  H369  1  0.92108932  0.97457144  0.46472408  1
  H+  H370  1  0.94416734  0.90631115  0.90608426  1
  H+  H371  1  0.33038235  0.41584256  0.08022202  1
  H+  H372  1  0.60158615  0.18510428  0.76064757  1
  H+  H373  1  0.10214861  0.42833101  0.76461107  1
  H+  H374  1  0.15292323  0.82100636  0.56925146  1
  H+  H375  1  0.06999791  0.40778010  0.42974051  1
  H+  H376  1  0.13796724  0.06374641  0.84212620  1
  H+  H377  1  0.42711220  0.32524649  0.23560270  1
  H+  H378  1  0.07475571  0.44709651  0.06681160  1
  H+  H379  1  0.56907220  0.15469329  0.39519915  1
  H+  H380  1  0.53865499  0.34529072  0.31829506  1
  H+  H381  1  0.87183216  0.67803148  0.72841276  1
  H+  H382  1  0.15157972  0.56838339  0.25931585  1
  H+  H383  1  0.16734957  0.59524723  0.89391115  1
  O2-  O384  1  0.07508203  0.16067111  0.14844861  1
  O2-  O385  1  0.07831938  0.16110477  0.47713463  1
  O2-  O386  1  0.06169643  0.17049774  0.81879677  1
  O2-  O387  1  0.10532656  0.40091861  0.13980570  1
  O2-  O388  1  0.07591062  0.40732661  0.47485504  1
  O2-  O389  1  0.10110931  0.42995214  0.80972016  1
  O2-  O390  1  0.06910150  0.63383231  0.18112948  1
  O2-  O391  1  0.08624927  0.66390519  0.47392979  1
  O2-  O392  1  0.08613939  0.67707244  0.80846240  1
  O2-  O393  1  0.05834508  0.89766072  0.14224544  1
  O2-  O394  1  0.08420286  0.91844336  0.47855085  1
  O2-  O395  1  0.07415299  0.90779553  0.81326529  1
  O2-  O396  1  0.35963275  0.17040408  0.14363152  1
  O2-  O397  1  0.32015301  0.16202069  0.47557590  1
  O2-  O398  1  0.32734900  0.20606067  0.80979770  1
  O2-  O399  1  0.33598987  0.41335531  0.16281202  1
  O2-  O400  1  0.33323606  0.41979960  0.46867847  1
  O2-  O401  1  0.35329505  0.44112966  0.79799887  1
  O2-  O402  1  0.34741529  0.66172659  0.14323495  1
  O2-  O403  1  0.33562319  0.66523953  0.48319056  1
  O2-  O404  1  0.34427496  0.67575822  0.82396305  1
  O2-  O405  1  0.33109963  0.90625117  0.14185130  1
  O2-  O406  1  0.32431820  0.91211190  0.48241709  1
  O2-  O407  1  0.32300213  0.92799947  0.82479300  1
  O2-  O408  1  0.58181849  0.16344625  0.13567516  1
  O2-  O409  1  0.56596392  0.14022935  0.46505528  1
  O2-  O410  1  0.59497152  0.18068528  0.80524887  1
  O2-  O411  1  0.58494197  0.42436816  0.14669125  1
  O2-  O412  1  0.58666519  0.41689478  0.47525008  1
  O2-  O413  1  0.60386222  0.43876094  0.84892741  1
  O2-  O414  1  0.58668599  0.67408700  0.13683757  1
  O2-  O415  1  0.58745851  0.67659851  0.47448361  1
  O2-  O416  1  0.61467024  0.67225031  0.80521087  1
  O2-  O417  1  0.58282470  0.91725498  0.14564070  1
  O2-  O418  1  0.58129496  0.91371322  0.47955618  1
  O2-  O419  1  0.57470714  0.91371134  0.81038212  1
  O2-  O420  1  0.82510986  0.13579147  0.09377078  1
  O2-  O421  1  0.82381567  0.17919749  0.47080371  1
  O2-  O422  1  0.79301611  0.10172533  0.79357697  1
  O2-  O423  1  0.82850336  0.39819436  0.14232224  1
  O2-  O424  1  0.84489919  0.42124440  0.47322130  1
  O2-  O425  1  0.84182950  0.41066639  0.81095847  1
  O2-  O426  1  0.81918288  0.66639306  0.16120206  1
  O2-  O427  1  0.83949071  0.66801732  0.47248858  1
  O2-  O428  1  0.85389372  0.66336884  0.80561566  1
  O2-  O429  1  0.82679539  0.91488793  0.14628552  1
  O2-  O430  1  0.85883072  0.93846864  0.46844884  1
  O2-  O431  1  0.82500467  0.91838335  0.81091423  1
  O2-  O432  1  0.14561532  0.05834915  0.18206698  1
  O2-  O433  1  0.16220448  0.08404591  0.50615471  1
  O2-  O434  1  0.16134925  0.12171380  0.85832174  1
  O2-  O435  1  0.17222232  0.31974350  0.20252909  1
  O2-  O436  1  0.16496524  0.32902847  0.51051029  1
  O2-  O437  1  0.19887861  0.35983146  0.84704966  1
  O2-  O438  1  0.18345488  0.56778504  0.17317986  1
  O2-  O439  1  0.16288491  0.57624502  0.51286078  1
  O2-  O440  1  0.16412471  0.59553576  0.84861523  1
  O2-  O441  1  0.15092867  0.81201141  0.17696538  1
  O2-  O442  1  0.15821252  0.82857947  0.52460583  1
  O2-  O443  1  0.14483299  0.83307330  0.85361238  1
  O2-  O444  1  0.42010229  0.07200846  0.18434686  1
  O2-  O445  1  0.40142679  0.07781805  0.52539484  1
  O2-  O446  1  0.34780559  0.01418678  0.84778025  1
  O2-  O447  1  0.42666980  0.33350064  0.19037447  1
  O2-  O448  1  0.41183548  0.33137511  0.50586868  1
  O2-  O449  1  0.41634487  0.35407895  0.86399479  1
  O2-  O450  1  0.40432507  0.57331438  0.19256229  1
  O2-  O451  1  0.41918140  0.58408308  0.51938758  1
  O2-  O452  1  0.41901982  0.59281860  0.87185933  1
  O2-  O453  1  0.41705618  0.82932466  0.19062704  1
  O2-  O454  1  0.41457565  0.83471484  0.51938877  1
  O2-  O455  1  0.41777887  0.84782596  0.86057144  1
  O2-  O456  1  0.67065108  0.08751376  0.17283905  1
  O2-  O457  1  0.66820771  0.07892492  0.50721516  1
  O2-  O458  1  0.66223858  0.08662324  0.84798816  1
  O2-  O459  1  0.65786153  0.32315734  0.17919866  1
  O2-  O460  1  0.68146027  0.35725254  0.51234024  1
  O2-  O461  1  0.68481720  0.34431838  0.86786017  1
  O2-  O462  1  0.64971702  0.58658698  0.18785885  1
  O2-  O463  1  0.67093081  0.59095286  0.50477977  1
  O2-  O464  1  0.70234703  0.61854538  0.85574378  1
  O2-  O465  1  0.65744244  0.82890672  0.17306125  1
  O2-  O466  1  0.67427417  0.83697300  0.52263427  1
  O2-  O467  1  0.65794464  0.82871714  0.85143434  1
  O2-  O468  1  0.90492569  0.07908117  0.19440545  1
  O2-  O469  1  0.91579978  0.10060855  0.52836705  1
  O2-  O470  1  0.90532270  0.07309881  0.86162053  1
  O2-  O471  1  0.95308998  0.35395343  0.18510953  1
  O2-  O472  1  0.91188592  0.32713311  0.51199566  1
  O2-  O473  1  0.93100737  0.32464073  0.82470993  1
  O2-  O474  1  0.89879619  0.57358647  0.15500835  1
  O2-  O475  1  0.91784966  0.58185854  0.51294343  1
  O2-  O476  1  0.92784601  0.57594565  0.85668899  1
  O2-  O477  1  0.90071549  0.83150158  0.19549215  1
  O2-  O478  1  0.91751124  0.82979774  0.51636891  1
  O2-  O479  1  0.92646721  0.86245691  0.86718568  1
  O2-  O480  1  0.16471636  0.08158613  0.30978062  1
  O2-  O481  1  0.16102445  0.10026658  0.65365340  1
  O2-  O482  1  0.17136852  0.10432688  0.97693455  1
  O2-  O483  1  0.14312230  0.32524477  0.32859459  1
  O2-  O484  1  0.17171683  0.33626676  0.63846828  1
  O2-  O485  1  0.14654406  0.34452429  1.04170516  1
  O2-  O486  1  0.10173289  0.55536560  0.28516515  1
  O2-  O487  1  0.17096817  0.57550653  0.63703305  1
  O2-  O488  1  0.17633103  0.59648002  0.97426414  1
  O2-  O489  1  0.17858993  0.83291877  0.32115936  1
  O2-  O490  1  0.12474945  0.80496496  0.65399564  1
  O2-  O491  1  0.16462857  0.84678476  0.97184390  1
  O2-  O492  1  0.40975750  0.07624174  0.30870289  1
  O2-  O493  1  0.40993166  0.09152359  0.67125317  1
  O2-  O494  1  0.40525253  0.06225330  0.96100019  1
  O2-  O495  1  0.43299224  0.31876663  0.31185539  1
  O2-  O496  1  0.41454005  0.34613186  0.62995210  1
  O2-  O497  1  0.39548690  0.32872492  0.98534601  1
  O2-  O498  1  0.41262317  0.58388854  0.30881501  1
  O2-  O499  1  0.43032200  0.58274829  0.63786403  1
  O2-  O500  1  0.41849208  0.57895283  0.98707377  1
  O2-  O501  1  0.39867563  0.82602199  0.31494340  1
  O2-  O502  1  0.42022347  0.83914061  0.64047439  1
  O2-  O503  1  0.42323749  0.83107129  0.98142036  1
  O2-  O504  1  0.67294362  0.10159056  0.29213340  1
  O2-  O505  1  0.67327756  0.08245962  0.63685413  1
  O2-  O506  1  0.70309793  0.09050295  1.00149084  1
  O2-  O507  1  0.59896565  0.35556259  0.31992077  1
  O2-  O508  1  0.68051532  0.33402994  0.63687958  1
  O2-  O509  1  0.64580082  0.31074727  1.01583901  1
  O2-  O510  1  0.66556820  0.58316259  0.31081383  1
  O2-  O511  1  0.67246465  0.58496991  0.63142705  1
  O2-  O512  1  0.66196551  0.56160736  0.99423831  1
  O2-  O513  1  0.66394117  0.84781476  0.29241347  1
  O2-  O514  1  0.66454655  0.82792654  0.64671025  1
  O2-  O515  1  0.66263028  0.82124697  0.97707367  1
  O2-  O516  1  0.90600427  0.08095401  0.31014422  1
  O2-  O517  1  0.91852457  0.09160007  0.65114449  1
  O2-  O518  1  0.93340194  0.11142879  0.98254327  1
  O2-  O519  1  0.90425807  0.32132703  0.30618521  1
  O2-  O520  1  0.92553374  0.32930067  0.65778453  1
  O2-  O521  1  0.91002080  0.31970673  0.99847191  1
  O2-  O522  1  0.91930571  0.58557398  0.31249085  1
  O2-  O523  1  0.92704338  0.56961540  0.63501053  1
  O2-  O524  1  0.94913046  0.63859894  0.96967207  1
  O2-  O525  1  0.93863330  0.83328767  0.30972172  1
  O2-  O526  1  0.91605840  0.84480061  0.64185250  1
  O2-  O527  1  0.96402264  0.95636208  0.95781396  1
  O2-  O528  1  0.07537582  0.15495145  0.02887351  1
  O2-  O529  1  0.07079092  0.15453976  0.35473573  1
  O2-  O530  1  0.08362351  0.18642338  0.69848568  1
  O2-  O531  1  0.05314671  0.45058791  0.02663110  1
  O2-  O532  1  0.05876383  0.40428834  0.34962576  1
  O2-  O533  1  0.08776887  0.41446266  0.68269790  1
  O2-  O534  1  0.10153201  0.68766970  0.02356915  1
  O2-  O535  1  0.08823165  0.67678709  0.35388321  1
  O2-  O536  1  0.06626270  0.72586508  0.68873377  1
  O2-  O537  1  0.09225321  0.94035924  0.01394311  1
  O2-  O538  1  0.10031160  0.91545737  0.35494904  1
  O2-  O539  1  0.07307457  0.91869549  0.69465848  1
  O2-  O540  1  0.33453816  0.16195313  0.01295110  1
  O2-  O541  1  0.33048751  0.15793950  0.35375384  1
  O2-  O542  1  0.32478745  0.19162783  0.67931683  1
  O2-  O543  1  0.32082811  0.41535110  0.03574799  1
  O2-  O544  1  0.36474401  0.42116666  0.34966760  1
  O2-  O545  1  0.35174906  0.43872593  0.68039294  1
  O2-  O546  1  0.34003509  0.66623745  0.02248026  1
  O2-  O547  1  0.31982025  0.65938500  0.36299893  1
  O2-  O548  1  0.32983653  0.66462353  0.66527945  1
  O2-  O549  1  0.33499041  0.91330494  0.01978066  1
  O2-  O550  1  0.32609921  0.90789659  0.35946191  1
  O2-  O551  1  0.27426653  0.94063440  0.71255778  1
  O2-  O552  1  0.56959102  0.14636904  0.00703130  1
  O2-  O553  1  0.56901891  0.16515391  0.34917245  1
  O2-  O554  1  0.59770848  0.16947847  0.67614877  1
  O2-  O555  1  0.56150412  0.40170604  0.02609972  1
  O2-  O556  1  0.64398292  0.43557520  0.35665256  1
  O2-  O557  1  0.59147161  0.41443164  0.61755449  1
  O2-  O558  1  0.57731187  0.65302497  0.02228989  1
  O2-  O559  1  0.55643551  0.70846158  0.35987005  1
  O2-  O560  1  0.58603148  0.66249393  0.67853916  1
  O2-  O561  1  0.58975311  0.90519457  0.02129373  1
  O2-  O562  1  0.54363799  0.85267462  0.36724246  1
  O2-  O563  1  0.58676727  0.91972182  0.68362191  1
  O2-  O564  1  0.88883181  0.21129161  0.08649134  1
  O2-  O565  1  0.82471046  0.17068625  0.35527611  1
  O2-  O566  1  0.84158941  0.17591180  0.68718387  1
  O2-  O567  1  0.82303888  0.38807645  0.02056922  1
  O2-  O568  1  0.82632067  0.41533972  0.34845211  1
  O2-  O569  1  0.84794870  0.41081025  0.68739399  1
  O2-  O570  1  0.81711939  0.59467373  0.05136630  1
  O2-  O571  1  0.83546121  0.66623160  0.34724888  1
  O2-  O572  1  0.89474257  0.69332466  0.68620240  1
  O2-  O573  1  0.81652083  0.87708437  0.02476255  1
  O2-  O574  1  0.81549654  0.93405077  0.35229428  1
  O2-  O575  1  0.82847035  0.92179471  0.68706430  1
