# generated using pymatgen
data_H2O
_symmetry_space_group_name_H-M   'P 1'
_cell_length_a   17.99657285
_cell_length_b   18.00054738
_cell_length_c   22.01467203
_cell_angle_alpha   89.96047569
_cell_angle_beta   90.03006726
_cell_angle_gamma   120.01083911
_symmetry_Int_Tables_number   1
_chemical_formula_structural   H2O
_chemical_formula_sum   'H384 O192'
_cell_volume   6175.48134954
_cell_formula_units_Z   192
loop_
 _symmetry_equiv_pos_site_id
 _symmetry_equiv_pos_as_xyz
  1  'x, y, z'
loop_
 _atom_type_symbol
 _atom_type_oxidation_number
  H+  1.0
  O2-  -2.0
loop_
 _atom_site_type_symbol
 _atom_site_label
 _atom_site_symmetry_multiplicity
 _atom_site_fract_x
 _atom_site_fract_y
 _atom_site_fract_z
 _atom_site_occupancy
  H+  H0  1  0.75451856  0.10584563  0.83179053  1
  H+  H1  1  0.26935149  0.37965563  1.00950443  1
  H+  H2  1  0.58923464  0.57846711  0.53085307  1
  H+  H3  1  0.16717571  0.07425754  0.93767162  1
  H+  H4  1  0.02714251  0.88140030  0.83417932  1
  H+  H5  1  0.51016084  0.62374850  0.66909064  1
  H+  H6  1  0.65880328  0.57108651  0.60844489  1
  H+  H7  1  0.52282628  0.87612742  0.16739403  1
  H+  H8  1  0.11155448  0.21774939  0.16497191  1
  H+  H9  1  0.90033090  0.12466762  0.48446830  1
  H+  H10  1  0.38949779  0.78200374  0.99772934  1
  H+  H11  1  0.59573934  0.99889362  0.02109307  1
  H+  H12  1  0.63795946  0.27422473  0.99595330  1
  H+  H13  1  0.87832577  0.63461969  0.50258074  1
  H+  H14  1  0.62002660  0.84893024  0.66709386  1
  H+  H15  1  0.39411931  0.00887224  0.84422990  1
  H+  H16  1  0.76576355  0.38575589  0.69520523  1
  H+  H17  1  0.14456498  0.75827619  0.15778737  1
  H+  H18  1  0.02447380  0.37939705  0.00985933  1
  H+  H19  1  0.59322058  0.46890993  0.49564394  1
  H+  H20  1  0.98932602  0.38087739  0.16843087  1
  H+  H21  1  0.98159429  0.38555860  0.32633923  1
  H+  H22  1  0.48227080  0.13277981  0.17179779  1
  H+  H23  1  0.83891160  0.16266149  0.06271884  1
  H+  H24  1  0.62064214  0.23302569  0.15724765  1
  H+  H25  1  0.13727512  0.85507699  0.52986959  1
  H+  H26  1  0.46174892  0.58114177  0.85118744  1
  H+  H27  1  0.87723896  0.61589752  0.84987823  1
  H+  H28  1  0.61277367  0.71577247  0.16862641  1
  H+  H29  1  0.86879140  0.48627919  0.15669481  1
  H+  H30  1  0.22391641  0.85269110  0.99193660  1
  H+  H31  1  0.70349911  0.10230651  0.67234193  1
  H+  H32  1  0.36866400  0.63415723  0.83214394  1
  H+  H33  1  0.50280799  0.38323755  0.49134951  1
  H+  H34  1  0.74412443  0.62754611  0.99477124  1
  H+  H35  1  0.40941233  0.57179156  0.91175341  1
  H+  H36  1  0.14669365  0.86398875  0.84150698  1
  H+  H37  1  0.83872274  0.95140444  0.32736491  1
  H+  H38  1  0.82183457  0.72361461  0.48261373  1
  H+  H39  1  0.93051412  0.64068028  0.56348102  1
  H+  H40  1  0.62084283  0.63123377  0.16473552  1
  H+  H41  1  0.89339627  0.38797243  0.16778780  1
  H+  H42  1  1.00597622  0.40559661  0.67062612  1
  H+  H43  1  0.69956874  0.67771670  0.97213038  1
  H+  H44  1  0.75795620  0.87244434  0.68144963  1
  H+  H45  1  0.31637475  0.42152867  0.43687248  1
  H+  H46  1  1.03039648  0.12826363  1.01268048  1
  H+  H47  1  0.73096237  0.35918527  0.84707285  1
  H+  H48  1  0.63745537  0.63520015  0.82345800  1
  H+  H49  1  0.12189118  0.61110583  0.50968489  1
  H+  H50  1  0.46937244  0.08497617  0.52195970  1
  H+  H51  1  0.70158605  0.34783030  0.32885000  1
  H+  H52  1  1.01616860  0.88108528  0.68652961  1
  H+  H53  1  0.89028860  0.27038060  0.99489018  1
  H+  H54  1  0.39864445  0.07412571  0.62090178  1
  H+  H55  1  0.10400289  0.37736904  0.16156018  1
  H+  H56  1  0.21637326  0.35539511  0.17165864  1
  H+  H57  1  0.66860622  0.32799802  0.90410702  1
  H+  H58  1  0.85144272  0.72114932  0.68931796  1
  H+  H59  1  0.46995697  0.59021940  0.56606714  1
  H+  H60  1  0.58017216  0.16079269  0.77604425  1
  H+  H61  1  0.87961377  0.36306774  0.32776366  1
  H+  H62  1  0.28310963  0.65043458  0.67404467  1
  H+  H63  1  0.10159690  0.98341863  0.39552303  1
  H+  H64  1  1.02567615  0.12581564  0.16272671  1
  H+  H65  1  0.34581305  0.13561213  0.33710452  1
  H+  H66  1  0.14325992  0.10378955  0.99973697  1
  H+  H67  1  0.83162198  0.89053229  0.12497982  1
  H+  H68  1  0.21839374  0.37128817  0.50607600  1
  H+  H69  1  0.36881412  0.61053413  0.32279246  1
  H+  H70  1  0.59746292  -0.02212600  0.50426114  1
  H+  H71  1  0.36195281  0.88558942  0.99539514  1
  H+  H72  1  0.85646092  0.93484647  0.57453667  1
  H+  H73  1  0.64104126  0.36519663  -0.00381663  1
  H+  H74  1  0.61006363  0.87334958  0.83786273  1
  H+  H75  1  0.26030154  0.63155173  0.16156616  1
  H+  H76  1  0.26638314  0.86478105  0.14526690  1
  H+  H77  1  0.88924063  0.16555081  0.32002952  1
  H+  H78  1  0.63640590  0.51140935  0.84431448  1
  H+  H79  1  0.60008463  0.88391395  0.35230641  1
  H+  H80  1  0.13456852  0.52508623  0.16643937  1
  H+  H81  1  0.47359769  0.87811608  0.00024704  1
  H+  H82  1  0.63714114  0.03349611  0.34603523  1
  H+  H83  1  0.70854387  0.84682998  0.34327429  1
  H+  H84  1  0.15989685  0.42742866  0.80015924  1
  H+  H85  1  0.62784731  0.78616734  0.38233679  1
  H+  H86  1  0.64339655  0.02780593  0.17167983  1
  H+  H87  1  0.13711702  0.26356245  0.00316876  1
  H+  H88  1  0.60531966  0.86303754  0.98524405  1
  H+  H89  1  0.89777794  0.87391974  0.50256614  1
  H+  H90  1  0.84105869  0.19108519  0.84141840  1
  H+  H91  1  0.10642036  0.20073339  0.67479786  1
  H+  H92  1  0.87213349  0.27300990  0.66480063  1
  H+  H93  1  0.68726301  0.60473979  0.50960128  1
  H+  H94  1  0.12964344  0.33315059  0.66040576  1
  H+  H95  1  0.72721141  0.85674309  0.85317973  1
  H+  H96  1  0.26297551  0.39414721  0.33831309  1
  H+  H97  1  0.85902044  0.87494243  0.83367565  1
  H+  H98  1  0.27774530  0.15182892  0.17308806  1
  H+  H99  1  0.61888047  0.36038956  0.32491334  1
  H+  H100  1  1.11133599  0.20336625  0.83342103  1
  H+  H101  1  0.34680980  0.39678350  0.49721599  1
  H+  H102  1  0.76707716  0.62849545  0.68287968  1
  H+  H103  1  0.21258738  0.34554934  0.84098104  1
  H+  H104  1  0.15727939  0.80006042  0.57589955  1
  H+  H105  1  0.87039599  0.85782962  0.67879053  1
  H+  H106  1  0.73507285  0.60967787  0.16975180  1
  H+  H107  1  0.89265172  0.52153248  -0.00381936  1
  H+  H108  1  0.26921726  0.37983029  0.66691585  1
  H+  H109  1  0.68558262  0.79656338  0.94274635  1
  H+  H110  1  0.21090704  0.61142731  0.50998321  1
  H+  H111  1  0.96825690  0.36997593  0.50912990  1
  H+  H112  1  0.63667020  0.77395640  0.48204399  1
  H+  H113  1  0.88722101  0.76690443  0.84562018  1
  H+  H114  1  0.46976174  0.60930837  0.00926517  1
  H+  H115  1  0.77645583  0.12887951  0.15090002  1
  H+  H116  1  0.40396517  0.82241723  0.22834907  1
  H+  H117  1  1.01530928  0.39945322  0.84428495  1
  H+  H118  1  0.20702189  0.08518582  0.34112399  1
  H+  H119  1  0.92810187  0.31831746  0.83381405  1
  H+  H120  1  0.36393286  0.01828043  0.68032415  1
  H+  H121  1  0.61475767  0.47810903  1.00885835  1
  H+  H122  1  0.36003082  0.14743169  0.49329903  1
  H+  H123  1  0.88766139  0.01719941  1.00325258  1
  H+  H124  1  0.11255859  0.37608423  0.00945453  1
  H+  H125  1  0.33868209  0.24552089  0.83042689  1
  H+  H126  1  0.61049204  0.38601610  0.15908573  1
  H+  H127  1  0.84339804  0.64828392  0.34710332  1
  H+  H128  1  0.31990062  0.16655345  0.39749193  1
  H+  H129  1  0.72948130  0.37140207  0.17416509  1
  H+  H130  1  0.31286016  0.48065671  0.82065805  1
  H+  H131  1  0.36637468  0.87901291  0.83095019  1
  H+  H132  1  0.38148443  0.51905547  0.65316166  1
  H+  H133  1  0.03711644  0.63534442  0.14439990  1
  H+  H134  1  0.85952014  0.96378684  0.83513066  1
  H+  H135  1  0.11324400  0.72446113  0.49412080  1
  H+  H136  1  0.61985909  0.14225942  1.00418196  1
  H+  H137  1  0.13917805  1.00834425  0.65452793  1
  H+  H138  1  0.22242066  0.10327048  0.65423394  1
  H+  H139  1  0.35996356  0.38869132  0.67775760  1
  H+  H140  1  0.11609691  0.87576553  1.00443432  1
  H+  H141  1  0.13978329  1.01581444  0.84545612  1
  H+  H142  1  0.12972754  0.57743951  0.67064104  1
  H+  H143  1  0.64606490  0.74163226  0.00433027  1
  H+  H144  1  0.48636157  0.10210666  0.84681012  1
  H+  H145  1  0.62238319  0.25065672  0.66539095  1
  H+  H146  1  0.12018395  0.72325515  0.81511669  1
  H+  H147  1  0.37192449  0.27980275  0.50802597  1
  H+  H148  1  0.52766961  0.13472038  0.00302685  1
  H+  H149  1  0.89572237  0.03581629  0.50658993  1
  H+  H150  1  0.38566698  0.60990321  0.65311911  1
  H+  H151  1  0.38688583  0.10340206  0.98659524  1
  H+  H152  1  0.09455326  0.43799994  0.75710998  1
  H+  H153  1  0.52237115  0.39060495  0.15933454  1
  H+  H154  1  0.35558896  0.38396363  0.16229177  1
  H+  H155  1  0.50225690  0.12684323  0.68797156  1
  H+  H156  1  0.51995729  0.87254252  0.83416652  1
  H+  H157  1  0.34756784  0.62262667  0.15812062  1
  H+  H158  1  0.13416291  0.76132520  0.99298246  1
  H+  H159  1  0.13415122  0.10049913  0.18365532  1
  H+  H160  1  0.10455210  0.62527909  -0.00070126  1
  H+  H161  1  1.07004158  0.64106801  0.33522719  1
  H+  H162  1  0.14448758  0.70574880  0.65126141  1
  H+  H163  1  0.14073273  0.02362599  0.49612059  1
  H+  H164  1  0.18929832  0.21834043  0.35240950  1
  H+  H165  1  0.62885169  0.60333065  0.66529618  1
  H+  H166  1  0.76651332  0.86341409  0.02509653  1
  H+  H167  1  0.12522680  0.64070349  0.81968865  1
  H+  H168  1  0.88175884  0.52342693  0.84911189  1
  H+  H169  1  0.06956937  0.86678752  0.38771873  1
  H+  H170  1  0.38945398  0.76661436  0.84107187  1
  H+  H171  1  0.08602552  0.65660967  0.06709495  1
  H+  H172  1  0.13649995  0.51200862  -0.00565268  1
  H+  H173  1  0.59177680  0.61573787  0.02311039  1
  H+  H174  1  0.94505229  0.07976591  0.34694193  1
  H+  H175  1  0.84223349  0.66960368  0.10043127  1
  H+  H176  1  0.36448288  0.02501213  0.32479189  1
  H+  H177  1  0.31483326  0.67686921  0.08017339  1
  H+  H178  1  0.58379372  0.22159612  0.49655495  1
  H+  H179  1  0.12747267  0.09730139  0.84443400  1
  H+  H180  1  0.86423240  0.38387468  1.00909088  1
  H+  H181  1  0.88314224  0.41106666  0.83830520  1
  H+  H182  1  0.87022879  0.13660940  1.00239576  1
  H+  H183  1  1.02508439  0.91739793  0.44348441  1
  H+  H184  1  1.02313349  0.15483430  0.31695513  1
  H+  H185  1  0.60110540  0.47275060  0.33538703  1
  H+  H186  1  0.45020436  0.92855285  0.28439628  1
  H+  H187  1  0.36831708  0.20789824  0.01046452  1
  H+  H188  1  0.46544879  0.85328841  0.50340044  1
  H+  H189  1  0.27971662  0.11987868  0.00106371  1
  H+  H190  1  0.85880486  0.73192516  0.15613486  1
  H+  H191  1  0.37390585  0.84782254  0.49481937  1
  H+  H192  1  0.21417235  0.60937666  0.31686042  1
  H+  H193  1  0.27402743  0.72325830  0.04420198  1
  H+  H194  1  0.47615176  0.35813444  0.00749596  1
  H+  H195  1  0.10986782  0.48541347  0.33493356  1
  H+  H196  1  0.12695216  0.37762266  0.32666275  1
  H+  H197  1  0.38343499  0.61320441  1.00473210  1
  H+  H198  1  0.13415127  0.29247422  0.32968309  1
  H+  H199  1  0.26609458  0.13515082  0.49479350  1
  H+  H200  1  0.56923155  0.41573044  0.39673725  1
  H+  H201  1  0.61805824  0.21929086  0.83569599  1
  H+  H202  1  0.60695422  0.11486813  0.51474154  1
  H+  H203  1  -0.01322796  0.61219268  -0.00380582  1
  H+  H204  1  0.64460293  0.88399270  0.51850777  1
  H+  H205  1  0.47129946  0.88625259  0.65298720  1
  H+  H206  1  0.35409834  0.89694991  0.67429183  1
  H+  H207  1  0.35294704  0.71756551  0.49344972  1
  H+  H208  1  0.74885494  0.37643623  0.49438913  1
  H+  H209  1  0.31742923  0.18277643  0.73476337  1
  H+  H210  1  0.96055770  0.19713849  0.62384909  1
  H+  H211  1  0.38080731  0.38841252  -0.11584987  1
  H+  H212  1  0.51467177  0.63981675  0.50481666  1
  H+  H213  1  0.61391943  0.88119454  0.16633414  1
  H+  H214  1  0.38634210  0.35478253  1.01799391  1
  H+  H215  1  0.35039718  0.14335861  0.68360326  1
  H+  H216  1  0.28144775  0.63675465  0.83077353  1
  H+  H217  1  0.35026680  0.38939837  0.34048044  1
  H+  H218  1  0.46260549  0.36357813  0.32907099  1
  H+  H219  1  0.63627707  0.69816945  0.44408170  1
  H+  H220  1  0.43988264  0.00474801  0.56618430  1
  H+  H221  1  0.15440475  0.06041543  0.24161804  1
  H+  H222  1  0.97258463  0.09831250  0.84451493  1
  H+  H223  1  0.85330630  0.38692747  0.68595408  1
  H+  H224  1  1.00002200  0.66882946  0.64742052  1
  H+  H225  1  0.60825151  0.35848002  0.50380213  1
  H+  H226  1  0.59885518  0.96023502  0.68440152  1
  H+  H227  1  0.60776199  0.38346197  0.67571692  1
  H+  H228  1  0.99296539  0.86020431  0.99658305  1
  H+  H229  1  0.77042967  0.94025924  0.06143745  1
  H+  H230  1  0.37229406  0.27601522  0.32503314  1
  H+  H231  1  0.66955988  0.08028135  0.93659904  1
  H+  H232  1  0.73438349  0.11750999  0.99359994  1
  H+  H233  1  0.78963793  0.14000023  0.45879925  1
  H+  H234  1  0.36811524  0.88228431  0.32376113  1
  H+  H235  1  0.92796717  0.34004850  0.94024700  1
  H+  H236  1  0.64667120  0.89686829  -0.00092812  1
  H+  H237  1  0.38075446  0.75792955  0.17221255  1
  H+  H238  1  0.21754083  0.60811623  0.99815363  1
  H+  H239  1  0.88585238  0.61540469  0.34504735  1
  H+  H240  1  1.00464694  0.82171465  0.32733900  1
  H+  H241  1  0.61844451  0.59860405  0.30902080  1
  H+  H242  1  0.34013873  0.66153033  0.73171351  1
  H+  H243  1  0.88038607  0.09301792  0.84622527  1
  H+  H244  1  0.60986736  0.47253757  0.67764481  1
  H+  H245  1  0.03585761  0.14167582  0.48575833  1
  H+  H246  1  0.36626573  0.51983220  0.32556764  1
  H+  H247  1  0.84013051  0.38132215  0.49791708  1
  H+  H248  1  0.94799177  0.51334993  0.30520115  1
  H+  H249  1  0.58866420  0.11974190  0.68531955  1
  H+  H250  1  0.38544787  0.00957815  0.98959166  1
  H+  H251  1  0.87819139  0.72465757  0.00881984  1
  H+  H252  1  0.90218211  0.63485082  0.66199407  1
  H+  H253  1  0.76985180  0.62665941  0.83501894  1
  H+  H254  1  0.11554498  0.76049506  0.33754266  1
  H+  H255  1  0.26299462  0.87107805  0.49343075  1
  H+  H256  1  0.45693741  0.11038297  0.33095409  1
  H+  H257  1  0.87261290  0.63272441  0.00944446  1
  H+  H258  1  0.90313287  0.85826921  0.00137028  1
  H+  H259  1  0.23875456  0.88718942  0.33767650  1
  H+  H260  1  0.35903773  0.87110710  0.14384125  1
  H+  H261  1  0.69637366  0.12307990  0.53056452  1
  H+  H262  1  0.49900824  0.61872994  0.30935676  1
  H+  H263  1  0.86069699  0.12053411  0.15043706  1
  H+  H264  1  0.88122378  0.25004196  0.31980078  1
  H+  H265  1  0.12156414  0.08766665  0.33888577  1
  H+  H266  1  0.10218346  0.39010255  0.49563089  1
  H+  H267  1  0.89740561  0.62092091  0.17192464  1
  H+  H268  1  0.47024667  0.36269305  0.66233347  1
  H+  H269  1  0.12381193  0.13911318  0.49425879  1
  H+  H270  1  0.15212164  0.53137293  0.83630578  1
  H+  H271  1  1.01039418  0.12797410  0.67670998  1
  H+  H272  1  0.35253189  0.95645744  0.49228298  1
  H+  H273  1  0.87321677  0.76789646  0.31524808  1
  H+  H274  1  0.55749433  0.16060490  0.43750774  1
  H+  H275  1  0.36150493  0.51133499  0.16794245  1
  H+  H276  1  0.11821426  0.96693889  0.00596940  1
  H+  H277  1  0.38612793  0.28427914  0.17459039  1
  H+  H278  1  0.35207582  0.73005767  0.34048120  1
  H+  H279  1  1.01775282  0.65205252  0.48993882  1
  H+  H280  1  0.90974591  0.86661351  0.32132217  1
  H+  H281  1  0.88467431  0.27968101  0.50213484  1
  H+  H282  1  0.11569874  -0.04057570  0.16360275  1
  H+  H283  1  0.10290448  0.44558483  0.65108555  1
  H+  H284  1  0.64354519  0.52024095  0.16734174  1
  H+  H285  1  0.62163019  0.76030890  0.66079284  1
  H+  H286  1  0.72929937  0.84407201  0.19553740  1
  H+  H287  1  0.59785836  0.13864221  0.34920311  1
  H+  H288  1  0.66468804  0.57141892  0.25982208  1
  H+  H289  1  0.83953569  0.92022913  0.39374884  1
  H+  H290  1  0.83642599  0.42027603  0.09966292  1
  H+  H291  1  0.41985829  0.82837600  0.90045672  1
  H+  H292  1  0.92073567  0.82818984  0.90381050  1
  H+  H293  1  0.16680457  0.06857035  0.56394542  1
  H+  H294  1  0.09585396  0.67892002  0.40318799  1
  H+  H295  1  0.26614397  0.14870653  0.82816387  1
  H+  H296  1  0.13392628  0.27847009  0.50430648  1
  H+  H297  1  0.37542470  0.32109988  0.93200414  1
  H+  H298  1  0.74920881  0.63989568  0.33020849  1
  H+  H299  1  0.08471258  0.91453119  0.77452281  1
  H+  H300  1  0.42215066  0.06873776  0.91673252  1
  H+  H301  1  0.83044669  0.65725513  0.77550871  1
  H+  H302  1  0.58909671  0.70566750  0.31432395  1
  H+  H303  1  0.94689172  0.82126493  0.51213645  1
  H+  H304  1  0.58478837  0.41340086  0.77523909  1
  H+  H305  1  0.78035055  0.90073653  0.52791125  1
  H+  H306  1  0.56519786  0.93594458  0.07882981  1
  H+  H307  1  0.51698229  0.89540668  0.34986284  1
  H+  H308  1  0.91381998  0.58451186  0.91466444  1
  H+  H309  1  0.90060943  0.32969048  0.60322085  1
  H+  H310  1  0.40563128  0.33834161  0.56766595  1
  H+  H311  1  0.83881862  0.42592986  0.77949828  1
  H+  H312  1  0.24127685  0.29318958  0.88060514  1
  H+  H313  1  0.58792444  0.42057979  0.06897812  1
  H+  H314  1  0.84289455  0.13745603  0.67232638  1
  H+  H315  1  0.64276386  0.76738571  0.84847055  1
  H+  H316  1  0.90077454  0.84726259  0.22034018  1
  H+  H317  1  0.77534764  0.38538421  0.00746828  1
  H+  H318  1  0.08577157  0.90357633  0.10435500  1
  H+  H319  1  0.32061144  0.40621879  0.10195783  1
  H+  H320  1  0.32814125  0.91091133  0.74245873  1
  H+  H321  1  0.41835032  0.34866719  0.23132967  1
  H+  H322  1  0.17509072  0.58085909  0.90035121  1
  H+  H323  1  0.85786920  0.18785712  0.40850774  1
  H+  H324  1  0.66247153  0.83874437  0.57624327  1
  H+  H325  1  0.58823033  0.17235024  0.09900039  1
  H+  H326  1  0.16506350  0.60996799  0.60447182  1
  H+  H327  1  0.16033730  0.32229212  0.59454718  1
  H+  H328  1  0.07835693  0.40779529  0.09979031  1
  H+  H329  1  0.68426168  0.71465006  0.78081660  1
  H+  H330  1  0.64712685  0.11747795  0.16673507  1
  H+  H331  1  0.76207545  0.28533696  0.37203359  1
  H+  H332  1  0.15762531  0.33400317  0.23107463  1
  H+  H333  1  0.07740762  0.42908265  0.39899786  1
  H+  H334  1  0.91890825  0.06804166  0.93996961  1
  H+  H335  1  0.65594919  0.81614236  0.24494660  1
  H+  H336  1  0.81634336  0.15471447  0.73800915  1
  H+  H337  1  0.57326428  0.65455722  0.72826874  1
  H+  H338  1  0.79903116  0.37241668  0.40922206  1
  H+  H339  1  0.10228700  0.47919131  0.49933017  1
  H+  H340  1  0.31979996  0.66770844  0.39763140  1
  H+  H341  1  0.14255457  0.84541327  0.16744328  1
  H+  H342  1  0.29060283  0.42829319  0.75819182  1
  H+  H343  1  0.34171077  0.62354603  0.48992660  1
  H+  H344  1  0.70448390  0.29794283  0.62425688  1
  H+  H345  1  0.81874063  0.90519567  0.74021054  1
  H+  H346  1  0.41833066  0.10258802  0.22820000  1
  H+  H347  1  0.57284231  0.65306330  0.08434194  1
  H+  H348  1  0.63689198  0.06976903  0.61669231  1
  H+  H349  1  0.78677361  0.66520599  0.42571819  1
  H+  H350  1  0.27850112  0.88398409  0.83383951  1
  H+  H351  1  0.11829006  0.18667945  0.40543199  1
  H+  H352  1  0.90455490  0.82522825  0.62347019  1
  H+  H353  1  0.89458903  0.00396453  0.18458802  1
  H+  H354  1  0.61738467  0.38358440  0.83240226  1
  H+  H355  1  0.63499199  0.32553241  0.56392851  1
  H+  H356  1  0.56876662  0.89578047  0.73986174  1
  H+  H357  1  0.13117614  0.61610996  0.15690293  1
  H+  H358  1  0.62709332  1.00363575  0.84361416  1
  H+  H359  1  0.09851254  0.86870895  0.68931718  1
  H+  H360  1  0.07119510  0.14852785  0.77155919  1
  H+  H361  1  0.92725292  0.36222660  0.23294800  1
  H+  H362  1  0.57942907  0.92162959  0.44391385  1
  H+  H363  1  0.58924072  0.22261387  0.34138031  1
  H+  H364  1  0.92066169  0.11547188  0.58408661  1
  H+  H365  1  0.92689028  0.07874648  0.23344255  1
  H+  H366  1  0.63111745  0.09653148  0.84182076  1
  H+  H367  1  0.92902484  0.59160253  0.32054900  1
  H+  H368  1  0.38954874  0.57262579  0.22566045  1
  H+  H369  1  0.66334687  0.33689211  0.23070502  1
  H+  H370  1  0.08954757  0.15806260  0.07222755  1
  H+  H371  1  0.37835253  0.27657090  0.66191974  1
  H+  H372  1  0.33019093  0.90804143  0.05832971  1
  H+  H373  1  0.35651563  0.47156668  0.01196890  1
  H+  H374  1  0.66923395  0.58068564  0.90184735  1
  H+  H375  1  0.93969827  0.58629032  0.22157437  1
  H+  H376  1  0.30150344  0.90956370  0.39474143  1
  H+  H377  1  0.41310877  0.85566704  0.59359450  1
  H+  H378  1  0.36906330  0.16083991  0.16370286  1
  H+  H379  1  0.21305454  0.84429067  0.68952504  1
  H+  H380  1  0.15808518  0.57635592  0.25571223  1
  H+  H381  1  0.72072035  0.12008686  0.32648833  1
  H+  H382  1  0.17135950  0.82771424  0.89960436  1
  H+  H383  1  0.16792269  0.31668047  0.94165712  1
  O2-  O384  1  0.08720178  0.15733561  0.15043351  1
  O2-  O385  1  0.09830607  0.17236354  0.47542354  1
  O2-  O386  1  0.07072793  0.14497077  0.81726056  1
  O2-  O387  1  0.07473114  0.40879045  0.14553928  1
  O2-  O388  1  0.07122252  0.42010207  0.48137870  1
  O2-  O389  1  0.10734850  0.43243047  0.80034643  1
  O2-  O390  1  0.09521721  0.65837644  0.12782912  1
  O2-  O391  1  0.07738412  0.66564336  0.47749664  1
  O2-  O392  1  0.09389106  0.66476471  0.79852143  1
  O2-  O393  1  0.08523736  0.89947538  0.14910948  1
  O2-  O394  1  0.08418104  0.93757560  0.42800692  1
  O2-  O395  1  0.08775197  0.91299322  0.81992015  1
  O2-  O396  1  0.33504856  0.19043705  0.15593366  1
  O2-  O397  1  0.32627433  0.17210028  0.47792880  1
  O2-  O398  1  0.32056781  0.19172898  0.80839640  1
  O2-  O399  1  0.31647985  0.40510244  0.14730269  1
  O2-  O400  1  0.31175718  0.42123173  0.48191854  1
  O2-  O401  1  0.26522415  0.43511340  0.79694479  1
  O2-  O402  1  0.32205981  0.66095334  0.14593338  1
  O2-  O403  1  0.31586834  0.65739034  0.47695565  1
  O2-  O404  1  0.34237859  0.66601282  0.81450270  1
  O2-  O405  1  0.32578722  0.89495224  0.12515925  1
  O2-  O406  1  0.31860139  0.90044095  0.47102670  1
  O2-  O407  1  0.33987402  0.91392411  0.81765966  1
  O2-  O408  1  0.59019787  0.17202222  0.14416323  1
  O2-  O409  1  0.55776940  0.16001939  0.48332223  1
  O2-  O410  1  0.58616050  0.15817524  0.82111361  1
  O2-  O411  1  0.58260466  0.41798801  0.14246640  1
  O2-  O412  1  0.56363358  0.41056072  0.47612176  1
  O2-  O413  1  0.59008674  0.41741827  0.82008860  1
  O2-  O414  1  0.58739817  0.65823955  0.15014803  1
  O2-  O415  1  0.60816362  0.73231500  0.44762681  1
  O2-  O416  1  0.62927523  0.68039578  0.80135315  1
  O2-  O417  1  0.58366711  0.91151454  0.15344576  1
  O2-  O418  1  0.57765831  0.91881366  0.48951295  1
  O2-  O419  1  0.58141519  0.90287605  0.81910133  1
  O2-  O420  1  0.83607838  0.15384086  0.13327467  1
  O2-  O421  1  0.85120709  0.17877560  0.45445277  1
  O2-  O422  1  0.81732701  0.13860492  0.81754545  1
  O2-  O423  1  0.83889206  0.42296467  0.14535244  1
  O2-  O424  1  0.80646892  0.40217880  0.47544016  1
  O2-  O425  1  0.84290688  0.43071422  0.82581869  1
  O2-  O426  1  0.84006130  0.67166814  0.14596021  1
  O2-  O427  1  0.78351895  0.66361985  0.47124969  1
  O2-  O428  1  0.83179123  0.65917260  0.82156616  1
  O2-  O429  1  0.83807307  0.88930886  0.17028162  1
  O2-  O430  1  0.84547241  0.92849923  0.53074446  1
  O2-  O431  1  0.82555759  0.90298059  0.82034890  1
  O2-  O432  1  0.16514184  0.07079978  0.19791752  1
  O2-  O433  1  0.16718801  0.07930419  0.51699212  1
  O2-  O434  1  0.16526423  0.07612383  0.86087992  1
  O2-  O435  1  0.15471614  0.32573868  0.18621415  1
  O2-  O436  1  0.15617690  0.33647830  0.52205117  1
  O2-  O437  1  0.18869703  0.29549642  0.86946269  1
  O2-  O438  1  0.16235437  0.58496336  0.18074542  1
  O2-  O439  1  0.15260947  0.58288512  0.52843283  1
  O2-  O440  1  0.18348288  0.58907794  0.85534587  1
  O2-  O441  1  0.17658138  0.81697323  0.17663906  1
  O2-  O442  1  0.16818949  0.82369077  0.53313025  1
  O2-  O443  1  0.17937601  0.83546290  0.85458314  1
  O2-  O444  1  0.42193060  0.11151976  0.18397819  1
  O2-  O445  1  0.41905559  0.03849963  0.54446004  1
  O2-  O446  1  0.42552412  0.06912025  0.86247723  1
  O2-  O447  1  0.42123736  0.34862688  0.18630632  1
  O2-  O448  1  0.40338431  0.34015482  0.52219762  1
  O2-  O449  1  0.35002311  0.32710041  0.89257598  1
  O2-  O450  1  0.38807913  0.57245101  0.18059216  1
  O2-  O451  1  0.50207133  0.58978559  0.52962375  1
  O2-  O452  1  0.40446871  0.56315111  0.86655660  1
  O2-  O453  1  0.41533291  0.82016519  0.18500796  1
  O2-  O454  1  0.40334576  0.81921456  0.51424908  1
  O2-  O455  1  0.41972277  0.82823399  0.85475001  1
  O2-  O456  1  0.67975276  0.08955306  0.18077012  1
  O2-  O457  1  0.63495623  0.08422248  0.53518643  1
  O2-  O458  1  0.66073624  0.06557771  0.85701963  1
  O2-  O459  1  0.66773547  0.34010221  0.18541739  1
  O2-  O460  1  0.63617373  0.32485050  0.51915417  1
  O2-  O461  1  0.66951486  0.32463450  0.85856372  1
  O2-  O462  1  0.67473739  0.57937414  0.18512043  1
  O2-  O463  1  0.63589417  0.56314143  0.53334122  1
  O2-  O464  1  0.66798799  0.57514434  0.85669929  1
  O2-  O465  1  0.66703645  0.82250669  0.20123648  1
  O2-  O466  1  0.67664607  0.85444214  0.53172161  1
  O2-  O467  1  0.66728892  0.82314633  0.87017393  1
  O2-  O468  1  0.92023239  0.06684772  0.18952603  1
  O2-  O469  1  0.93080549  0.09963104  0.50717760  1
  O2-  O470  1  0.91266717  0.06586593  0.86225678  1
  O2-  O471  1  0.92736304  0.36015860  0.18657516  1
  O2-  O472  1  0.90729062  0.33479492  0.52388778  1
  O2-  O473  1  0.95439625  0.36996493  0.85866418  1
  O2-  O474  1  0.92388492  0.58442184  0.17808889  1
  O2-  O475  1  0.93612191  0.65930849  0.51966626  1
  O2-  O476  1  0.90771371  0.58434086  0.86700566  1
  O2-  O477  1  0.88701992  0.84393349  0.17613331  1
  O2-  O478  1  0.92563635  0.84527902  0.48134037  1
  O2-  O479  1  0.91746103  0.82824888  0.85846472  1
  O2-  O480  1  0.14305172  0.04714101  0.33545930  1
  O2-  O481  1  0.17158221  0.06147943  0.63024322  1
  O2-  O482  1  0.17033205  0.07151954  0.98313984  1
  O2-  O483  1  0.15844984  0.34882517  0.30976603  1
  O2-  O484  1  0.16388558  0.31267198  0.63988566  1
  O2-  O485  1  0.16479649  0.32372456  0.98653585  1
  O2-  O486  1  0.15620409  0.56978652  0.30126762  1
  O2-  O487  1  0.17113779  0.62870348  0.64804872  1
  O2-  O488  1  0.16270723  0.57077447  0.97635848  1
  O2-  O489  1  0.11943806  0.82252664  0.32065223  1
  O2-  O490  1  0.14793401  0.80677753  0.69180751  1
  O2-  O491  1  0.16301930  0.82198668  0.97724897  1
  O2-  O492  1  0.39838106  0.08644320  0.31312683  1
  O2-  O493  1  0.39818854  0.07946329  0.66554767  1
  O2-  O494  1  0.41977458  0.07112426  0.97240870  1
  O2-  O495  1  0.40233706  0.33743843  0.31331680  1
  O2-  O496  1  0.41051486  0.33760200  0.64666828  1
  O2-  O497  1  0.41313691  0.32262265  1.00075583  1
  O2-  O498  1  0.39359427  0.57710623  0.30500683  1
  O2-  O499  1  0.41607991  0.57919612  0.63810228  1
  O2-  O500  1  0.41079190  0.58190017  0.98932353  1
  O2-  O501  1  0.41728352  0.87595257  0.30794411  1
  O2-  O502  1  0.42928901  0.89459493  0.62903038  1
  O2-  O503  1  0.42113875  0.83695151  0.97532187  1
  O2-  O504  1  0.66370824  0.09667198  0.34477035  1
  O2-  O505  1  0.64109392  0.06832304  0.66152469  1
  O2-  O506  1  0.67278893  0.09093949  0.98109194  1
  O2-  O507  1  0.64482245  0.32589168  0.30915257  1
  O2-  O508  1  0.66200188  0.30759158  0.64482191  1
  O2-  O509  1  0.67152481  0.33532985  0.98114236  1
  O2-  O510  1  0.65682559  0.57234282  0.30504367  1
  O2-  O511  1  0.66241758  0.57467097  0.65405443  1
  O2-  O512  1  0.68850845  0.61787327  0.97652777  1
  O2-  O513  1  0.64535588  0.81908403  0.34269100  1
  O2-  O514  1  0.65340046  0.82271341  0.64960239  1
  O2-  O515  1  0.70102993  0.77903778  0.98191614  1
  O2-  O516  1  0.96035327  0.11878644  0.31248716  1
  O2-  O517  1  0.92354326  0.13507547  0.62701142  1
  O2-  O518  1  0.92236382  0.07476426  0.98531964  1
  O2-  O519  1  0.92391431  0.35672084  0.30420192  1
  O2-  O520  1  0.90307896  0.33262210  0.64869193  1
  O2-  O521  1  0.92083762  0.33378960  0.98477638  1
  O2-  O522  1  0.96851439  0.57364116  0.29645340  1
  O2-  O523  1  0.94131399  0.62477561  0.63630339  1
  O2-  O524  1  0.92259984  0.58200380  0.98081475  1
  O2-  O525  1  0.92251084  0.82567026  0.30090096  1
  O2-  O526  1  0.90520087  0.82825480  0.66758101  1
  O2-  O527  1  0.92932803  0.82806638  0.98237209  1
  O2-  O528  1  0.09115707  0.16020343  0.02665295  1
  O2-  O529  1  0.12757571  0.19295210  0.35921052  1
  O2-  O530  1  0.06636447  0.14713459  0.69589171  1
  O2-  O531  1  0.08521010  0.40926310  0.02478054  1
  O2-  O532  1  0.07512084  0.42461276  0.35389714  1
  O2-  O533  1  0.06647758  0.44792641  0.68283035  1
  O2-  O534  1  0.07793874  0.65732126  0.01647084  1
  O2-  O535  1  0.11312326  0.69087677  0.35915879  1
  O2-  O536  1  0.12325404  0.74705240  0.64046275  1
  O2-  O537  1  0.08492936  0.90553576  0.01958124  1
  O2-  O538  1  0.04632424  0.81473994  0.35637467  1
  O2-  O539  1  0.07813496  0.91030499  0.69697610  1
  O2-  O540  1  0.34195998  0.14479493  0.00992535  1
  O2-  O541  1  0.31107363  0.16171783  0.35269936  1
  O2-  O542  1  0.31989498  0.17608652  0.68913394  1
  O2-  O543  1  0.32968167  0.41091768  0.02551072  1
  O2-  O544  1  0.32129793  0.42046927  0.35675128  1
  O2-  O545  1  0.32513944  0.41674964  0.68746708  1
  O2-  O546  1  0.30431495  0.69188102  0.03628412  1
  O2-  O547  1  0.32224497  0.66978279  0.35232874  1
  O2-  O548  1  0.34012759  0.66102257  0.68664741  1
  O2-  O549  1  0.33062420  0.91442380  0.01094171  1
  O2-  O550  1  0.29988352  0.91466349  0.34956631  1
  O2-  O551  1  0.31586453  0.91223498  0.69785572  1
  O2-  O552  1  0.58729707  0.17095621  0.01809859  1
  O2-  O553  1  0.56144568  0.16422556  0.36043621  1
  O2-  O554  1  0.56503199  0.15702987  0.69892461  1
  O2-  O555  1  0.58765691  0.41865030  0.02275904  1
  O2-  O556  1  0.56836792  0.41227183  0.35140695  1
  O2-  O557  1  0.57701177  0.41104076  0.69194712  1
  O2-  O558  1  0.56506194  0.64896950  0.03679764  1
  O2-  O559  1  0.56261070  0.64328198  0.31183443  1
  O2-  O560  1  0.57228945  0.65468036  0.68337844  1
  O2-  O561  1  0.54541673  0.95074547  0.04111686  1
  O2-  O562  1  0.57558541  0.91984091  0.36668551  1
  O2-  O563  1  0.56720420  0.89800356  0.69447814  1
  O2-  O564  1  0.84060765  0.16774710  0.01601620  1
  O2-  O565  1  0.85429287  0.18970996  0.33534806  1
  O2-  O566  1  0.81053546  0.16118581  0.69351718  1
  O2-  O567  1  0.83599994  0.41667201  0.02290317  1
  O2-  O568  1  0.79154535  0.34730811  0.36572062  1
  O2-  O569  1  0.82589101  0.41456018  0.70839147  1
  O2-  O570  1  0.84283127  0.66414413  0.02369991  1
  O2-  O571  1  0.80763465  0.68008093  0.34957822  1
  O2-  O572  1  0.82589564  0.65963854  0.70111736  1
  O2-  O573  1  0.80575061  0.91494954  0.05098176  1
  O2-  O574  1  0.82753608  0.90128552  0.35156744  1
  O2-  O575  1  0.81903652  0.90274283  0.69491005  1
