# generated using pymatgen
data_H2O
_symmetry_space_group_name_H-M   'P 1'
_cell_length_a   17.98354237
_cell_length_b   17.97943305
_cell_length_c   21.99411598
_cell_angle_alpha   89.99559792
_cell_angle_beta   90.00558982
_cell_angle_gamma   119.98536806
_symmetry_Int_Tables_number   1
_chemical_formula_structural   H2O
_chemical_formula_sum   'H384 O192'
_cell_volume   6159.59828805
_cell_formula_units_Z   192
loop_
 _symmetry_equiv_pos_site_id
 _symmetry_equiv_pos_as_xyz
  1  'x, y, z'
loop_
 _atom_type_symbol
 _atom_type_oxidation_number
  H+  1.0
  O2-  -2.0
loop_
 _atom_site_type_symbol
 _atom_site_label
 _atom_site_symmetry_multiplicity
 _atom_site_fract_x
 _atom_site_fract_y
 _atom_site_fract_z
 _atom_site_occupancy
  H+  H0  1  0.63661095  0.77332225  0.17134812  1
  H+  H1  1  0.18446387  0.30678905  0.65610433  1
  H+  H2  1  0.72601917  0.60777380  0.31983652  1
  H+  H3  1  0.37405011  0.26490413  0.99002700  1
  H+  H4  1  0.12330155  0.96235021  0.15852343  1
  H+  H5  1  0.11198857  0.13553083  0.49066580  1
  H+  H6  1  0.76685949  0.63440946  0.16077422  1
  H+  H7  1  -0.00708441  0.11879411  0.17429130  1
  H+  H8  1  0.14062181  0.27710286  0.32532883  1
  H+  H9  1  0.45923299  0.37897145  0.66300404  1
  H+  H10  1  0.38276520  0.00707081  0.66000491  1
  H+  H11  1  0.52325239  0.64194257  0.49188598  1
  H+  H12  1  0.77700290  0.40077414  0.66222650  1
  H+  H13  1  0.85995050  0.62850424  0.84837092  1
  H+  H14  1  0.27790974  0.05106833  0.03941265  1
  H+  H15  1  0.85686122  0.96365017  0.35093742  1
  H+  H16  1  0.71187230  0.85285407  0.83908429  1
  H+  H17  1  0.15323336  0.15620135  0.65905010  1
  H+  H18  1  0.74066478  0.62408580  0.65347622  1
  H+  H19  1  0.72517941  0.12284228  0.33309452  1
  H+  H20  1  0.36506039  0.73033635  0.00951034  1
  H+  H21  1  1.02570796  0.41719962  0.16083159  1
  H+  H22  1  0.83687310  0.35629618  0.43760946  1
  H+  H23  1  0.53884063  0.14786967  -0.02286617  1
  H+  H24  1  0.59419399  -0.03844643  0.83136438  1
  H+  H25  1  0.11938056  0.39208672  0.33395666  1
  H+  H26  1  0.61809326  0.48168755  0.33285505  1
  H+  H27  1  0.85031569  0.09210729  0.31174649  1
  H+  H28  1  0.76403739  0.12555961  0.49346221  1
  H+  H29  1  0.62306384  0.20533050  0.66417380  1
  H+  H30  1  -0.00798097  0.62855519  0.85304591  1
  H+  H31  1  0.61041728  0.47465129  0.15848213  1
  H+  H32  1  0.37178155  0.62562003  0.77895522  1
  H+  H33  1  0.86462338  -0.02792090  0.15321257  1
  H+  H34  1  0.81250145  0.49200332  0.69211392  1
  H+  H35  1  0.29409749  0.13859225  0.80324114  1
  H+  H36  1  0.88082913  0.85813291  0.67747803  1
  H+  H37  1  0.85249780  0.14625114  0.63018358  1
  H+  H38  1  0.63851401  0.62149373  0.50381702  1
  H+  H39  1  0.35680783  0.87917927  0.49117789  1
  H+  H40  1  0.62543502  0.11138670  0.19581183  1
  H+  H41  1  0.80197613  0.65092650  -0.00878342  1
  H+  H42  1  0.35864153  0.21822803  0.48864085  1
  H+  H43  1  0.48303184  0.86981200  0.00678285  1
  H+  H44  1  0.22288812  0.86414733  0.50327185  1
  H+  H45  1  0.11423574  0.64173631  0.82188966  1
  H+  H46  1  0.51004355  0.37115531  1.00556270  1
  H+  H47  1  0.73712057  0.32971869  0.49832008  1
  H+  H48  1  0.39193784  0.64027469  0.17111480  1
  H+  H49  1  1.02116141  0.11047779  0.62912804  1
  H+  H50  1  0.61092883  0.50317780  0.00272567  1
  H+  H51  1  0.35764775  0.12867216  0.48920775  1
  H+  H52  1  0.59025686  0.62715178  0.00388360  1
  H+  H53  1  0.14442811  0.86669547  -0.01283762  1
  H+  H54  1  0.85744972  0.96580561  0.50086873  1
  H+  H55  1  0.45420724  0.84741063  0.85687907  1
  H+  H56  1  0.13085714  0.62086990  0.49366158  1
  H+  H57  1  0.90952961  0.07551158  0.22086461  1
  H+  H58  1  0.61145448  0.13648067  0.33369948  1
  H+  H59  1  0.88989102  0.28600419  0.00379331  1
  H+  H60  1  0.09665833  0.13406991  0.83964656  1
  H+  H61  1  0.63882958  0.32682018  0.64249719  1
  H+  H62  1  0.90715468  0.37125911  0.55089752  1
  H+  H63  1  0.33186802  0.46322176  0.65171033  1
  H+  H64  1  0.17036367  0.83958058  0.59978548  1
  H+  H65  1  0.14505478  0.63003073  0.99158962  1
  H+  H66  1  0.36712228  0.38502635  0.32963450  1
  H+  H67  1  0.63735538  0.36407501  0.17805607  1
  H+  H68  1  0.78235753  0.65273400  0.48463367  1
  H+  H69  1  0.13179176  0.86208169  0.50398125  1
  H+  H70  1  0.90233276  0.57103819  0.24122740  1
  H+  H71  1  0.63175944  0.00414705  0.51502266  1
  H+  H72  1  0.88498155  0.10979104  0.50630309  1
  H+  H73  1  0.89088306  0.15592106  0.16466815  1
  H+  H74  1  0.41553656  0.58693890  0.39775218  1
  H+  H75  1  0.59341319  0.87201019  0.83036091  1
  H+  H76  1  0.13257856  0.85914896  0.31861896  1
  H+  H77  1  0.52275918  0.13326141  0.19068593  1
  H+  H78  1  0.72643402  0.36307218  0.18004704  1
  H+  H79  1  0.70006879  0.10529544  0.16179824  1
  H+  H80  1  0.87356156  0.73117396  0.66347876  1
  H+  H81  1  0.17223343  0.07495408  0.23317557  1
  H+  H82  1  0.82815619  0.09951670  0.63844116  1
  H+  H83  1  0.84691160  0.94808065  0.86207152  1
  H+  H84  1  0.36884702  0.38814854  0.48435647  1
  H+  H85  1  0.24457043  0.86543374  0.83457380  1
  H+  H86  1  0.93955885  0.06286228  0.67006245  1
  H+  H87  1  0.89327362  0.25949954  0.86085145  1
  H+  H88  1  0.63646476  0.77904080  0.62188944  1
  H+  H89  1  0.39451880  -0.00005326  1.00562401  1
  H+  H90  1  0.89551402  0.01066515  0.77624460  1
  H+  H91  1  0.22157398  0.11555491  1.00348077  1
  H+  H92  1  0.59999533  0.71800288  0.82366699  1
  H+  H93  1  0.11923723  0.73595774  0.49152849  1
  H+  H94  1  0.92458932  0.53556164  0.87600252  1
  H+  H95  1  0.11399751  0.98492177  0.00678148  1
  H+  H96  1  0.86460471  0.22734805  0.33658877  1
  H+  H97  1  0.76978633  0.62661497  0.84409696  1
  H+  H98  1  0.10500169  0.96767950  0.48962093  1
  H+  H99  1  0.59104594  0.41460008  0.68002629  1
  H+  H100  1  0.49431247  0.60023445  0.64314545  1
  H+  H101  1  0.27120876  0.88471291  0.67460785  1
  H+  H102  1  0.38023228  0.13372085  0.66062802  1
  H+  H103  1  0.61154052  0.39243241  0.82343565  1
  H+  H104  1  0.47553210  0.36362436  0.84432729  1
  H+  H105  1  0.36650454  0.13332802  0.33308875  1
  H+  H106  1  0.63724719  0.36093187  0.33252769  1
  H+  H107  1  0.14795155  0.10841328  0.17381431  1
  H+  H108  1  0.77413445  0.40202897  1.00926336  1
  H+  H109  1  0.58885037  0.91723257  0.06981791  1
  H+  H110  1  1.01467923  0.87842431  0.48612644  1
  H+  H111  1  0.24397885  0.11561003  0.65086058  1
  H+  H112  1  0.38262947  0.51866720  0.49139524  1
  H+  H113  1  0.88437029  0.64928324  0.01329069  1
  H+  H114  1  0.88604907  0.77469067  0.16303837  1
  H+  H115  1  0.64674200  0.28614873  -0.01905669  1
  H+  H116  1  0.14743900  0.37239210  0.17548275  1
  H+  H117  1  0.70821534  0.08211265  0.82340508  1
  H+  H118  1  0.91991554  0.41456872  0.65099683  1
  H+  H119  1  0.62973879  0.76956053  0.99033447  1
  H+  H120  1  0.41395876  0.84045763  0.95135536  1
  H+  H121  1  0.27439700  0.65420152  0.15844944  1
  H+  H122  1  0.47462818  0.60183583  0.82996368  1
  H+  H123  1  0.38358135  0.93559183  0.16526981  1
  H+  H124  1  0.86561983  0.14585217  0.02579321  1
  H+  H125  1  0.58075086  0.90530752  0.44524990  1
  H+  H126  1  0.39501270  0.27084273  0.83707483  1
  H+  H127  1  0.60914371  0.87546045  0.50617589  1
  H+  H128  1  0.10924777  0.72612195  0.33335572  1
  H+  H129  1  0.87255652  0.74919082  0.48095246  1
  H+  H130  1  0.81835967  0.16797749  0.19372628  1
  H+  H131  1  0.36115837  0.36724201  0.14957906  1
  H+  H132  1  0.89333577  0.77465218  0.32613737  1
  H+  H133  1  0.11935054  0.40283596  0.01385215  1
  H+  H134  1  0.02748370  0.64976584  0.48398511  1
  H+  H135  1  0.27810996  0.37684194  0.15401817  1
  H+  H136  1  0.65908235  0.58062294  0.22767493  1
  H+  H137  1  0.86036637  0.87515190  0.49842326  1
  H+  H138  1  0.36996830  0.21393904  0.16183408  1
  H+  H139  1  0.60980444  0.22477236  0.19856121  1
  H+  H140  1  0.04049416  0.39515142  0.81312654  1
  H+  H141  1  0.65408699  0.82471452  0.89841569  1
  H+  H142  1  0.82749043  0.90956563  0.06228166  1
  H+  H143  1  0.15272044  0.86120483  0.84306553  1
  H+  H144  1  0.62994061  0.09183242  0.52373158  1
  H+  H145  1  0.89012709  0.54852761  0.48131431  1
  H+  H146  1  0.12593219  0.23105334  0.16886410  1
  H+  H147  1  0.37600755  0.60974221  0.98210892  1
  H+  H148  1  0.73182003  0.11374795  -0.00596120  1
  H+  H149  1  0.82922554  0.66851947  0.39111652  1
  H+  H150  1  0.35437922  0.63806306  0.34262247  1
  H+  H151  1  0.27700080  0.12579761  0.16613792  1
  H+  H152  1  0.38531042  0.01442258  0.32543633  1
  H+  H153  1  0.62661280  0.14632318  -0.01770948  1
  H+  H154  1  0.13828517  0.02022778  0.32537064  1
  H+  H155  1  0.22814614  0.10886282  0.32375163  1
  H+  H156  1  0.36552096  0.49870504  0.81875840  1
  H+  H157  1  0.30916297  0.42880614  0.75185129  1
  H+  H158  1  0.13903096  0.13068378  1.00550350  1
  H+  H159  1  0.46948759  0.85076204  0.51639902  1
  H+  H160  1  0.25629571  0.64229910  0.71295981  1
  H+  H161  1  0.87721206  0.64713479  0.64825296  1
  H+  H162  1  0.03405546  0.64945621  0.66514255  1
  H+  H163  1  1.02520337  0.88507891  0.33690099  1
  H+  H164  1  0.22095581  0.10616020  0.49753181  1
  H+  H165  1  0.98912582  0.38552566  0.64898537  1
  H+  H166  1  0.97677256  0.86137868  0.15754488  1
  H+  H167  1  0.15379463  0.54435345  0.66501197  1
  H+  H168  1  0.88603188  0.51466620  0.34106563  1
  H+  H169  1  0.85839668  0.29372588  0.68906214  1
  H+  H170  1  0.58062995  0.15504651  0.76852326  1
  H+  H171  1  0.64671313  0.53670573  0.50138801  1
  H+  H172  1  0.38664561  0.78164321  0.33119116  1
  H+  H173  1  0.91731471  0.08097196  1.08194246  1
  H+  H174  1  0.60953411  0.50902420  0.67364338  1
  H+  H175  1  0.88847566  0.63777169  0.48629705  1
  H+  H176  1  0.68389024  0.59357914  1.02561271  1
  H+  H177  1  0.85774471  0.62968745  0.33690226  1
  H+  H178  1  0.85637684  0.47649761  0.17102970  1
  H+  H179  1  0.60643105  0.22868976  0.33242943  1
  H+  H180  1  0.40135172  0.06539620  0.56277964  1
  H+  H181  1  0.22870535  0.62256718  0.82604428  1
  H+  H182  1  0.12683170  0.48667293  0.81927729  1
  H+  H183  1  0.73186554  0.87970104  0.32597329  1
  H+  H184  1  0.14054208  0.78240607  0.66033880  1
  H+  H185  1  0.86367377  0.37519137  0.34334227  1
  H+  H186  1  0.11566745  0.48042247  0.32903456  1
  H+  H187  1  0.14971824  1.03138132  0.65739514  1
  H+  H188  1  0.32519958  0.13495090  0.07818810  1
  H+  H189  1  0.13205032  0.40715743  0.66032368  1
  H+  H190  1  0.02546151  0.13955746  0.48922801  1
  H+  H191  1  0.00954931  0.41561929  0.47519350  1
  H+  H192  1  0.97280465  0.60540761  0.33358818  1
  H+  H193  1  0.37708959  1.01193887  0.50054272  1
  H+  H194  1  0.14790656  0.64787776  0.17278902  1
  H+  H195  1  0.37858339  0.08931538  0.16750964  1
  H+  H196  1  0.67630787  0.07549032  0.93258381  1
  H+  H197  1  0.39453797  0.10591649  0.83331691  1
  H+  H198  1  0.11864193  0.52204417  0.16227268  1
  H+  H199  1  0.50690264  0.63550214  -0.00197977  1
  H+  H200  1  0.75796525  0.86597276  0.66345875  1
  H+  H201  1  0.14928671  0.27594211  0.50353497  1
  H+  H202  1  0.62932580  0.61168589  0.16837908  1
  H+  H203  1  0.90810063  0.54047318  0.63127559  1
  H+  H204  1  0.60887071  -0.01902023  0.35678708  1
  H+  H205  1  0.60150349  0.42258744  0.55053502  1
  H+  H206  1  0.12653234  0.90320790  0.67165111  1
  H+  H207  1  0.89203099  0.86043289  0.33809487  1
  H+  H208  1  0.39243780  0.90275167  1.02148746  1
  H+  H209  1  0.39100667  0.10632936  -0.01380916  1
  H+  H210  1  0.36128963  0.35239979  0.65522771  1
  H+  H211  1  1.02823862  0.40043140  1.01629375  1
  H+  H212  1  0.38798953  0.00996416  0.83144197  1
  H+  H213  1  0.77365082  0.37208921  0.35172719  1
  H+  H214  1  1.01690160  0.85900112  0.83799301  1
  H+  H215  1  0.47416888  0.35334960  0.50843287  1
  H+  H216  1  0.47583368  0.09219062  0.65590321  1
  H+  H217  1  0.17592103  0.07814284  0.85321276  1
  H+  H218  1  0.60650749  0.63315832  0.82557447  1
  H+  H219  1  0.37705342  0.80256556  0.16028223  1
  H+  H220  1  0.53295301  0.63628225  0.34712479  1
  H+  H221  1  0.12196866  0.14626057  0.33589386  1
  H+  H222  1  0.72597266  0.86174581  0.16786461  1
  H+  H223  1  0.89854916  0.78455994  0.99620506  1
  H+  H224  1  0.58494373  -0.05207903  0.67959498  1
  H+  H225  1  0.71723920  0.35262729  0.83009286  1
  H+  H226  1  0.63283301  0.10115451  0.83958610  1
  H+  H227  1  0.92484481  0.27398034  0.83496612  1
  H+  H228  1  0.87404093  0.75704789  0.84341321  1
  H+  H229  1  0.36281172  0.88701772  0.34021691  1
  H+  H230  1  0.60798597  -0.02929230  0.16583925  1
  H+  H231  1  0.61034510  0.88273252  0.16276098  1
  H+  H232  1  1.02957145  0.89349626  1.00298934  1
  H+  H233  1  0.14424584  0.37173489  0.83844702  1
  H+  H234  1  0.99512105  0.46262915  0.87814067  1
  H+  H235  1  0.37971351  0.22521194  0.66129268  1
  H+  H236  1  0.52105850  0.12559222  0.82777817  1
  H+  H237  1  0.11861464  0.51685646  0.48473728  1
  H+  H238  1  0.62826216  0.65444818  0.66505543  1
  H+  H239  1  0.10903342  0.81921259  0.16056295  1
  H+  H240  1  0.27222526  0.88592091  0.33449732  1
  H+  H241  1  0.61881462  0.97595421  0.00899572  1
  H+  H242  1  0.04249073  0.65444583  0.02310431  1
  H+  H243  1  0.83466562  0.42071627  0.76697919  1
  H+  H244  1  0.88575601  0.02580896  1.02253445  1
  H+  H245  1  0.35256934  0.72026467  0.49592003  1
  H+  H246  1  0.22194827  0.61832315  0.32019001  1
  H+  H247  1  0.09137531  0.94878121  0.85576944  1
  H+  H248  1  1.02877214  0.15157562  1.02368174  1
  H+  H249  1  0.86447051  0.88249588  0.14968091  1
  H+  H250  1  0.61283111  0.11082543  0.67149895  1
  H+  H251  1  0.97278711  0.10613329  0.77797947  1
  H+  H252  1  0.22000781  0.61267986  0.49426102  1
  H+  H253  1  0.89754573  0.40942057  0.85457545  1
  H+  H254  1  0.61298170  0.72834586  0.50550217  1
  H+  H255  1  0.87535075  0.60332202  0.18172414  1
  H+  H256  1  0.13983603  0.53876861  0.98986924  1
  H+  H257  1  0.13002626  0.74312603  0.00862857  1
  H+  H258  1  0.36600574  0.76296560  0.69092879  1
  H+  H259  1  0.73544773  0.86130502  0.52563234  1
  H+  H260  1  0.36963192  0.85298407  0.67480757  1
  H+  H261  1  0.47816460  0.85747868  0.68427467  1
  H+  H262  1  0.77178588  0.88611796  0.00094360  1
  H+  H263  1  0.63723910  0.60840815  0.32529328  1
  H+  H264  1  0.86038507  0.39786890  0.01929933  1
  H+  H265  1  0.17939575  0.59542115  0.89155212  1
  H+  H266  1  0.40289277  0.92082124  0.80026610  1
  H+  H267  1  0.22926753  0.37431315  0.99764895  1
  H+  H268  1  0.82566869  0.08857311  0.76174607  1
  H+  H269  1  0.98201820  0.36503362  0.32363270  1
  H+  H270  1  0.39153947  0.27123544  0.32259044  1
  H+  H271  1  0.57162983  0.15247655  0.56988410  1
  H+  H272  1  0.11614563  0.24333177  0.01168300  1
  H+  H273  1  0.63489247  0.86077475  0.99330325  1
  H+  H274  1  0.04140610  0.90725343  0.68285031  1
  H+  H275  1  0.47880893  0.35153931  0.16927353  1
  H+  H276  1  0.14942181  0.63100225  0.67068128  1
  H+  H277  1  0.36571454  0.84571110  0.86110000  1
  H+  H278  1  0.47962815  0.36190010  0.32158926  1
  H+  H279  1  0.89837856  0.53812755  1.01042780  1
  H+  H280  1  0.37664147  0.52060947  -0.01599079  1
  H+  H281  1  0.35125546  0.63075435  0.48943175  1
  H+  H282  1  0.89282588  0.38136297  0.17122090  1
  H+  H283  1  0.26494775  0.39426442  0.81950466  1
  H+  H284  1  0.14131483  0.28170100  0.84378187  1
  H+  H285  1  0.41868649  0.57706716  0.54968746  1
  H+  H286  1  0.12641555  0.72101260  0.10529819  1
  H+  H287  1  0.52196581  0.64634050  0.15835473  1
  H+  H288  1  0.35708768  0.38541271  0.99830735  1
  H+  H289  1  0.63887305  0.25656776  0.50758858  1
  H+  H290  1  0.27445785  0.64465663  0.00153443  1
  H+  H291  1  0.40845662  0.32934452  0.56309287  1
  H+  H292  1  0.14923619  0.81478653  0.26055574  1
  H+  H293  1  0.16787187  0.34705957  0.93980139  1
  H+  H294  1  0.09358780  0.17700487  0.39465268  1
  H+  H295  1  0.07603880  0.42896214  0.42028807  1
  H+  H296  1  0.09156357  0.44834937  0.09967905  1
  H+  H297  1  0.08072153  0.67528654  0.73137921  1
  H+  H298  1  0.40638440  0.57312037  0.88810736  1
  H+  H299  1  0.41791660  0.32220559  0.22759902  1
  H+  H300  1  0.93610293  0.60326314  0.57422651  1
  H+  H301  1  0.89170063  0.86994874  0.99216357  1
  H+  H302  1  0.90973421  0.30015821  0.17036266  1
  H+  H303  1  0.75867798  0.23825378  0.70048305  1
  H+  H304  1  0.13150993  0.61633989  0.32276349  1
  H+  H305  1  0.67606016  0.59625721  0.59663872  1
  H+  H306  1  0.41152770  0.06437193  0.26186113  1
  H+  H307  1  0.61948165  0.90124159  0.34531337  1
  H+  H308  1  0.38590218  0.52078254  0.34455013  1
  H+  H309  1  0.51083483  0.12002009  0.51423053  1
  H+  H310  1  0.36047941  0.17102262  0.75080868  1
  H+  H311  1  0.58464534  0.42605248  0.39376409  1
  H+  H312  1  0.08771255  0.91270971  0.39418299  1
  H+  H313  1  0.63071417  0.52529929  0.84922873  1
  H+  H314  1  0.68634751  0.31705983  0.58583170  1
  H+  H315  1  0.92065636  0.36405218  0.95449533  1
  H+  H316  1  0.33553852  0.40874237  0.39114365  1
  H+  H317  1  0.12425252  0.73455663  0.82528035  1
  H+  H318  1  0.23010563  0.36685238  0.32309632  1
  H+  H319  1  0.19141501  0.34314769  0.55843614  1
  H+  H320  1  0.66807647  0.33369226  0.27287667  1
  H+  H321  1  0.16872693  0.08106920  0.55954538  1
  H+  H322  1  0.14071116  0.07995871  0.91826940  1
  H+  H323  1  0.82544981  0.90630954  0.41129073  1
  H+  H324  1  0.91065244  0.82634908  0.89804645  1
  H+  H325  1  0.33313731  0.91783557  0.73741899  1
  H+  H326  1  0.41962840  0.60579037  0.22791768  1
  H+  H327  1  0.47250679  0.87942815  0.16156199  1
  H+  H328  1  0.37329971  0.96068872  0.07848810  1
  H+  H329  1  0.60506134  0.38089968  0.00326578  1
  H+  H330  1  0.83378854  0.22221266  0.48294512  1
  H+  H331  1  0.58530643  0.67832730  0.71865723  1
  H+  H332  1  0.62836434  0.38034491  0.50075367  1
  H+  H333  1  0.82699931  0.42050780  0.10889541  1
  H+  H334  1  0.10004234  0.17759288  0.10778863  1
  H+  H335  1  0.92330373  0.34268695  0.26491532  1
  H+  H336  1  0.67355685  0.35431742  0.92952963  1
  H+  H337  1  0.78809164  0.88652925  0.73233873  1
  H+  H338  1  0.51342297  0.12926956  0.32682627  1
  H+  H339  1  0.94111476  0.88566723  0.62146132  1
  H+  H340  1  0.83108707  0.66304502  0.10433658  1
  H+  H341  1  0.17906197  0.83376107  0.93244366  1
  H+  H342  1  0.90391015  0.08039194  0.89931094  1
  H+  H343  1  0.32879144  0.90992519  0.43018349  1
  H+  H344  1  0.85883215  0.87382676  0.83333994  1
  H+  H345  1  0.09218490  0.17798111  0.70126872  1
  H+  H346  1  0.57667542  0.66929588  0.09741368  1
  H+  H347  1  0.47538830  0.86874670  0.34042365  1
  H+  H348  1  0.09641040  0.42604527  0.72016611  1
  H+  H349  1  0.91255697  0.81555040  0.54717171  1
  H+  H350  1  0.33053305  0.67621926  0.09830051  1
  H+  H351  1  0.83085698  0.16522783  0.39554726  1
  H+  H352  1  0.40935594  0.32149740  0.92905131  1
  H+  H353  1  0.16077741  0.59857562  0.23220290  1
  H+  H354  1  0.41659697  0.07480473  0.92313300  1
  H+  H355  1  0.09396666  0.91268719  0.09523952  1
  H+  H356  1  0.27809889  0.38481870  0.48419276  1
  H+  H357  1  0.33721151  0.16292496  0.39287751  1
  H+  H358  1  0.70659764  0.06345701  0.67725423  1
  H+  H359  1  0.79342097  -0.00155508  0.28513383  1
  H+  H360  1  0.31982572  0.66908586  0.39642081  1
  H+  H361  1  0.57840223  0.43545567  0.77339767  1
  H+  H362  1  0.81766104  0.32886542  0.77702265  1
  H+  H363  1  0.93306779  0.06219835  0.90490963  1
  H+  H364  1  0.67983609  0.86221312  0.26244418  1
  H+  H365  1  0.83052557  0.18235553  0.07469792  1
  H+  H366  1  0.80220164  0.16115992  0.74897204  1
  H+  H367  1  0.92355832  0.07720426  0.55992092  1
  H+  H368  1  0.53867624  0.14553122  0.08872095  1
  H+  H369  1  0.13657323  0.18862512  0.78190149  1
  H+  H370  1  0.08777598  0.67283009  0.39546654  1
  H+  H371  1  0.59955223  0.67100394  0.40007287  1
  H+  H372  1  0.66449728  0.08248201  0.27530663  1
  H+  H373  1  0.58103863  0.41043750  0.10106760  1
  H+  H374  1  0.66464916  0.05163155  0.60895456  1
  H+  H375  1  0.55353762  0.89592736  0.74611779  1
  H+  H376  1  0.62658995  0.26979010  0.83696230  1
  H+  H377  1  0.53472569  0.18526022  0.08881624  1
  H+  H378  1  0.33331780  0.41247653  0.06130871  1
  H+  H379  1  0.93899975  0.60147508  0.95310507  1
  H+  H380  1  0.65454979  0.58360208  0.90850413  1
  H+  H381  1  0.47508529  0.51941677  0.60527979  1
  H+  H382  1  0.17196891  0.34029999  0.23605348  1
  H+  H383  1  0.40422503  0.81843995  0.57257060  1
  O2-  O384  1  0.09725508  0.17088222  0.15291125  1
  O2-  O385  1  0.08700545  0.17135548  0.47693959  1
  O2-  O386  1  0.09118464  0.17560297  0.81155906  1
  O2-  O387  1  0.08897277  0.45383674  0.14619317  1
  O2-  O388  1  0.07062087  0.43705764  0.46519765  1
  O2-  O389  1  0.10115724  0.42661537  0.80199614  1
  O2-  O390  1  0.15503487  0.73939089  0.14654062  1
  O2-  O391  1  0.08995292  0.67562848  0.47393191  1
  O2-  O392  1  0.08419240  0.67342458  0.81105497  1
  O2-  O393  1  0.09233081  0.90408741  0.14026859  1
  O2-  O394  1  0.07835295  0.90735329  0.47492454  1
  O2-  O395  1  0.08043660  0.89437479  0.83785233  1
  O2-  O396  1  0.33729233  0.15148693  0.14905360  1
  O2-  O397  1  0.32913858  0.15924478  0.47146726  1
  O2-  O398  1  0.35582255  0.16949906  0.79678927  1
  O2-  O399  1  0.33292254  0.39767530  0.13215822  1
  O2-  O400  1  0.33975214  0.41828129  0.46756011  1
  O2-  O401  1  0.32068666  0.43039169  0.79639318  1
  O2-  O402  1  0.33393143  0.68582688  0.14318496  1
  O2-  O403  1  0.32065722  0.66192580  0.47671324  1
  O2-  O404  1  0.34990954  0.62354013  0.73766709  1
  O2-  O405  1  0.35870958  0.97334621  0.15038487  1
  O2-  O406  1  0.32824846  0.91059191  0.47602300  1
  O2-  O407  1  0.35199449  0.92654379  0.80481098  1
  O2-  O408  1  0.58016971  0.16255455  0.20955149  1
  O2-  O409  1  0.57422898  0.15037494  0.52552247  1
  O2-  O410  1  0.58292276  0.15883225  0.81329121  1
  O2-  O411  1  0.58390518  0.41266832  0.14637541  1
  O2-  O412  1  0.59608179  0.41159959  0.50681093  1
  O2-  O413  1  0.58188630  0.42647474  0.81745260  1
  O2-  O414  1  0.58237787  0.67016533  0.14238087  1
  O2-  O415  1  0.58619216  0.67211892  0.48396601  1
  O2-  O416  1  0.57307786  0.65833633  0.80700834  1
  O2-  O417  1  0.58098984  0.91345733  0.14606603  1
  O2-  O418  1  0.57633795  0.90262663  0.49097226  1
  O2-  O419  1  0.56016067  0.90028836  0.81689398  1
  O2-  O420  1  0.85817962  0.18805943  0.15942213  1
  O2-  O421  1  0.82184458  0.16318339  0.47522768  1
  O2-  O422  1  0.77683434  0.09940158  0.75882853  1
  O2-  O423  1  0.82935446  0.41462949  0.15394978  1
  O2-  O424  1  0.83039836  0.32912436  0.47961644  1
  O2-  O425  1  0.82288580  0.37922187  0.80004390  1
  O2-  O426  1  0.82884356  0.66211576  0.14920085  1
  O2-  O427  1  0.84035468  0.68116029  0.46627297  1
  O2-  O428  1  0.83025169  0.65664609  0.83011894  1
  O2-  O429  1  0.83050982  0.91287263  0.13778236  1
  O2-  O430  1  0.82235306  0.90348394  0.49092367  1
  O2-  O431  1  0.83232043  0.91230593  0.82566318  1
  O2-  O432  1  0.17613157  0.07569381  0.18728590  1
  O2-  O433  1  0.16162104  0.07745998  0.51444571  1
  O2-  O434  1  0.12359856  0.06781865  0.87360333  1
  O2-  O435  1  0.17213719  0.33797170  0.18978162  1
  O2-  O436  1  0.18738653  0.33783496  0.51400340  1
  O2-  O437  1  0.17469762  0.34313759  0.85628725  1
  O2-  O438  1  0.15998272  0.60078055  0.18570007  1
  O2-  O439  1  0.15641987  0.58267743  0.50487821  1
  O2-  O440  1  0.17278261  0.58723180  0.84626780  1
  O2-  O441  1  0.10346356  0.76727608  0.18216157  1
  O2-  O442  1  0.16348091  0.83287908  0.52024813  1
  O2-  O443  1  0.18588955  0.83113181  0.85205173  1
  O2-  O444  1  0.40997757  0.05780452  0.18003481  1
  O2-  O445  1  0.40569335  0.07211196  0.51755102  1
  O2-  O446  1  0.42005959  0.07342893  0.85158664  1
  O2-  O447  1  0.41742863  0.31610200  0.18236193  1
  O2-  O448  1  0.41249598  0.32704691  0.51798671  1
  O2-  O449  1  0.41540625  0.32619736  0.85820997  1
  O2-  O450  1  0.42406865  0.61087583  0.18392108  1
  O2-  O451  1  0.41055362  0.58082244  0.50509465  1
  O2-  O452  1  0.41113627  0.57069829  0.84221026  1
  O2-  O453  1  0.41204811  0.86520184  0.16678822  1
  O2-  O454  1  0.40724033  0.82160999  0.52782003  1
  O2-  O455  1  0.39916011  0.82166562  0.87941415  1
  O2-  O456  1  0.65800923  0.07769407  0.19409682  1
  O2-  O457  1  0.66470436  0.06403068  0.53256348  1
  O2-  O458  1  0.65938942  0.06599201  0.85193879  1
  O2-  O459  1  0.66669017  0.33507835  0.19729721  1
  O2-  O460  1  0.68004051  0.31953809  0.51308318  1
  O2-  O461  1  0.65866338  0.33264188  0.84590964  1
  O2-  O462  1  0.65912947  0.58011842  0.18213057  1
  O2-  O463  1  0.67370618  0.59524851  0.51787162  1
  O2-  O464  1  0.65893332  0.58631787  0.86370878  1
  O2-  O465  1  0.66701757  0.83448237  0.18567305  1
  O2-  O466  1  0.67119048  0.82978302  0.54009612  1
  O2-  O467  1  0.65117884  0.82339067  0.85256792  1
  O2-  O468  1  0.92833268  0.09014512  0.17719931  1
  O2-  O469  1  0.91573863  0.07836197  0.51502411  1
  O2-  O470  1  0.91887633  0.06748144  0.75639004  1
  O2-  O471  1  0.93451656  0.36067790  0.18429306  1
  O2-  O472  1  0.90894726  0.39574691  0.50989831  1
  O2-  O473  1  0.93542090  0.43410100  0.89129861  1
  O2-  O474  1  0.90014486  0.56795231  0.19619630  1
  O2-  O475  1  0.92131718  0.60558564  0.49931047  1
  O2-  O476  1  0.93695524  0.59540114  0.87661556  1
  O2-  O477  1  0.91485963  0.83823256  0.16502444  1
  O2-  O478  1  0.91329163  0.83086165  0.50467215  1
  O2-  O479  1  0.90437955  0.82118936  0.85292538  1
  O2-  O480  1  0.16800992  0.08035770  0.30862122  1
  O2-  O481  1  0.18299489  0.09215988  0.63873807  1
  O2-  O482  1  0.16255901  0.09496921  0.98771472  1
  O2-  O483  1  0.16900486  0.33901601  0.30939956  1
  O2-  O484  1  0.21116207  0.36941126  0.64417846  1
  O2-  O485  1  0.16661378  0.34731882  0.98490600  1
  O2-  O486  1  0.16163891  0.58719995  0.30396985  1
  O2-  O487  1  0.18909496  0.60772703  0.66492174  1
  O2-  O488  1  0.16989045  0.59692364  0.97127941  1
  O2-  O489  1  0.16153003  0.82635258  0.30452481  1
  O2-  O490  1  0.17311894  0.84298013  0.64514549  1
  O2-  O491  1  0.17385786  0.83416276  0.97743958  1
  O2-  O492  1  0.41812740  0.07415699  0.30652030  1
  O2-  O493  1  0.41600356  0.06655870  0.64086232  1
  O2-  O494  1  0.42360064  0.07994744  0.96958100  1
  O2-  O495  1  0.41960972  0.33124073  0.30607916  1
  O2-  O496  1  0.40429133  0.33557590  0.64407225  1
  O2-  O497  1  0.40756174  0.32397698  0.97579855  1
  O2-  O498  1  0.41399808  0.58448842  0.35336583  1
  O2-  O499  1  0.44709251  0.55055889  0.61992443  1
  O2-  O500  1  0.40416094  0.57870288  0.96421505  1
  O2-  O501  1  0.41706005  0.84403920  0.32282419  1
  O2-  O502  1  0.39788013  0.81606407  0.66569404  1
  O2-  O503  1  0.41998393  0.84471077  0.99742681  1
  O2-  O504  1  0.66290932  0.09105745  0.31983104  1
  O2-  O505  1  0.65301435  0.04562043  0.65432848  1
  O2-  O506  1  0.67272522  0.07799038  0.97767451  1
  O2-  O507  1  0.66372373  0.32634454  0.31862114  1
  O2-  O508  1  0.68388349  0.31369496  0.63240385  1
  O2-  O509  1  0.67312718  0.35062488  0.97454564  1
  O2-  O510  1  0.66385910  0.57574153  0.30650424  1
  O2-  O511  1  0.67729108  0.59738410  0.64211942  1
  O2-  O512  1  0.64203669  0.56742138  0.99292502  1
  O2-  O513  1  0.69432069  0.89457810  0.30160184  1
  O2-  O514  1  0.67207513  0.83917422  0.60688700  1
  O2-  O515  1  0.66338971  0.83015959  0.97519135  1
  O2-  O516  1  0.85369065  0.04657791  0.28822125  1
  O2-  O517  1  0.96118643  0.06362355  0.62870527  1
  O2-  O518  1  0.91741108  0.08708194  1.03756926  1
  O2-  O519  1  0.92047450  0.33377058  0.30969170  1
  O2-  O520  1  0.92787093  0.36683018  0.63821961  1
  O2-  O521  1  0.92190083  0.34964868  0.99788551  1
  O2-  O522  1  0.91050690  0.57225434  0.32257717  1
  O2-  O523  1  0.94115893  0.60123695  0.61964690  1
  O2-  O524  1  0.93485119  0.59999307  0.99868214  1
  O2-  O525  1  0.92669858  0.83750315  0.31971445  1
  O2-  O526  1  0.92867877  0.85211433  0.65872040  1
  O2-  O527  1  0.92515248  0.84272575  0.97740377  1
  O2-  O528  1  0.09225556  0.18408980  0.02910221  1
  O2-  O529  1  0.09673522  0.18138746  0.34960763  1
  O2-  O530  1  0.13159451  0.19868080  0.66696734  1
  O2-  O531  1  0.09023361  0.43480253  0.02875147  1
  O2-  O532  1  0.08600676  0.42108518  0.34636515  1
  O2-  O533  1  0.09370600  0.42797954  0.67514399  1
  O2-  O534  1  0.10538328  0.68570056  0.03136209  1
  O2-  O535  1  0.08149448  0.66599891  0.35036758  1
  O2-  O536  1  0.09033846  0.67910070  0.68641224  1
  O2-  O537  1  0.09048452  0.92357397  0.01756318  1
  O2-  O538  1  0.08876276  0.91507539  0.34882988  1
  O2-  O539  1  0.10454090  0.94092453  0.68644989  1
  O2-  O540  1  0.31047751  0.11340712  0.03414146  1
  O2-  O541  1  0.33894443  0.16619532  0.34741946  1
  O2-  O542  1  0.35183818  0.16565701  0.67704365  1
  O2-  O543  1  0.33073578  0.41820950  0.01509774  1
  O2-  O544  1  0.33634350  0.41442324  0.34568675  1
  O2-  O545  1  0.29772844  0.40663098  0.67247584  1
  O2-  O546  1  0.33352235  0.66766434  0.01851770  1
  O2-  O547  1  0.32216767  0.66865051  0.35112400  1
  O2-  O548  1  0.30618641  0.67431723  0.74500733  1
  O2-  O549  1  0.37095172  0.94599418  0.03365137  1
  O2-  O550  1  0.33027483  0.91784021  0.35328195  1
  O2-  O551  1  0.33222017  0.91182842  0.68975535  1
  O2-  O552  1  0.60187214  0.18447626  -0.02135857  1
  O2-  O553  1  0.57476764  0.16436603  0.34497300  1
  O2-  O554  1  0.58564697  0.14678723  0.68031953  1
  O2-  O555  1  0.57009648  0.40496633  0.02151579  1
  O2-  O556  1  0.58709825  0.41991764  0.34989773  1
  O2-  O557  1  0.56666344  0.45018965  0.69153496  1
  O2-  O558  1  0.56643443  0.66468238  0.01506571  1
  O2-  O559  1  0.59498292  0.66274037  0.35554481  1
  O2-  O560  1  0.58909604  0.67777891  0.67372240  1
  O2-  O561  1  0.58715722  0.91528300  0.02399669  1
  O2-  O562  1  0.58410538  0.92016933  0.36905311  1
  O2-  O563  1  0.54718302  0.89032659  0.69946932  1
  O2-  O564  1  0.83444044  0.17866532  0.03015836  1
  O2-  O565  1  0.82823052  0.16646816  0.35017172  1
  O2-  O566  1  0.81379477  0.25962181  0.72090446  1
  O2-  O567  1  0.83141284  0.43093314  0.03012976  1
  O2-  O568  1  0.83240005  0.39706777  0.36897726  1
  O2-  O569  1  0.82867904  0.44895707  0.68216899  1
  O2-  O570  1  0.84818789  0.67772875  0.02091601  1
  O2-  O571  1  0.82636958  0.66108678  0.34564762  1
  O2-  O572  1  0.84134254  0.66801143  0.66745683  1
  O2-  O573  1  0.83204510  0.91695621  0.01661024  1
  O2-  O574  1  0.82730832  0.90412363  0.36587880  1
  O2-  O575  1  0.79280039  0.85940900  0.69535272  1
