# generated using pymatgen
data_H2O
_symmetry_space_group_name_H-M   'P 1'
_cell_length_a   17.99071239
_cell_length_b   17.99919925
_cell_length_c   22.00765483
_cell_angle_alpha   89.98838786
_cell_angle_beta   90.01953816
_cell_angle_gamma   120.01185540
_symmetry_Int_Tables_number   1
_chemical_formula_structural   H2O
_chemical_formula_sum   'H384 O192'
_cell_volume   6170.97835343
_cell_formula_units_Z   192
loop_
 _symmetry_equiv_pos_site_id
 _symmetry_equiv_pos_as_xyz
  1  'x, y, z'
loop_
 _atom_type_symbol
 _atom_type_oxidation_number
  H+  1.0
  O2-  -2.0
loop_
 _atom_site_type_symbol
 _atom_site_label
 _atom_site_symmetry_multiplicity
 _atom_site_fract_x
 _atom_site_fract_y
 _atom_site_fract_z
 _atom_site_occupancy
  H+  H0  1  0.60953984  0.02094905  0.50935087  1
  H+  H1  1  0.14848974  0.27446195  0.17308442  1
  H+  H2  1  0.52825313  0.38268860  0.51551576  1
  H+  H3  1  0.40225830  0.52352257  0.51543120  1
  H+  H4  1  0.51579702  0.14911972  0.67543270  1
  H+  H5  1  0.86872527  0.34954736  0.33165688  1
  H+  H6  1  0.96828278  0.11088764  0.33290267  1
  H+  H7  1  0.37774079  0.35994444  0.83292445  1
  H+  H8  1  0.88106211  1.02264258  0.34052090  1
  H+  H9  1  0.72896537  0.07452177  0.63195488  1
  H+  H10  1  0.55570055  0.40370688  0.74169649  1
  H+  H11  1  0.10956945  0.63403502  0.01154682  1
  H+  H12  1  0.95539273  0.46167870  0.62861536  1
  H+  H13  1  0.64693560  0.75778371  0.19381566  1
  H+  H14  1  0.89733017  0.85548047  0.84774140  1
  H+  H15  1  0.48745938  0.62689291  0.85123103  1
  H+  H16  1  0.40004759  0.29297285  0.99629123  1
  H+  H17  1  0.87492824  0.22488732  0.16638793  1
  H+  H18  1  0.72120262  0.10651767  0.33167512  1
  H+  H19  1  0.23323434  0.38307911  -0.00982691  1
  H+  H20  1  0.87032228  0.72703769  0.82751296  1
  H+  H21  1  0.89334695  0.53181884  0.16349039  1
  H+  H22  1  0.59341356  1.02365609  0.17169205  1
  H+  H23  1  0.74578066  0.91243577  0.02049350  1
  H+  H24  1  0.91796805  0.94564499  -0.00369224  1
  H+  H25  1  0.55412711  0.87223267  0.50665148  1
  H+  H26  1  0.85880767  0.04164639  0.98300415  1
  H+  H27  1  0.14538738  0.35690056  0.65531637  1
  H+  H28  1  0.10152403  0.39300448  0.47740373  1
  H+  H29  1  0.24798746  0.11978773  0.83912449  1
  H+  H30  1  0.14162172  0.36681114  0.83713103  1
  H+  H31  1  0.36350723  0.64312523  0.01752146  1
  H+  H32  1  0.06325674  0.90698640  0.02074626  1
  H+  H33  1  0.14038657  0.03063833  0.32844263  1
  H+  H34  1  0.50891312  0.37952257  0.66090442  1
  H+  H35  1  0.65795977  0.54026035  0.17782723  1
  H+  H36  1  0.86733573  0.48716180  0.00649884  1
  H+  H37  1  0.74109593  0.86539941  0.84837514  1
  H+  H38  1  0.02871104  0.13028008  0.67227154  1
  H+  H39  1  0.11743034  0.22002778  0.66701341  1
  H+  H40  1  0.89575910  1.00845243  0.66307596  1
  H+  H41  1  0.17187975  0.52695371  0.69839400  1
  H+  H42  1  0.36291186  0.22353048  0.50780565  1
  H+  H43  1  0.73710532  0.37416689  0.32918071  1
  H+  H44  1  0.61747376  0.15356931  0.16357692  1
  H+  H45  1  0.99404824  0.11012780  0.14816293  1
  H+  H46  1  0.48535671  0.89824256  0.15597612  1
  H+  H47  1  0.64082045  0.51962890  0.51439489  1
  H+  H48  1  0.76911265  0.39805725  0.15401938  1
  H+  H49  1  0.14097358  0.11124152  0.66216583  1
  H+  H50  1  0.44864205  0.22024195  1.04667650  1
  H+  H51  1  0.35661557  0.21097225  0.67228298  1
  H+  H52  1  0.03904259  0.40891577  0.65791709  1
  H+  H53  1  0.39305994  0.61374524  0.84933222  1
  H+  H54  1  0.58438073  0.66227679  0.41041216  1
  H+  H55  1  0.14973903  0.81299212  0.24734939  1
  H+  H56  1  0.63913222  0.37757866  0.17500096  1
  H+  H57  1  0.53691787  0.64028441  0.50318487  1
  H+  H58  1  0.51687578  0.14291800  0.49616629  1
  H+  H59  1  0.84920056  0.22996627  0.49352023  1
  H+  H60  1  0.62978766  0.73727726  0.83222469  1
  H+  H61  1  0.64819045  0.53850283  -0.00622273  1
  H+  H62  1  0.37905133  0.76701464  0.18288146  1
  H+  H63  1  0.22797337  0.10532026  0.66823052  1
  H+  H64  1  0.89161259  0.28038709  0.85916882  1
  H+  H65  1  0.53220018  0.63415109  0.16584769  1
  H+  H66  1  0.68199883  0.95023496  0.20163678  1
  H+  H67  1  0.93593726  0.07528070  0.90062527  1
  H+  H68  1  0.85436584  0.47431505  0.67691226  1
  H+  H69  1  0.41226992  0.80399664  0.62940663  1
  H+  H70  1  0.65781194  0.95297079  0.66236057  1
  H+  H71  1  0.36962034  0.49307561  1.00836138  1
  H+  H72  1  0.15689973  1.03461336  0.83849692  1
  H+  H73  1  0.59693075  0.43710950  0.10235657  1
  H+  H74  1  0.00233103  0.09777929  0.84548470  1
  H+  H75  1  0.83326972  0.24323328  0.63832500  1
  H+  H76  1  0.77495429  0.63518494  0.34973147  1
  H+  H77  1  0.58972515  0.17968427  0.06627595  1
  H+  H78  1  0.28317936  0.65690380  0.38507014  1
  H+  H79  1  0.61536416  0.14253937  0.34643714  1
  H+  H80  1  0.85529318  0.38728176  0.83102835  1
  H+  H81  1  0.39278887  1.02617124  0.66335364  1
  H+  H82  1  0.53180078  0.40178048  0.15759165  1
  H+  H83  1  0.10717196  0.22085121  0.33216879  1
  H+  H84  1  0.16345600  0.51399865  0.19760828  1
  H+  H85  1  0.03132303  0.64309618  0.15395113  1
  H+  H86  1  0.39447165  0.78308859  0.34245816  1
  H+  H87  1  0.21275653  0.60539228  0.85209902  1
  H+  H88  1  0.33697005  0.70526248  0.82978542  1
  H+  H89  1  0.62239109  0.24586553  0.16150574  1
  H+  H90  1  0.08431119  0.67383151  0.06846686  1
  H+  H91  1  0.41648177  0.20998528  0.80437335  1
  H+  H92  1  0.48061511  0.10841010  -0.01133907  1
  H+  H93  1  0.14548341  0.27917175  0.83692711  1
  H+  H94  1  0.81390994  0.89665380  0.40928535  1
  H+  H95  1  0.95914705  0.36310376  0.17559625  1
  H+  H96  1  0.10908163  0.72450592  0.82578783  1
  H+  H97  1  0.76437691  0.88075097  0.34886281  1
  H+  H98  1  0.88686094  0.11781474  0.50758977  1
  H+  H99  1  0.88405794  0.61156055  0.84428354  1
  H+  H100  1  0.59693021  1.03510788  0.65920837  1
  H+  H101  1  0.39397569  0.28445763  0.16152652  1
  H+  H102  1  0.22708482  0.61580278  1.00499906  1
  H+  H103  1  0.11484608  0.39322931  1.00147896  1
  H+  H104  1  0.32976212  0.68193519  0.58101550  1
  H+  H105  1  0.85555153  0.39451297  0.15660083  1
  H+  H106  1  0.28090046  0.36976633  0.65819945  1
  H+  H107  1  0.87369356  0.37209303  0.49423671  1
  H+  H108  1  0.65712914  0.87351284  0.84000979  1
  H+  H109  1  0.88346421  0.96486126  0.83921340  1
  H+  H110  1  0.22983694  0.08520750  0.51311521  1
  H+  H111  1  0.60026027  0.25984905  0.98463179  1
  H+  H112  1  0.94369035  0.86663549  0.50705579  1
  H+  H113  1  0.39861339  0.49370208  0.66070471  1
  H+  H114  1  0.52494838  0.41156417  1.00455338  1
  H+  H115  1  -0.03014100  0.85667833  0.66162301  1
  H+  H116  1  0.13205341  0.35164490  0.16758812  1
  H+  H117  1  0.88430278  0.08756640  0.65497442  1
  H+  H118  1  0.74004077  0.62665295  -0.00031979  1
  H+  H119  1  0.13433123  0.02227249  0.18375444  1
  H+  H120  1  0.12761179  0.72971244  0.50270715  1
  H+  H121  1  1.03474854  0.64522456  0.49074905  1
  H+  H122  1  0.38627936  0.09963208  0.83184006  1
  H+  H123  1  0.22987079  0.85942446  0.82915713  1
  H+  H124  1  -0.02703234  0.61161445  0.84422173  1
  H+  H125  1  0.25303912  0.60040363  0.19711358  1
  H+  H126  1  0.38719086  0.09377216  0.98751134  1
  H+  H127  1  0.13551121  0.85859584  0.19148479  1
  H+  H128  1  0.85376400  0.12659034  0.34434712  1
  H+  H129  1  0.11687802  0.48269003  1.01338678  1
  H+  H130  1  0.36940751  0.96945781  0.82383132  1
  H+  H131  1  0.73723596  0.84746907  0.19694997  1
  H+  H132  1  0.60353562  0.13971176  0.49287796  1
  H+  H133  1  0.38231478  0.99987243  0.14706394  1
  H+  H134  1  0.96903033  0.86204687  0.32373212  1
  H+  H135  1  0.63940254  0.52506657  0.33584254  1
  H+  H136  1  0.73450175  0.36659515  0.51124717  1
  H+  H137  1  0.13812083  0.14918691  0.82558738  1
  H+  H138  1  0.48251038  0.36683046  0.34040055  1
  H+  H139  1  0.87010196  0.62731038  0.67479815  1
  H+  H140  1  0.95013445  0.39494250  0.57906661  1
  H+  H141  1  0.35595906  0.46806406  0.35336448  1
  H+  H142  1  0.27560807  0.62462421  0.49102237  1
  H+  H143  1  0.64514978  0.83766647  0.65670978  1
  H+  H144  1  0.86245719  0.72272504  0.34913380  1
  H+  H145  1  0.59449216  0.37692182  0.81367959  1
  H+  H146  1  0.13993863  0.57924637  0.35531538  1
  H+  H147  1  0.83336163  0.66201612  0.76947696  1
  H+  H148  1  0.62392630  0.63768104  0.16680477  1
  H+  H149  1  0.37273217  0.38745450  0.51364553  1
  H+  H150  1  0.21785908  0.88981092  0.00745698  1
  H+  H151  1  0.69753689  0.82143525  0.60338253  1
  H+  H152  1  0.68494364  0.60433145  0.91161077  1
  H+  H153  1  -0.00886693  0.35687661  0.33148309  1
  H+  H154  1  0.26947188  0.13761788  0.15971046  1
  H+  H155  1  0.52147576  0.13279514  0.82536029  1
  H+  H156  1  0.88283321  0.47507756  0.34069634  1
  H+  H157  1  0.55578414  0.91284676  0.81488825  1
  H+  H158  1  0.39553950  0.90453857  0.66688312  1
  H+  H159  1  0.13714738  0.53129278  0.44933608  1
  H+  H160  1  0.97874574  0.61556436  0.99993640  1
  H+  H161  1  0.11941177  0.73144951  0.15892389  1
  H+  H162  1  0.83383850  0.42043993  1.06321311  1
  H+  H163  1  0.99092949  0.39146645  0.99304728  1
  H+  H164  1  0.12708594  0.70904227  0.67787806  1
  H+  H165  1  0.05893539  0.38255876  0.09365584  1
  H+  H166  1  0.41391999  0.57880605  0.23084664  1
  H+  H167  1  0.27684117  0.38397167  0.81439085  1
  H+  H168  1  0.11029289  0.98384464  0.67066783  1
  H+  H169  1  0.09969876  0.96661992  0.49605618  1
  H+  H170  1  0.50039870  0.37262686  0.81919521  1
  H+  H171  1  0.64919687  0.63439256  0.84725529  1
  H+  H172  1  0.62249902  0.63305048  0.50038766  1
  H+  H173  1  0.09963884  0.89154587  0.66208354  1
  H+  H174  1  0.93795458  0.77169315  0.99228959  1
  H+  H175  1  0.14603216  0.62458163  0.45401122  1
  H+  H176  1  0.41458020  0.04081072  0.31301404  1
  H+  H177  1  0.62391157  0.39475877  0.34986512  1
  H+  H178  1  0.62783882  0.78068746  1.00039349  1
  H+  H179  1  0.03438045  0.89040633  0.82569794  1
  H+  H180  1  0.14663274  0.81192744  0.91973957  1
  H+  H181  1  0.87304408  0.13473092  0.98384168  1
  H+  H182  1  0.02045563  0.14376502  0.48721286  1
  H+  H183  1  0.77943429  0.87766667  0.68250142  1
  H+  H184  1  0.98548450  0.60120897  0.65913353  1
  H+  H185  1  0.53596965  0.27616072  0.94734220  1
  H+  H186  1  0.86155507  0.25529448  0.32660828  1
  H+  H187  1  0.62511540  0.02787550  0.99218468  1
  H+  H188  1  0.61762480  -0.01976492  0.33892140  1
  H+  H189  1  0.94581226  0.92843872  0.98469902  1
  H+  H190  1  0.37480899  0.26939524  0.84121985  1
  H+  H191  1  0.12582086  0.61069674  0.85003405  1
  H+  H192  1  0.86272840  0.22697995  0.62896086  1
  H+  H193  1  0.64396048  0.12573569  0.83794922  1
  H+  H194  1  0.78898003  0.15177551  0.85938399  1
  H+  H195  1  0.11404185  0.75224844  -0.01843226  1
  H+  H196  1  0.61698926  0.87975827  0.33882895  1
  H+  H197  1  0.63956947  0.61391824  0.33379243  1
  H+  H198  1  0.62685324  0.77509128  0.34380853  1
  H+  H199  1  0.24107648  0.61905922  0.67425737  1
  H+  H200  1  0.92085662  0.06190033  0.09923820  1
  H+  H201  1  0.10957719  0.48129156  0.83570818  1
  H+  H202  1  0.36769439  0.36403899  0.64957442  1
  H+  H203  1  0.40106946  0.57756698  0.68325138  1
  H+  H204  1  0.48636342  0.13497895  0.16754687  1
  H+  H205  1  0.38401346  0.39484874  0.35762752  1
  H+  H206  1  0.89234899  0.52447644  0.50382883  1
  H+  H207  1  0.88948409  0.39844596  0.99779717  1
  H+  H208  1  0.11732855  0.61919322  0.69588202  1
  H+  H209  1  0.38387658  0.11165352  0.51081090  1
  H+  H210  1  0.09943459  0.88313109  0.34577551  1
  H+  H211  1  0.83342491  0.66263878  0.43971414  1
  H+  H212  1  0.10400326  0.23454551  0.48230166  1
  H+  H213  1  0.08507432  0.92348052  0.11946489  1
  H+  H214  1  0.28394194  0.93489856  0.06246601  1
  H+  H215  1  0.36096021  0.14250858  0.15965253  1
  H+  H216  1  0.36528231  0.84787016  0.84103554  1
  H+  H217  1  0.37581980  0.63989350  0.16373389  1
  H+  H218  1  0.29567894  0.87550515  0.67217871  1
  H+  H219  1  0.45090413  0.86058039  0.99726288  1
  H+  H220  1  0.76700527  0.14839962  0.01021503  1
  H+  H221  1  0.60662496  0.22798218  0.82433836  1
  H+  H222  1  0.41903578  0.07305081  0.89312221  1
  H+  H223  1  0.85636026  0.72026740  0.50008409  1
  H+  H224  1  0.38901841  0.86737702  0.34066963  1
  H+  H225  1  0.53755843  0.61900430  0.68260092  1
  H+  H226  1  0.39233209  0.28097805  0.34076140  1
  H+  H227  1  0.27495151  0.13976268  0.34705456  1
  H+  H228  1  0.64164910  0.27428139  0.51362294  1
  H+  H229  1  0.34917868  0.90011130  0.14984688  1
  H+  H230  1  0.43841215  0.82924853  0.86640770  1
  H+  H231  1  0.48371385  0.62725462  1.00690299  1
  H+  H232  1  0.86570485  0.87622689  0.68092876  1
  H+  H233  1  0.35646345  0.42280327  0.44838840  1
  H+  H234  1  0.74229762  0.62935759  0.84405715  1
  H+  H235  1  0.76251343  0.13901517  0.49571728  1
  H+  H236  1  0.89798634  0.15041075  0.14604496  1
  H+  H237  1  0.61595289  0.14520304  1.00639826  1
  H+  H238  1  0.17108225  0.83581737  0.67633259  1
  H+  H239  1  0.80662833  0.84906207  0.52935791  1
  H+  H240  1  0.36577736  0.40186632  0.00412178  1
  H+  H241  1  0.87731011  0.85485217  0.32886951  1
  H+  H242  1  0.14741660  1.05010182  0.00298881  1
  H+  H243  1  0.78578327  0.45798893  0.45894895  1
  H+  H244  1  0.86637478  0.15115496  0.89222881  1
  H+  H245  1  0.64761232  0.28604194  0.32962269  1
  H+  H246  1  0.59221928  0.89001765  0.00694537  1
  H+  H247  1  0.12371591  0.14053285  0.16310936  1
  H+  H248  1  0.86891559  0.96361663  0.16170632  1
  H+  H249  1  0.36440036  0.14084904  0.34536882  1
  H+  H250  1  0.75754292  0.02356383  0.58875294  1
  H+  H251  1  0.65661600  0.92779724  0.17375571  1
  H+  H252  1  0.31055740  0.94350279  0.36161291  1
  H+  H253  1  0.13917356  0.11884359  0.32900927  1
  H+  H254  1  0.88551859  0.76201873  0.66324150  1
  H+  H255  1  0.61676353  0.38296037  0.50957556  1
  H+  H256  1  0.39553074  0.37354765  0.16064042  1
  H+  H257  1  0.65696748  0.04411683  0.83588769  1
  H+  H258  1  0.39298510  0.52448414  0.16966907  1
  H+  H259  1  0.07541457  0.44948941  0.32953693  1
  H+  H260  1  0.49256211  0.13262372  0.32605739  1
  H+  H261  1  0.35346575  0.72771112  0.01949477  1
  H+  H262  1  0.63396456  0.27762716  0.66551079  1
  H+  H263  1  0.19712000  0.82353834  0.35304419  1
  H+  H264  1  0.85681417  0.47666548  0.83307863  1
  H+  H265  1  0.36412364  -0.02444435  0.50439689  1
  H+  H266  1  0.60262026  0.47002064  0.67225026  1
  H+  H267  1  0.19141884  0.81284142  0.59829987  1
  H+  H268  1  0.38127499  0.10999670  0.66533017  1
  H+  H269  1  0.12733473  0.24814431  1.01379089  1
  H+  H270  1  0.11653255  0.34557402  0.32046497  1
  H+  H271  1  0.60246356  0.39584701  0.00071655  1
  H+  H272  1  -0.02491633  0.37142171  0.84235711  1
  H+  H273  1  0.73506636  0.37089565  0.66878741  1
  H+  H274  1  -0.00310875  0.29613924  0.12841587  1
  H+  H275  1  0.52320454  0.63173698  0.35228068  1
  H+  H276  1  1.01657874  0.55830359  0.30260586  1
  H+  H277  1  0.25070095  0.39186969  0.50849174  1
  H+  H278  1  0.05982440  0.86741256  0.48173251  1
  H+  H279  1  0.36294353  0.62429864  0.51185057  1
  H+  H280  1  0.98820080  0.62291634  0.32093886  1
  H+  H281  1  0.65870827  0.83852931  0.94013611  1
  H+  H282  1  0.12946093  0.16060340  0.01070746  1
  H+  H283  1  0.52317797  0.88853702  0.34261488  1
  H+  H284  1  0.35636294  0.60211348  0.32945528  1
  H+  H285  1  0.64706127  0.60258373  0.66741375  1
  H+  H286  1  0.86867513  0.63855298  0.01893384  1
  H+  H287  1  0.89791986  0.61514585  0.50853147  1
  H+  H288  1  0.84197051  0.90730334  0.77877277  1
  H+  H289  1  0.43181538  0.58012558  0.57521642  1
  H+  H290  1  0.89983616  0.33764335  0.23557819  1
  H+  H291  1  0.55442827  0.92686992  0.05889942  1
  H+  H292  1  0.41378652  0.34259325  0.93289160  1
  H+  H293  1  0.62377434  0.65175891  0.01257283  1
  H+  H294  1  0.62062929  0.13155763  0.66004778  1
  H+  H295  1  0.86545803  0.16585403  0.75602709  1
  H+  H296  1  0.01664068  0.87527789  0.17223296  1
  H+  H297  1  0.90079467  0.82593182  0.57120553  1
  H+  H298  1  0.67518850  0.33438085  0.60066982  1
  H+  H299  1  0.33132636  0.66477798  0.11036931  1
  H+  H300  1  0.08830823  0.92310611  0.76475183  1
  H+  H301  1  0.37459371  0.81828170  0.94985768  1
  H+  H302  1  0.16463441  0.58442910  0.94574655  1
  H+  H303  1  0.16129337  0.94822200  0.04303843  1
  H+  H304  1  0.16167956  0.32805781  0.26495947  1
  H+  H305  1  0.82075037  0.15934877  0.40154545  1
  H+  H306  1  0.03520926  0.33987837  0.70393683  1
  H+  H307  1  0.15426403  0.56772249  0.28355745  1
  H+  H308  1  0.59161319  0.41899181  0.41102710  1
  H+  H309  1  0.28563977  0.87700658  0.51526312  1
  H+  H310  1  0.33468010  0.42786153  0.09739080  1
  H+  H311  1  0.71723911  0.36726225  0.83566513  1
  H+  H312  1  0.80812974  0.92829669  0.07545739  1
  H+  H313  1  0.64463559  0.33195347  0.88859964  1
  H+  H314  1  0.17451020  0.34636712  0.93049618  1
  H+  H315  1  0.35588350  0.18469597  0.06958719  1
  H+  H316  1  0.89578680  0.80073353  0.23539495  1
  H+  H317  1  0.84153452  0.18598143  0.06097232  1
  H+  H318  1  0.29111110  0.63379817  0.77746615  1
  H+  H319  1  0.64307190  0.08654603  0.56385574  1
  H+  H320  1  0.62510420  0.70990904  0.67634413  1
  H+  H321  1  0.16747725  0.85741594  0.53837348  1
  H+  H322  1  0.08566879  0.42829913  0.77320149  1
  H+  H323  1  0.15955134  0.60189467  0.55975899  1
  H+  H324  1  0.94457766  0.82474950  0.89803785  1
  H+  H325  1  0.67253314  0.57378330  0.60504901  1
  H+  H326  1  0.09102453  0.71822219  0.40340081  1
  H+  H327  1  1.03281672  0.80654392  0.96398485  1
  H+  H328  1  0.92225871  0.08225015  0.55977669  1
  H+  H329  1  0.10435899  0.18125835  0.10201622  1
  H+  H330  1  0.66556785  0.82467498  0.27942265  1
  H+  H331  1  0.41609067  0.08472687  0.57029881  1
  H+  H332  1  0.09912756  0.17082452  0.76711084  1
  H+  H333  1  0.06630826  0.92259235  0.39623537  1
  H+  H334  1  0.47453591  0.88056687  0.58620425  1
  H+  H335  1  0.85459378  0.15860206  0.72266983  1
  H+  H336  1  0.40832887  0.83020961  0.24057787  1
  H+  H337  1  0.07568558  0.65708187  0.77129292  1
  H+  H338  1  0.57778522  0.17692084  0.73543476  1
  H+  H339  1  0.65477803  0.07757157  0.27415950  1
  H+  H340  1  0.33338530  0.39573917  0.75478616  1
  H+  H341  1  0.14340588  0.86565992  0.82857334  1
  H+  H342  1  0.96140636  0.37055083  0.48839193  1
  H+  H343  1  0.37526834  0.67525236  0.63960119  1
  H+  H344  1  0.42854975  0.10271472  0.22705970  1
  H+  H345  1  0.31661136  0.89833507  0.42108788  1
  H+  H346  1  0.67818607  0.59168494  0.24035738  1
  H+  H347  1  0.34700115  0.91227996  0.76294861  1
  H+  H348  1  0.55290209  0.88919254  0.66372319  1
  H+  H349  1  0.59474706  0.67597713  0.07474697  1
  H+  H350  1  0.42029969  0.89210515  0.48085372  1
  H+  H351  1  0.92799490  0.57693423  0.59735809  1
  H+  H352  1  0.58323887  0.17633792  0.40284886  1
  H+  H353  1  0.85745879  0.86892908  0.16217555  1
  H+  H354  1  0.66343208  0.09176447  0.93535705  1
  H+  H355  1  0.85008108  0.68548139  0.07445012  1
  H+  H356  1  0.17479173  0.33430072  0.59379443  1
  H+  H357  1  0.08084359  0.16597651  0.39375922  1
  H+  H358  1  0.17274165  0.05552513  0.57289730  1
  H+  H359  1  0.92740331  0.36452408  0.93098320  1
  H+  H360  1  0.91692531  0.58843369  0.94076374  1
  H+  H361  1  0.33908715  0.16078475  0.74075643  1
  H+  H362  1  0.29604352  0.53254939  0.28328894  1
  H+  H363  1  0.79826479  0.68344249  0.18157179  1
  H+  H364  1  0.59976546  0.66980443  0.77539888  1
  H+  H365  1  0.61455501  0.92787573  0.75848783  1
  H+  H366  1  0.17239467  0.08977496  0.23803934  1
  H+  H367  1  0.67138163  0.34774191  0.23398163  1
  H+  H368  1  0.47606866  0.96304774  0.11719754  1
  H+  H369  1  0.93778164  0.57785967  0.22464472  1
  H+  H370  1  0.82099813  0.41873437  0.73935892  1
  H+  H371  1  0.73188015  0.60845876  0.51155998  1
  H+  H372  1  0.77851626  0.62165848  0.67451094  1
  H+  H373  1  0.69398320  0.08242562  0.17699646  1
  H+  H374  1  0.20659210  0.43917552  0.53737983  1
  H+  H375  1  0.06091798  0.40158721  0.41486357  1
  H+  H376  1  0.42773290  0.60159205  0.94584560  1
  H+  H377  1  0.36667513  0.68852294  0.42019523  1
  H+  H378  1  0.17425680  0.09720902  0.93872390  1
  H+  H379  1  0.27685892  0.39478955  0.15798304  1
  H+  H380  1  0.33771413  0.17312096  0.44313315  1
  H+  H381  1  0.66922855  0.77613392  0.48418492  1
  H+  H382  1  0.83774601  0.42209363  0.40313459  1
  H+  H383  1  0.15250709  0.59799861  0.59354445  1
  O2-  O384  1  0.09568320  0.17321843  0.14832452  1
  O2-  O385  1  0.08044835  0.17494835  0.47046904  1
  O2-  O386  1  0.10366934  0.17603633  0.81211465  1
  O2-  O387  1  0.04368344  0.35623027  0.13525916  1
  O2-  O388  1  0.06906443  0.41844685  0.45987122  1
  O2-  O389  1  0.08286085  0.42180173  0.81762528  1
  O2-  O390  1  0.09143272  0.67521347  0.13750198  1
  O2-  O391  1  0.09380763  0.68135296  0.47340520  1
  O2-  O392  1  0.07564673  0.66130059  0.81680315  1
  O2-  O393  1  0.07856568  0.91315216  0.16474093  1
  O2-  O394  1  0.05020586  0.91521379  0.47386371  1
  O2-  O395  1  0.09439433  0.92333752  0.80958812  1
  O2-  O396  1  0.32925356  0.17032613  0.14319861  1
  O2-  O397  1  0.33585718  0.16623438  0.48835115  1
  O2-  O398  1  0.35552136  0.16659670  0.80315865  1
  O2-  O399  1  0.33758912  0.42772688  0.14291568  1
  O2-  O400  1  0.34944525  0.42203859  0.49540810  1
  O2-  O401  1  0.33614533  0.40476008  0.79915148  1
  O2-  O402  1  0.33810269  0.66508350  0.15588881  1
  O2-  O403  1  0.33409002  0.65953073  0.50789088  1
  O2-  O404  1  0.31161138  0.64304020  0.81972583  1
  O2-  O405  1  0.36908407  0.94869004  0.12178498  1
  O2-  O406  1  0.34023738  0.91437206  0.49112398  1
  O2-  O407  1  0.33834744  0.90840939  0.80820420  1
  O2-  O408  1  0.59169061  0.18558587  0.14470689  1
  O2-  O409  1  0.57730564  0.17483198  0.48005227  1
  O2-  O410  1  0.58208379  0.16779401  0.80919266  1
  O2-  O411  1  0.59579357  0.43481415  0.14732237  1
  O2-  O412  1  0.58547745  0.41250063  0.49523054  1
  O2-  O413  1  0.55857314  0.40119169  0.79785258  1
  O2-  O414  1  0.59277134  0.66698896  0.15096029  1
  O2-  O415  1  0.59503963  0.66602889  0.48433003  1
  O2-  O416  1  0.60149825  0.67457923  0.82081348  1
  O2-  O417  1  0.52182295  0.94971042  0.12924488  1
  O2-  O418  1  0.52714688  0.90697956  0.51499039  1
  O2-  O419  1  0.61582117  0.93725961  0.80370887  1
  O2-  O420  1  0.88965868  0.19882763  0.13268124  1
  O2-  O421  1  0.82281411  0.16852004  0.48152966  1
  O2-  O422  1  0.85241805  0.17958224  0.85952811  1
  O2-  O423  1  0.82792857  0.42443304  0.13616131  1
  O2-  O424  1  0.81733445  0.43107365  0.47467526  1
  O2-  O425  1  0.82388165  0.41686755  0.81640847  1
  O2-  O426  1  0.85881828  0.71511266  0.16619391  1
  O2-  O427  1  0.83345618  0.66010680  0.48623210  1
  O2-  O428  1  0.83165096  0.66492858  0.81491208  1
  O2-  O429  1  0.82750490  0.90174410  0.15455310  1
  O2-  O430  1  0.75773968  0.86004093  0.53731321  1
  O2-  O431  1  0.84129943  0.90380836  0.82393706  1
  O2-  O432  1  0.16895406  0.08500785  0.19258333  1
  O2-  O433  1  0.17788201  0.03680083  0.53143924  1
  O2-  O434  1  0.18792420  0.09495692  0.85301328  1
  O2-  O435  1  0.17422292  0.33675767  0.18471083  1
  O2-  O436  1  0.19226648  0.38262073  0.52224982  1
  O2-  O437  1  0.17601501  0.34066737  0.85066927  1
  O2-  O438  1  0.20883556  0.55592872  0.22503592  1
  O2-  O439  1  0.17542116  0.59329472  0.43873926  1
  O2-  O440  1  0.15236408  0.57788478  0.86751432  1
  O2-  O441  1  0.16486580  0.82698533  0.20437619  1
  O2-  O442  1  0.19070238  0.81949762  0.54509908  1
  O2-  O443  1  0.16849256  0.82959200  0.84207833  1
  O2-  O444  1  0.42552695  0.10051656  0.18200631  1
  O2-  O445  1  0.41524020  0.08145055  0.52481945  1
  O2-  O446  1  0.41899015  0.07072307  0.84710221  1
  O2-  O447  1  0.43111010  0.34673732  0.16866847  1
  O2-  O448  1  0.42317722  0.32905210  0.55480980  1
  O2-  O449  1  0.40828871  0.33074086  0.85347073  1
  O2-  O450  1  0.42664382  0.58495112  0.18684407  1
  O2-  O451  1  0.42939064  0.58493444  0.53039251  1
  O2-  O452  1  0.43125116  0.59887574  0.87163827  1
  O2-  O453  1  0.40223319  0.82786464  0.19594412  1
  O2-  O454  1  0.46390812  0.87733297  0.46490315  1
  O2-  O455  1  0.37651832  0.80426947  0.86305955  1
  O2-  O456  1  0.64095711  0.07518384  0.19444074  1
  O2-  O457  1  0.64886707  0.08218304  0.51902454  1
  O2-  O458  1  0.67549370  0.09914675  0.85696303  1
  O2-  O459  1  0.66873886  0.34550263  0.18865260  1
  O2-  O460  1  0.67486041  0.33266516  0.53241049  1
  O2-  O461  1  0.65368679  0.33587016  0.84369117  1
  O2-  O462  1  0.68599110  0.59950216  0.19524494  1
  O2-  O463  1  0.67157275  0.58085391  0.52840813  1
  O2-  O464  1  0.68241179  0.60448804  0.86409660  1
  O2-  O465  1  0.68346668  0.80888175  0.21962239  1
  O2-  O466  1  0.71164016  0.83880775  0.47918844  1
  O2-  O467  1  0.67804656  0.83762942  0.85927080  1
  O2-  O468  1  0.92891106  0.07386995  0.14285282  1
  O2-  O469  1  0.91974722  0.08832563  0.51545815  1
  O2-  O470  1  0.95240675  0.05046628  0.86640696  1
  O2-  O471  1  0.89983960  0.34231392  0.19037185  1
  O2-  O472  1  0.90504583  0.34396786  0.50996062  1
  O2-  O473  1  0.91636027  0.34552165  0.86008454  1
  O2-  O474  1  0.93073093  0.58909907  0.18170091  1
  O2-  O475  1  0.92990680  0.58513856  0.52047025  1
  O2-  O476  1  0.91281097  0.58075502  0.86071170  1
  O2-  O477  1  0.89709754  0.80353578  0.18921900  1
  O2-  O478  1  0.88810459  0.82681995  0.52690855  1
  O2-  O479  1  0.93067457  0.82481352  0.85377464  1
  O2-  O480  1  0.17447411  0.09176681  0.31592976  1
  O2-  O481  1  0.16794729  0.07611980  0.65045246  1
  O2-  O482  1  0.17423750  0.10684540  0.98281000  1
  O2-  O483  1  0.15298096  0.32074218  0.30959090  1
  O2-  O484  1  0.17303677  0.32543886  0.63871439  1
  O2-  O485  1  0.17238634  0.35174259  0.97552687  1
  O2-  O486  1  0.11087114  0.55422559  0.31641492  1
  O2-  O487  1  0.20056430  0.58827368  0.70789627  1
  O2-  O488  1  0.16551167  0.58419621  0.99108857  1
  O2-  O489  1  0.13889604  0.80764323  0.33680840  1
  O2-  O490  1  0.19589193  0.80577517  0.65548879  1
  O2-  O491  1  0.12791351  0.80877492  0.96263189  1
  O2-  O492  1  0.43282014  0.10119066  0.30754603  1
  O2-  O493  1  0.41880840  0.08693546  0.64909356  1
  O2-  O494  1  0.42474587  0.07653720  0.96733757  1
  O2-  O495  1  0.42208465  0.34138080  0.32713075  1
  O2-  O496  1  0.42028527  0.32263337  0.61735230  1
  O2-  O497  1  0.42047151  0.35086544  0.97788527  1
  O2-  O498  1  0.35205331  0.55532252  0.30332051  1
  O2-  O499  1  0.43141480  0.55951296  0.65571274  1
  O2-  O500  1  0.42341380  0.59864210  0.99168421  1
  O2-  O501  1  0.42255353  0.84178280  0.32439040  1
  O2-  O502  1  0.45804916  0.86580050  0.62958343  1
  O2-  O503  1  0.38756261  0.82341387  0.99354424  1
  O2-  O504  1  0.65790163  0.07635423  0.31938239  1
  O2-  O505  1  0.63799392  0.09049857  0.64174636  1
  O2-  O506  1  0.65894257  0.08993873  0.98055250  1
  O2-  O507  1  0.67608545  0.34615363  0.31458304  1
  O2-  O508  1  0.67227008  0.33747124  0.64780710  1
  O2-  O509  1  0.59612101  0.30552403  0.95990127  1
  O2-  O510  1  0.66957340  0.58436621  0.31812940  1
  O2-  O511  1  0.67244987  0.56818606  0.65070006  1
  O2-  O512  1  0.68196008  0.60016584  0.97987596  1
  O2-  O513  1  0.65658886  0.83410241  0.32608993  1
  O2-  O514  1  0.67863978  0.80893611  0.64671241  1
  O2-  O515  1  0.64781133  0.83963364  0.98430070  1
  O2-  O516  1  0.90522546  0.08138105  0.32448621  1
  O2-  O517  1  0.92531451  0.06838482  0.64595806  1
  O2-  O518  1  0.88931571  0.09643554  0.96048460  1
  O2-  O519  1  0.89258292  0.31583927  0.31113784  1
  O2-  O520  1  0.98363194  0.43038526  0.61465169  1
  O2-  O521  1  0.93103129  0.37226774  0.97684632  1
  O2-  O522  1  0.96511224  0.56532512  0.30314516  1
  O2-  O523  1  0.92532672  0.57031734  0.64301966  1
  O2-  O524  1  0.91643111  0.58777090  0.98610884  1
  O2-  O525  1  0.90764985  0.82645224  0.31097510  1
  O2-  O526  1  0.90898158  0.82182395  0.64776535  1
  O2-  O527  1  0.98375753  0.81820176  0.96786950  1
  O2-  O528  1  0.10275915  0.19061056  0.03244102  1
  O2-  O529  1  0.07889279  0.15994507  0.34834894  1
  O2-  O530  1  0.08983040  0.16230674  0.68630220  1
  O2-  O531  1  0.08202566  0.41902911  0.02095675  1
  O2-  O532  1  0.05351066  0.38947959  0.34443026  1
  O2-  O533  1  0.07602058  0.39598919  0.68707940  1
  O2-  O534  1  0.07770444  0.66460177  0.02174797  1
  O2-  O535  1  0.07975756  0.72086764  0.35856190  1
  O2-  O536  1  0.08438022  0.64973704  0.69457695  1
  O2-  O537  1  0.10702857  0.95168522  0.04738921  1
  O2-  O538  1  0.07396049  0.92035213  0.35140808  1
  O2-  O539  1  0.07411712  0.92023324  0.68411401  1
  O2-  O540  1  0.39121607  0.20155889  0.03115627  1
  O2-  O541  1  0.33442368  0.16790108  0.36481048  1
  O2-  O542  1  0.32792187  0.15389968  0.69131919  1
  O2-  O543  1  0.33489002  0.43086862  0.02011950  1
  O2-  O544  1  0.36317198  0.42962369  0.38120235  1
  O2-  O545  1  0.34184156  0.39548689  0.67147391  1
  O2-  O546  1  0.32705547  0.66601637  0.03402420  1
  O2-  O547  1  0.34527684  0.68215982  0.37808745  1
  O2-  O548  1  0.33618213  0.69476466  0.62618371  1
  O2-  O549  1  0.24819828  0.94282303  0.03161204  1
  O2-  O550  1  0.30602263  0.88984119  0.37519230  1
  O2-  O551  1  0.35571279  0.92068149  0.68599732  1
  O2-  O552  1  0.58457011  0.17534486  0.02102160  1
  O2-  O553  1  0.58772559  0.17684914  0.35721111  1
  O2-  O554  1  0.57786408  0.18283783  0.68961860  1
  O2-  O555  1  0.58646479  0.43708800  0.01763755  1
  O2-  O556  1  0.59317416  0.42388030  0.36612397  1
  O2-  O557  1  0.56085537  0.41060590  0.68812617  1
  O2-  O558  1  0.59177881  0.67876399  0.02916152  1
  O2-  O559  1  0.58297663  0.66699268  0.36454969  1
  O2-  O560  1  0.59762327  0.65302117  0.69785824  1
  O2-  O561  1  0.56200212  0.92310170  0.01438428  1
  O2-  O562  1  0.58681796  0.91722226  0.35303608  1
  O2-  O563  1  0.60854925  0.90454728  0.68435933  1
  O2-  O564  1  0.82958547  0.18340519  0.01694522  1
  O2-  O565  1  0.81833577  0.15488488  0.35628397  1
  O2-  O566  1  0.75000331  0.03316688  0.63142211  1
  O2-  O567  1  0.84062519  0.42427354  0.01728774  1
  O2-  O568  1  0.83991793  0.41750967  0.35697466  1
  O2-  O569  1  0.81700433  0.41553002  0.69377382  1
  O2-  O570  1  0.84317906  0.67527300  0.03022462  1
  O2-  O571  1  0.83352143  0.66476404  0.36762768  1
  O2-  O572  1  0.83871655  0.65576811  0.69040528  1
  O2-  O573  1  0.80118464  0.95557781  0.03870130  1
  O2-  O574  1  0.82367460  0.90479486  0.36538712  1
  O2-  O575  1  0.83983504  0.91028358  0.69717910  1
