# generated using pymatgen
data_H2O
_symmetry_space_group_name_H-M   'P 1'
_cell_length_a   17.99909187
_cell_length_b   17.99327913
_cell_length_c   21.99537423
_cell_angle_alpha   89.95178030
_cell_angle_beta   90.02440346
_cell_angle_gamma   120.01737452
_symmetry_Int_Tables_number   1
_chemical_formula_structural   H2O
_chemical_formula_sum   'H384 O192'
_cell_volume   6168.03291437
_cell_formula_units_Z   192
loop_
 _symmetry_equiv_pos_site_id
 _symmetry_equiv_pos_as_xyz
  1  'x, y, z'
loop_
 _atom_type_symbol
 _atom_type_oxidation_number
  H+  1.0
  O2-  -2.0
loop_
 _atom_site_type_symbol
 _atom_site_label
 _atom_site_symmetry_multiplicity
 _atom_site_fract_x
 _atom_site_fract_y
 _atom_site_fract_z
 _atom_site_occupancy
  H+  H0  1  0.86437438  0.16092633  0.33832174  1
  H+  H1  1  0.47443297  0.36530388  0.67102997  1
  H+  H2  1  0.88454800  0.72487148  0.99601457  1
  H+  H3  1  0.37834338  0.37308871  0.17591152  1
  H+  H4  1  0.27364423  0.87587902  0.16123504  1
  H+  H5  1  0.72928130  0.10330912  0.99068692  1
  H+  H6  1  0.90097487  0.28292277  0.83648932  1
  H+  H7  1  0.27236190  0.88530892  0.00683733  1
  H+  H8  1  0.25236071  0.38761769  -0.00015804  1
  H+  H9  1  0.03825666  0.14974931  0.65674307  1
  H+  H10  1  0.38227365  0.26302852  0.00154392  1
  H+  H11  1  0.03468011  0.63871457  0.00521315  1
  H+  H12  1  0.91237964  0.14098244  0.50740434  1
  H+  H13  1  0.07398194  0.16955473  0.06781424  1
  H+  H14  1  0.81943579  0.92976209  0.75698705  1
  H+  H15  1  0.39539679  0.11515460  0.84528260  1
  H+  H16  1  0.61735034  0.47559395  0.67502840  1
  H+  H17  1  0.38657099  0.01059019  0.66377401  1
  H+  H18  1  0.82721035  0.14584736  1.06795540  1
  H+  H19  1  0.88702871  0.47747215  0.99961855  1
  H+  H20  1  0.98517020  0.36318819  1.00992047  1
  H+  H21  1  0.62753803  0.13259468  0.49577502  1
  H+  H22  1  0.61512398  0.38651259  0.50411733  1
  H+  H23  1  0.13267881  0.02341314  1.00109972  1
  H+  H24  1  0.38865633  0.01039478  0.49211534  1
  H+  H25  1  0.16648680  0.28586219  0.50070807  1
  H+  H26  1  0.36362530  0.63959337  0.80643490  1
  H+  H27  1  0.28302745  0.13382303  0.67928889  1
  H+  H28  1  0.90176336  0.84869048  0.83957261  1
  H+  H29  1  0.38362302  0.52910171  0.30672273  1
  H+  H30  1  -0.00079286  0.80563291  0.36265262  1
  H+  H31  1  0.61001125  0.39783397  0.35685647  1
  H+  H32  1  0.31407530  0.14665593  0.50365038  1
  H+  H33  1  0.89087898  0.85963104  0.16091446  1
  H+  H34  1  0.52219651  0.17450958  0.36787967  1
  H+  H35  1  0.88907452  0.37106604  1.01044399  1
  H+  H36  1  0.14250388  0.86517230  0.99402774  1
  H+  H37  1  0.36610897  0.49372400  0.48891156  1
  H+  H38  1  0.10000044  0.12671893  0.34170303  1
  H+  H39  1  0.77422419  0.38623335  0.50165847  1
  H+  H40  1  0.14889671  0.02592521  0.31536901  1
  H+  H41  1  0.11803891  0.39492178  0.81928770  1
  H+  H42  1  0.35328145  0.63729728  0.01015011  1
  H+  H43  1  0.45193265  0.61822275  0.98650830  1
  H+  H44  1  0.89008174  0.26845231  1.01193172  1
  H+  H45  1  0.62261609  0.47322753  0.83155218  1
  H+  H46  1  0.89040266  0.53061582  0.33433261  1
  H+  H47  1  0.12930327  0.11217781  1.00249894  1
  H+  H48  1  0.64119565  0.52125706  0.51590703  1
  H+  H49  1  0.62200651  0.84954569  0.84304992  1
  H+  H50  1  0.48598032  0.85423100  0.50806383  1
  H+  H51  1  0.66872106  0.31449358  0.89394687  1
  H+  H52  1  0.73313896  0.11337423  0.83620484  1
  H+  H53  1  0.60803537  0.45624260  0.09507977  1
  H+  H54  1  0.77739089  0.38337175  0.66083867  1
  H+  H55  1  0.30122161  0.29888662  0.20538175  1
  H+  H56  1  0.35374622  0.50243478  0.15357695  1
  H+  H57  1  0.07185663  0.86711461  0.45442976  1
  H+  H58  1  0.47626334  0.84892401  0.17281726  1
  H+  H59  1  0.85523772  0.10283860  0.16607465  1
  H+  H60  1  0.36150508  0.87240647  0.15912766  1
  H+  H61  1  0.24210165  0.11650826  0.15496653  1
  H+  H62  1  0.36447659  0.74161455  0.50971913  1
  H+  H63  1  0.78556759  0.13466210  0.67074573  1
  H+  H64  1  0.73153358  0.61285732  0.66809696  1
  H+  H65  1  0.46199953  0.41269952  0.86542097  1
  H+  H66  1  0.86720428  0.39238738  0.50148323  1
  H+  H67  1  0.51821097  0.88029336  0.01172662  1
  H+  H68  1  0.87888035  0.88979542  0.67829171  1
  H+  H69  1  0.56678790  0.94248573  0.52353609  1
  H+  H70  1  0.60201032  0.71269205  0.83118633  1
  H+  H71  1  0.62691245  0.46014045  1.00095920  1
  H+  H72  1  0.89353087  0.76956669  0.67716404  1
  H+  H73  1  0.37035159  0.88787238  0.33973416  1
  H+  H74  1  0.29745417  0.81632534  0.51438163  1
  H+  H75  1  0.12843593  0.60792735  0.33959922  1
  H+  H76  1  0.38533900  0.00340083  0.99045673  1
  H+  H77  1  0.15267937  0.11582831  0.65611016  1
  H+  H78  1  -0.03237356  0.10199820  0.85096933  1
  H+  H79  1  0.91355501  0.61484000  0.83132804  1
  H+  H80  1  0.40773254  0.34054422  0.27241069  1
  H+  H81  1  0.61147000  0.62479068  0.48740074  1
  H+  H82  1  0.12556938  0.40828609  0.66244776  1
  H+  H83  1  0.83340400  0.63326434  0.86584682  1
  H+  H84  1  0.75703445  0.49000190  0.22065881  1
  H+  H85  1  0.03035453  0.88736125  0.15838498  1
  H+  H86  1  0.76105910  0.13718812  0.50270900  1
  H+  H87  1  0.02651991  0.39284115  0.33977461  1
  H+  H88  1  0.51168086  0.10501299  0.16080075  1
  H+  H89  1  0.14796719  0.86838589  0.84162974  1
  H+  H90  1  0.48150548  0.61435403  0.30608336  1
  H+  H91  1  0.79877078  0.83902509  0.48124947  1
  H+  H92  1  0.88442272  0.52168945  0.50315259  1
  H+  H93  1  0.12299710  0.49625378  0.16299870  1
  H+  H94  1  0.90509204  0.60918031  0.98871555  1
  H+  H95  1  0.37528029  0.89884837  0.83466368  1
  H+  H96  1  0.35690013  0.86403216  0.68226680  1
  H+  H97  1  0.86132684  0.62478058  0.50094881  1
  H+  H98  1  0.45495807  0.81044422  0.67396001  1
  H+  H99  1  0.36396699  0.52874736  -0.01716030  1
  H+  H100  1  0.34993265  0.64610705  0.11984445  1
  H+  H101  1  0.87614859  0.40947665  0.16109074  1
  H+  H102  1  0.99112091  0.83473694  0.52041659  1
  H+  H103  1  0.26865239  0.64270418  0.34184435  1
  H+  H104  1  0.14652790  1.02455919  0.66784148  1
  H+  H105  1  0.14140729  0.62809847  0.65058518  1
  H+  H106  1  0.11198524  0.39053844  1.00749748  1
  H+  H107  1  0.48295005  0.87469864  0.84928021  1
  H+  H108  1  0.89018665  0.76932612  0.16060224  1
  H+  H109  1  0.37179798  0.22146684  0.15756110  1
  H+  H110  1  0.15072539  0.53503556  0.83560534  1
  H+  H111  1  0.38544695  0.85864448  1.00311335  1
  H+  H112  1  0.64393006  0.10390863  0.65713806  1
  H+  H113  1  0.93806012  0.58336022  0.92886068  1
  H+  H114  1  0.21333019  0.19463375  0.47365056  1
  H+  H115  1  0.59874518  0.83448280  0.51813654  1
  H+  H116  1  0.37506312  0.13269105  0.15695482  1
  H+  H117  1  0.56872824  0.64748744  0.38205279  1
  H+  H118  1  1.02925269  0.87893584  0.83390795  1
  H+  H119  1  0.47610444  0.08124629  0.31213537  1
  H+  H120  1  0.87288963  0.22609368  0.66994461  1
  H+  H121  1  0.27358973  0.39669066  0.33612240  1
  H+  H122  1  0.60600023  -0.04154413  0.67206961  1
  H+  H123  1  0.23865943  0.38221147  0.65108628  1
  H+  H124  1  0.05513191  0.90665932  0.35543150  1
  H+  H125  1  0.11922281  0.39713442  0.49051835  1
  H+  H126  1  0.22742078  0.85884528  0.66548330  1
  H+  H127  1  0.53287935  0.37975984  0.01172487  1
  H+  H128  1  0.21685751  0.61467341  0.49109303  1
  H+  H129  1  0.66464999  0.32782988  0.57131071  1
  H+  H130  1  0.02875150  0.88294482  0.00165299  1
  H+  H131  1  0.61238895  0.11128838  0.00214697  1
  H+  H132  1  0.39715291  0.28583378  0.33139976  1
  H+  H133  1  0.90256180  0.11619560  0.65689528  1
  H+  H134  1  0.99988067  0.40494760  0.17269139  1
  H+  H135  1  0.14044909  0.61557678  0.99135225  1
  H+  H136  1  0.72079003  0.61326193  0.84003335  1
  H+  H137  1  0.14312231  0.27825216  0.33321094  1
  H+  H138  1  0.80249933  0.86611284  0.50855124  1
  H+  H139  1  0.87104476  0.02350647  0.84022415  1
  H+  H140  1  0.52810204  0.09476789  0.48171894  1
  H+  H141  1  0.08662766  0.41892979  0.39865673  1
  H+  H142  1  0.87635068  0.73302249  0.83941793  1
  H+  H143  1  0.56443422  0.64035446  0.04417909  1
  H+  H144  1  0.38366918  0.76878682  1.00729891  1
  H+  H145  1  0.62601690  0.22162799  0.82099277  1
  H+  H146  1  0.84999155  0.19310227  0.43146346  1
  H+  H147  1  0.62711879  0.60423064  0.84226268  1
  H+  H148  1  0.40133421  0.63286253  0.65266884  1
  H+  H149  1  0.87552507  0.95845698  0.41751506  1
  H+  H150  1  0.88291238  1.00902940  -0.00382790  1
  H+  H151  1  0.51267007  0.62492412  0.82641219  1
  H+  H152  1  0.47852720  0.60580861  0.49962045  1
  H+  H153  1  0.11679292  0.22214665  0.16510704  1
  H+  H154  1  0.48578514  0.62450725  0.65794567  1
  H+  H155  1  0.88762481  0.39601457  0.83950013  1
  H+  H156  1  0.98512427  0.37751928  0.50760142  1
  H+  H157  1  0.76568338  0.62741147  0.50898701  1
  H+  H158  1  0.38343947  0.29082206  0.51622582  1
  H+  H159  1  0.12536608  0.26778062  0.83967604  1
  H+  H160  1  0.86627567  0.14154931  0.82756726  1
  H+  H161  1  0.14535359  0.76297716  0.33514774  1
  H+  H162  1  0.35190146  0.62442087  0.48504023  1
  H+  H163  1  0.40905702  0.59634142  0.23996806  1
  H+  H164  1  0.89196110  1.01294492  0.17716874  1
  H+  H165  1  0.14277548  0.86523923  0.66602447  1
  H+  H166  1  0.33793820  0.16660911  0.77523175  1
  H+  H167  1  0.98246667  0.36736299  0.65852960  1
  H+  H168  1  0.66330037  0.31163636  0.13284497  1
  H+  H169  1  0.48543068  0.09162735  -0.01052469  1
  H+  H170  1  0.38417483  0.13514882  0.34026498  1
  H+  H171  1  0.89051500  0.62017313  0.32982307  1
  H+  H172  1  0.27697948  0.64294997  0.80939073  1
  H+  H173  1  0.61623215  0.87653694  0.67701722  1
  H+  H174  1  0.86634984  0.72038941  0.51292186  1
  H+  H175  1  0.36961716  0.22836249  0.83272268  1
  H+  H176  1  0.62990631  0.12460455  0.34275009  1
  H+  H177  1  -0.02414008  0.10665164  0.17973720  1
  H+  H178  1  0.61522899  0.24139136  0.98641126  1
  H+  H179  1  0.89426858  0.53562465  0.17793888  1
  H+  H180  1  0.12051994  0.97686132  0.15634632  1
  H+  H181  1  0.26831935  0.63833427  0.02011908  1
  H+  H182  1  0.41127395  0.06558455  0.22975740  1
  H+  H183  1  0.58258406  0.90991295  0.76900642  1
  H+  H184  1  0.59524227  0.62728141  0.14818758  1
  H+  H185  1  0.27914629  0.88189267  0.34425238  1
  H+  H186  1  0.14452495  0.86245790  0.17495354  1
  H+  H187  1  0.84211355  0.18272413  0.16665682  1
  H+  H188  1  0.53394754  0.13581071  0.82437202  1
  H+  H189  1  0.66387812  0.59080333  1.00343639  1
  H+  H190  1  0.54575622  0.37578316  0.83327602  1
  H+  H191  1  0.11390376  0.07960457  0.51179476  1
  H+  H192  1  0.88996047  0.36081353  0.65469518  1
  H+  H193  1  0.62439102  0.08091800  0.16954797  1
  H+  H194  1  0.77657296  0.88150850  0.15293771  1
  H+  H195  1  0.12393683  0.27043951  0.99288267  1
  H+  H196  1  0.62288725  0.33354556  0.99068711  1
  H+  H197  1  0.63051459  0.32567861  0.13739089  1
  H+  H198  1  0.85293804  0.72020892  0.32654788  1
  H+  H199  1  0.89293140  0.38401536  0.33316021  1
  H+  H200  1  0.60197657  0.98778883  0.36037289  1
  H+  H201  1  0.15034479  0.29381281  0.64262065  1
  H+  H202  1  0.52715824  0.12453904  0.66885616  1
  H+  H203  1  0.74376592  0.86738473  0.66125353  1
  H+  H204  1  0.40797876  0.35426254  1.03132236  1
  H+  H205  1  1.01444314  0.63134754  0.35919009  1
  H+  H206  1  0.10924961  0.13347345  0.15188957  1
  H+  H207  1  0.60273128  0.70776587  0.48358123  1
  H+  H208  1  0.17485902  0.58820798  0.93273684  1
  H+  H209  1  0.88304919  -0.01840502  0.66860160  1
  H+  H210  1  0.71581762  0.07964836  0.17120732  1
  H+  H211  1  0.38088614  0.00336911  0.32718204  1
  H+  H212  1  0.11173150  0.12712639  0.84549038  1
  H+  H213  1  0.09525406  0.93523077  0.50815326  1
  H+  H214  1  0.77380531  0.62924064  0.33749782  1
  H+  H215  1  0.62079971  0.97515150  0.82615817  1
  H+  H216  1  0.39283561  0.02387713  0.83880193  1
  H+  H217  1  0.90983316  0.31715845  0.18023399  1
  H+  H218  1  0.75295639  0.85548350  1.00463197  1
  H+  H219  1  0.38173254  1.00551343  0.17011081  1
  H+  H220  1  0.58663869  0.72634716  0.00895530  1
  H+  H221  1  0.75872877  0.96142387  0.78207361  1
  H+  H222  1  0.11512261  0.73196328  0.66903204  1
  H+  H223  1  0.22377340  0.83062841  0.53607911  1
  H+  H224  1  0.62406237  0.72892542  0.67947016  1
  H+  H225  1  0.98974797  0.37081162  0.83451801  1
  H+  H226  1  0.27059563  0.13942347  0.00491974  1
  H+  H227  1  0.14167293  0.77224739  0.17195642  1
  H+  H228  1  0.63103820  0.85958356  -0.00477457  1
  H+  H229  1  0.11439955  0.97367575  0.83849731  1
  H+  H230  1  0.13762933  0.36499960  0.32806328  1
  H+  H231  1  0.79794594  0.63181224  0.99805102  1
  H+  H232  1  0.47835302  0.86696636  0.33198482  1
  H+  H233  1  0.30263941  0.14444312  0.33971394  1
  H+  H234  1  0.16931040  0.08625971  0.91241074  1
  H+  H235  1  0.63406514  0.26606255  0.66061065  1
  H+  H236  1  0.63403634  0.52118013  0.33592200  1
  H+  H237  1  0.90067858  0.82408076  0.24777039  1
  H+  H238  1  0.70905070  0.85051134  0.84084574  1
  H+  H239  1  0.02822692  0.15070110  0.35023172  1
  H+  H240  1  0.96884866  0.61193082  0.48755392  1
  H+  H241  1  0.85031554  0.66735867  0.09261713  1
  H+  H242  1  0.63284786  0.35564486  0.66259899  1
  H+  H243  1  0.86741340  0.63280941  0.67965882  1
  H+  H244  1  0.90702970  0.52165671  0.84124548  1
  H+  H245  1  0.63661187  0.76528089  0.16715816  1
  H+  H246  1  0.42530183  0.13880270  0.52387767  1
  H+  H247  1  0.63897035  0.29533846  0.33582241  1
  H+  H248  1  0.62038776  0.97789617  0.16296740  1
  H+  H249  1  0.28384790  0.89518938  0.82974379  1
  H+  H250  1  0.34367913  0.39688523  -0.00892079  1
  H+  H251  1  0.89623564  0.85061538  0.97973567  1
  H+  H252  1  0.12198374  0.64170419  0.16404495  1
  H+  H253  1  0.12979643  0.73468453  0.82287272  1
  H+  H254  1  0.86642562  0.63957728  0.15859076  1
  H+  H255  1  0.11255273  0.48051868  0.00400422  1
  H+  H256  1  0.77696029  0.40144198  0.35097916  1
  H+  H257  1  0.88199548  0.25136751  0.49270405  1
  H+  H258  1  0.39401356  0.75809038  0.18190729  1
  H+  H259  1  0.65929380  0.35744223  0.83395189  1
  H+  H260  1  0.36449272  0.39929815  0.33959985  1
  H+  H261  1  0.64195177  0.10848071  0.83684238  1
  H+  H262  1  0.83830104  0.42632559  0.40888379  1
  H+  H263  1  0.47903476  0.36878013  0.52282122  1
  H+  H264  1  0.90237954  0.05290062  0.49322115  1
  H+  H265  1  0.61867305  0.87288244  0.15598111  1
  H+  H266  1  0.10604904  0.63971058  0.45941463  1
  H+  H267  1  0.23680169  0.36126944  0.17649098  1
  H+  H268  1  0.13478455  0.52299538  0.33145593  1
  H+  H269  1  0.22891401  0.11631202  0.85200998  1
  H+  H270  1  1.01528543  0.13232363  1.00839755  1
  H+  H271  1  0.12119885  0.49447900  0.66320686  1
  H+  H272  1  -0.10779134  0.05978989  0.35340972  1
  H+  H273  1  0.67191067  1.07419032  -0.07065826  1
  H+  H274  1  0.68359946  0.04402271  0.49386699  1
  H+  H275  1  0.60386505  0.62407600  0.32360186  1
  H+  H276  1  0.60260102  0.19048617  0.15499551  1
  H+  H277  1  0.14339463  0.77593223  -0.00469110  1
  H+  H278  1  0.33235129  0.43773685  0.42127871  1
  H+  H279  1  0.34586185  0.38355539  0.82507513  1
  H+  H280  1  0.78192840  0.39665438  0.15189088  1
  H+  H281  1  0.26673633  0.39851537  0.48600069  1
  H+  H282  1  0.63558309  0.26911361  0.51215937  1
  H+  H283  1  0.23967218  0.61494847  0.18853390  1
  H+  H284  1  0.32607550  0.66235874  0.42580524  1
  H+  H285  1  0.64921090  0.89694430  0.38316701  1
  H+  H286  1  0.36798213  0.39665288  0.67487285  1
  H+  H287  1  0.92588614  0.86714586  0.31431212  1
  H+  H288  1  0.33183198  0.18451208  0.43768800  1
  H+  H289  1  0.71632350  0.12266071  0.33886740  1
  H+  H290  1  0.41363800  0.34340398  0.91522269  1
  H+  H291  1  0.58827080  0.15620354  0.72707880  1
  H+  H292  1  0.59104559  0.18254856  0.41442630  1
  H+  H293  1  0.34003109  0.91018776  0.73822704  1
  H+  H294  1  0.92399452  0.59288511  0.23946430  1
  H+  H295  1  0.21420708  0.35688479  0.83645488  1
  H+  H296  1  0.42198971  0.58510170  0.56173959  1
  H+  H297  1  0.98177121  0.61775767  0.65793781  1
  H+  H298  1  0.79772691  0.39427238  0.83762538  1
  H+  H299  1  0.86118777  0.24769269  0.33718104  1
  H+  H300  1  0.92608919  0.82195137  0.61544354  1
  H+  H301  1  0.40179238  0.58725030  0.89010240  1
  H+  H302  1  0.42245029  0.06997918  0.92503525  1
  H+  H303  1  0.64307180  0.61488104  0.66652385  1
  H+  H304  1  0.78488248  0.95165020  0.40813469  1
  H+  H305  1  0.33912512  0.16069275  0.05735796  1
  H+  H306  1  0.66927722  0.55348076  0.27059513  1
  H+  H307  1  0.92756160  0.36586627  0.27087429  1
  H+  H308  1  0.13838127  0.04863258  0.57168177  1
  H+  H309  1  0.92303932  0.59267510  0.59870142  1
  H+  H310  1  0.90552953  0.06764569  0.93674399  1
  H+  H311  1  0.03207645  0.64084965  0.16427829  1
  H+  H312  1  0.37389555  0.52307873  0.83332441  1
  H+  H313  1  0.57387650  0.13128684  0.06291760  1
  H+  H314  1  0.17107974  0.59207843  0.24166581  1
  H+  H315  1  0.09178061  0.66933119  0.06630070  1
  H+  H316  1  0.69062904  0.83664219  0.21760367  1
  H+  H317  1  0.09615104  0.43253338  0.75974752  1
  H+  H318  1  0.79069887  0.92533667  0.27979565  1
  H+  H319  1  0.86262588  0.12793586  1.00722640  1
  H+  H320  1  0.59139004  0.41627214  0.73408583  1
  H+  H321  1  0.15718940  0.59615893  0.54822607  1
  H+  H322  1  0.08487916  0.91237885  0.06385718  1
  H+  H323  1  0.19146322  0.10769879  0.21422479  1
  H+  H324  1  0.86613758  0.47225816  0.65984585  1
  H+  H325  1  0.58384871  0.90484108  0.09625190  1
  H+  H326  1  0.17545420  0.81509866  0.27219541  1
  H+  H327  1  0.03200678  0.88985067  0.68375357  1
  H+  H328  1  0.08807265  0.43531607  0.10322099  1
  H+  H329  1  0.65469400  0.82400389  0.93485900  1
  H+  H330  1  0.66989934  0.58599099  0.57309769  1
  H+  H331  1  0.55804242  0.92081769  0.41646534  1
  H+  H332  1  0.79723033  0.84206307  0.28568971  1
  H+  H333  1  0.84119535  0.16866075  0.76452434  1
  H+  H334  1  0.91727652  0.08783447  0.28197049  1
  H+  H335  1  0.85081567  0.42785228  0.06367703  1
  H+  H336  1  0.58183205  0.42119119  0.44886505  1
  H+  H337  1  0.90518901  0.84554309  0.52202649  1
  H+  H338  1  0.33316234  0.91518359  0.06707962  1
  H+  H339  1  0.68145953  0.07882453  0.60023377  1
  H+  H340  1  0.10792809  0.19969886  0.70843152  1
  H+  H341  1  0.06285025  0.12687014  0.78651502  1
  H+  H342  1  0.17763275  0.83630007  0.89953313  1
  H+  H343  1  0.11446084  0.48511390  0.48803073  1
  H+  H344  1  0.09013930  0.66998341  0.72706320  1
  H+  H345  1  0.83693283  0.65477832  0.74260990  1
  H+  H346  1  0.32372748  0.41672534  0.76337938  1
  H+  H347  1  0.38943391  0.10104689  0.67192627  1
  H+  H348  1  0.52101306  0.39813684  0.35140621  1
  H+  H349  1  0.93119978  0.82317126  0.91940452  1
  H+  H350  1  0.15171979  0.32860941  0.93183251  1
  H+  H351  1  0.09339067  0.92214812  0.74180258  1
  H+  H352  1  0.58313077  0.66330606  0.73568548  1
  H+  H353  1  0.13162008  0.18194470  0.43577515  1
  H+  H354  1  0.36969531  0.22398278  0.68266677  1
  H+  H355  1  0.37792199  0.08006124  0.57865631  1
  H+  H356  1  0.15318899  0.62485009  0.83607338  1
  H+  H357  1  0.42264728  0.83361123  0.26977374  1
  H+  H358  1  0.34346783  0.68597719  0.72436719  1
  H+  H359  1  0.35932463  0.72982580  0.34226786  1
  H+  H360  1  0.67506014  0.57506068  0.93272149  1
  H+  H361  1  0.39673461  0.96706539  0.43257387  1
  H+  H362  1  0.92652580  0.34144513  0.56856900  1
  H+  H363  1  0.51524447  0.64240464  0.16261559  1
  H+  H364  1  0.18600550  0.32301024  0.23961849  1
  H+  H365  1  0.07082882  0.00495178  0.27398059  1
  H+  H366  1  0.67111203  0.37376791  0.28589389  1
  H+  H367  1  0.67254403  0.82884366  0.60750352  1
  H+  H368  1  0.18457452  0.35129679  0.55739180  1
  H+  H369  1  0.66675683  0.46267403  0.19138317  1
  H+  H370  1  0.70156086  0.85682067  0.35462553  1
  H+  H371  1  0.41459706  0.33556462  0.61241157  1
  H+  H372  1  0.55910953  0.75246307  0.55778515  1
  H+  H373  1  0.32631925  0.43892676  0.09586434  1
  H+  H374  1  0.61081725  0.96879778  0.00647194  1
  H+  H375  1  0.83775262  0.91292990  0.09621154  1
  H+  H376  1  0.04358038  0.64285878  0.82401680  1
  H+  H377  1  0.39005971  0.78723318  0.57599992  1
  H+  H378  1  0.37046841  0.48795461  0.67203339  1
  H+  H379  1  0.93116946  0.08894262  0.59559794  1
  H+  H380  1  0.23296497  0.63485713  0.64443758  1
  H+  H381  1  0.79492516  0.80999335  0.03886073  1
  H+  H382  1  0.71899238  0.60486232  0.12832995  1
  H+  H383  1  0.42417636  0.84466283  0.90907652  1
  O2-  O384  1  0.07676909  0.16412595  0.14673945  1
  O2-  O385  1  0.15701740  0.19235210  0.47711021  1
  O2-  O386  1  0.07400474  0.14957421  0.82777490  1
  O2-  O387  1  0.08401933  0.43643535  0.14831701  1
  O2-  O388  1  0.08490132  0.42255737  0.47556816  1
  O2-  O389  1  0.09546012  0.43221120  0.80516527  1
  O2-  O390  1  0.09054686  0.66919570  0.14613639  1
  O2-  O391  1  0.06507444  0.65705957  0.44245273  1
  O2-  O392  1  0.10282981  0.67502677  0.80638880  1
  O2-  O393  1  0.09120786  0.91558341  0.14427366  1
  O2-  O394  1  0.07385131  0.87303158  0.49941088  1
  O2-  O395  1  0.09122317  0.91613526  0.81991579  1
  O2-  O396  1  0.34652980  0.16360527  0.13946059  1
  O2-  O397  1  0.30919710  0.18903879  0.47743653  1
  O2-  O398  1  0.33839644  0.16759861  0.82118837  1
  O2-  O399  1  0.33039279  0.44072227  0.14062351  1
  O2-  O400  1  0.32987614  0.43449593  0.46784700  1
  O2-  O401  1  0.31662426  0.41331708  0.80897407  1
  O2-  O402  1  0.35336470  0.64771613  0.16523836  1
  O2-  O403  1  0.32079199  0.65420014  0.47281386  1
  O2-  O404  1  0.33307852  0.66687886  0.78738826  1
  O2-  O405  1  0.33425499  0.90575099  0.14457753  1
  O2-  O406  1  0.42928273  1.00030122  0.46857092  1
  O2-  O407  1  0.34465299  0.92740926  0.81470944  1
  O2-  O408  1  0.57258428  0.12959799  0.14404780  1
  O2-  O409  1  0.58450380  0.14973000  0.48445225  1
  O2-  O410  1  0.59217536  0.16018196  0.80652023  1
  O2-  O411  1  0.61805967  0.48846566  0.13461023  1
  O2-  O412  1  0.58682127  0.42076287  0.49415665  1
  O2-  O413  1  0.60094488  0.41425556  0.81414752  1
  O2-  O414  1  0.57837616  0.66765607  0.16435042  1
  O2-  O415  1  0.57710201  0.64812860  0.46829326  1
  O2-  O416  1  0.57505766  0.65310859  0.81451254  1
  O2-  O417  1  0.58550287  0.90332471  0.14293181  1
  O2-  O418  1  0.54972963  0.89360628  0.49662445  1
  O2-  O419  1  0.58868966  0.91304425  0.81421921  1
  O2-  O420  1  0.81786998  0.12594148  0.14852260  1
  O2-  O421  1  0.85484632  0.19071671  0.47671788  1
  O2-  O422  1  0.83562737  0.16939448  0.80981318  1
  O2-  O423  1  0.84237405  0.43496163  0.14187074  1
  O2-  O424  1  0.83416662  0.42007291  0.48582452  1
  O2-  O425  1  0.85948781  0.43086684  0.82857639  1
  O2-  O426  1  0.83690742  0.66661313  0.13695003  1
  O2-  O427  1  0.82925535  0.65900721  0.49451043  1
  O2-  O428  1  0.83303986  0.66332352  0.82891929  1
  O2-  O429  1  0.83926358  0.91502537  0.14145132  1
  O2-  O430  1  0.84984566  0.99467104  0.41314411  1
  O2-  O431  1  0.79569445  0.93950023  0.79605876  1
  O2-  O432  1  0.18169183  0.09112822  0.17152772  1
  O2-  O433  1  0.10513587  0.02796550  0.53347153  1
  O2-  O434  1  0.16845540  0.08624851  0.86653759  1
  O2-  O435  1  0.19917269  0.30701867  0.19923104  1
  O2-  O436  1  0.18281308  0.34687255  0.51139324  1
  O2-  O437  1  0.15454463  0.32822828  0.85339837  1
  O2-  O438  1  0.17842048  0.59513934  0.19619535  1
  O2-  O439  1  0.15497533  0.58838280  0.50335317  1
  O2-  O440  1  0.18350061  0.59477361  0.85217382  1
  O2-  O441  1  0.17476128  0.83193015  0.18879545  1
  O2-  O442  1  0.24189191  0.80917087  0.50183252  1
  O2-  O443  1  0.18006327  0.83851949  0.85423250  1
  O2-  O444  1  0.41442676  0.06747611  0.18422038  1
  O2-  O445  1  0.36834409  0.09337466  0.53593972  1
  O2-  O446  1  0.42560527  0.08377740  0.85790669  1
  O2-  O447  1  0.36332269  0.31984675  0.19880167  1
  O2-  O448  1  0.41996583  0.34403056  0.53918731  1
  O2-  O449  1  0.41857359  0.35232622  0.87026552  1
  O2-  O450  1  0.40219807  0.60260148  0.18017353  1
  O2-  O451  1  0.41850722  0.58099237  0.51619007  1
  O2-  O452  1  0.40885973  0.58457105  0.84488553  1
  O2-  O453  1  0.41702787  0.82065891  0.18886864  1
  O2-  O454  1  0.39384625  0.79883595  0.53190136  1
  O2-  O455  1  0.42516918  0.85710534  0.86522749  1
  O2-  O456  1  0.65337605  0.04789115  0.18291631  1
  O2-  O457  1  0.69875311  0.09661988  0.51605573  1
  O2-  O458  1  0.67313351  0.07923856  0.85280848  1
  O2-  O459  1  0.69558134  0.45486566  0.22774811  1
  O2-  O460  1  0.66633673  0.32961541  0.52515150  1
  O2-  O461  1  0.68279355  0.32178328  0.84924204  1
  O2-  O462  1  0.65827359  0.57842920  0.11349532  1
  O2-  O463  1  0.67188402  0.58431768  0.52737186  1
  O2-  O464  1  0.66134535  0.57702200  0.85660613  1
  O2-  O465  1  0.67291766  0.83047744  0.17403103  1
  O2-  O466  1  0.61261526  0.79225396  0.53729297  1
  O2-  O467  1  0.65094623  0.81740913  0.85866106  1
  O2-  O468  1  0.91583923  0.07130873  0.19583699  1
  O2-  O469  1  0.93309578  0.10180960  0.52082851  1
  O2-  O470  1  0.90649885  0.07796361  0.86330256  1
  O2-  O471  1  0.93640497  0.37732435  0.19148228  1
  O2-  O472  1  0.92455983  0.34713993  0.52284916  1
  O2-  O473  1  0.93324169  0.34029764  0.85517824  1
  O2-  O474  1  0.92241547  0.59536681  0.19375184  1
  O2-  O475  1  0.91572793  0.58539736  0.51263119  1
  O2-  O476  1  0.94217882  0.58801841  0.85242214  1
  O2-  O477  1  0.92119789  0.82982750  0.17715546  1
  O2-  O478  1  0.92490674  0.80760098  0.53775190  1
  O2-  O479  1  0.92936811  0.81747086  0.85443152  1
  O2-  O480  1  0.09071816  0.01695982  0.31604471  1
  O2-  O481  1  0.18162614  0.08249246  0.64811188  1
  O2-  O482  1  0.16269181  0.08507418  0.98776525  1
  O2-  O483  1  0.17207758  0.33730236  0.31586033  1
  O2-  O484  1  0.18061658  0.35569348  0.63126494  1
  O2-  O485  1  0.15340507  0.33093320  0.97738930  1
  O2-  O486  1  0.16028064  0.58422135  0.31783535  1
  O2-  O487  1  0.17231817  0.59989292  0.63186454  1
  O2-  O488  1  0.16847033  0.58230211  0.97807181  1
  O2-  O489  1  0.18450037  0.81890802  0.31658716  1
  O2-  O490  1  0.16812115  0.83160326  0.64936236  1
  O2-  O491  1  0.17494620  0.83660554  0.97983537  1
  O2-  O492  1  0.41633873  0.06735695  0.30847459  1
  O2-  O493  1  0.41481472  0.07135463  0.64898705  1
  O2-  O494  1  0.42372638  0.06442908  0.97251772  1
  O2-  O495  1  0.41855986  0.34533187  0.31730676  1
  O2-  O496  1  0.41285506  0.33500747  0.65869226  1
  O2-  O497  1  0.41786704  0.33002687  0.99457458  1
  O2-  O498  1  0.41898727  0.58836736  0.29010684  1
  O2-  O499  1  0.42673056  0.59705810  0.64000473  1
  O2-  O500  1  0.39374652  0.58829301  0.96651023  1
  O2-  O501  1  0.41895252  0.83605403  0.31474190  1
  O2-  O502  1  0.39421355  0.78548184  0.66049915  1
  O2-  O503  1  0.41767790  0.82914020  0.99136009  1
  O2-  O504  1  0.65356273  0.08760562  0.33187425  1
  O2-  O505  1  0.67482473  0.07287623  0.64497250  1
  O2-  O506  1  0.66919852  0.07062077  0.97522497  1
  O2-  O507  1  0.67062196  0.35853509  0.32922743  1
  O2-  O508  1  0.66267198  0.32632225  0.64518131  1
  O2-  O509  1  0.63401141  0.29568072  0.96450724  1
  O2-  O510  1  0.66674911  0.57502835  0.31092384  1
  O2-  O511  1  0.67226226  0.58399865  0.65053240  1
  O2-  O512  1  0.68936472  0.56736513  0.97575791  1
  O2-  O513  1  0.69207513  0.87885725  0.39317613  1
  O2-  O514  1  0.68077437  0.83441251  0.65227408  1
  O2-  O515  1  0.65810143  0.82583095  0.98054093  1
  O2-  O516  1  0.92437475  0.10902486  0.32422397  1
  O2-  O517  1  0.93498223  0.08814607  0.64157469  1
  O2-  O518  1  0.90881142  0.06870495  0.98280984  1
  O2-  O519  1  0.92257067  0.35427539  0.31534868  1
  O2-  O520  1  0.92300902  0.33036897  0.64307101  1
  O2-  O521  1  0.92062571  0.33079041  1.00069453  1
  O2-  O522  1  0.92420208  0.59064166  0.31804019  1
  O2-  O523  1  0.92037201  0.58902623  0.64353802  1
  O2-  O524  1  0.93532901  0.57841466  0.97456019  1
  O2-  O525  1  0.87954050  0.82093360  0.29133544  1
  O2-  O526  1  0.92437775  0.82926796  0.66040446  1
  O2-  O527  1  0.93111835  0.82471681  0.96843428  1
  O2-  O528  1  0.07579654  0.16775555  0.02240179  1
  O2-  O529  1  0.09000959  0.17099966  0.35961796  1
  O2-  O530  1  0.10236298  0.18548154  0.66537851  1
  O2-  O531  1  0.08315464  0.42180885  0.02354899  1
  O2-  O532  1  0.08776974  0.41822555  0.35295223  1
  O2-  O533  1  0.09358060  0.43486919  0.68007535  1
  O2-  O534  1  0.09495114  0.67265023  0.02099586  1
  O2-  O535  1  0.07495233  0.65614298  0.37605374  1
  O2-  O536  1  0.08480533  0.66909500  0.68182309  1
  O2-  O537  1  0.08851025  0.91719177  0.01866139  1
  O2-  O538  1  0.05057553  0.85682183  0.37680898  1
  O2-  O539  1  0.09337943  0.92396665  0.69626753  1
  O2-  O540  1  0.33349107  0.16885039  0.01348245  1
  O2-  O541  1  0.36093111  0.17217125  0.35565517  1
  O2-  O542  1  0.34180341  0.16368538  0.69812620  1
  O2-  O543  1  0.31500650  0.42354452  0.01186662  1
  O2-  O544  1  0.33550272  0.43290972  0.34956505  1
  O2-  O545  1  0.33655539  0.42775830  0.68693669  1
  O2-  O546  1  0.32815750  0.66516773  0.03608488  1
  O2-  O547  1  0.32806155  0.67002397  0.35791320  1
  O2-  O548  1  0.35113483  0.69276702  0.67515716  1
  O2-  O549  1  0.33426954  0.91657064  0.02140405  1
  O2-  O550  1  0.34201116  0.92040124  0.35509966  1
  O2-  O551  1  0.33766451  0.90508868  0.69269460  1
  O2-  O552  1  0.57453958  0.13389603  0.01778321  1
  O2-  O553  1  0.58307913  0.19248078  0.36993087  1
  O2-  O554  1  0.58861019  0.15655601  0.68156071  1
  O2-  O555  1  0.59324844  0.40747104  0.02591915  1
  O2-  O556  1  0.57842985  0.42734113  0.37131251  1
  O2-  O557  1  0.58541398  0.41461539  0.68911774  1
  O2-  O558  1  0.53927518  0.67208066  0.02645323  1
  O2-  O559  1  0.56905508  0.64986745  0.33715379  1
  O2-  O560  1  0.58782897  0.66688605  0.69024700  1
  O2-  O561  1  0.58078529  0.91002487  0.02501587  1
  O2-  O562  1  0.57211129  0.92543703  0.37252908  1
  O2-  O563  1  0.57796177  0.89932831  0.68911533  1
  O2-  O564  1  0.83364579  0.15878631  0.02375698  1
  O2-  O565  1  0.83133706  0.18779297  0.35362788  1
  O2-  O566  1  0.84608074  0.16546854  0.68545614  1
  O2-  O567  1  0.85609276  0.41901437  0.01949995  1
  O2-  O568  1  0.83850126  0.42945212  0.36327368  1
  O2-  O569  1  0.83970373  0.41016912  0.66829312  1
  O2-  O570  1  0.85724482  0.66542129  0.01452392  1
  O2-  O571  1  0.83594780  0.66525131  0.34710885  1
  O2-  O572  1  0.83617679  0.66077093  0.69802408  1
  O2-  O573  1  0.80993201  0.86635997  0.02255248  1
  O2-  O574  1  0.75530825  0.86301572  0.28141373  1
  O2-  O575  1  0.84862446  0.92296150  0.68682920  1
