# generated using pymatgen
data_H2O
_symmetry_space_group_name_H-M   'P 1'
_cell_length_a   17.99131610
_cell_length_b   17.99035056
_cell_length_c   21.99790724
_cell_angle_alpha   90.01899685
_cell_angle_beta   89.98207370
_cell_angle_gamma   119.98008260
_symmetry_Int_Tables_number   1
_chemical_formula_structural   H2O
_chemical_formula_sum   'H384 O192'
_cell_volume   6167.39346545
_cell_formula_units_Z   192
loop_
 _symmetry_equiv_pos_site_id
 _symmetry_equiv_pos_as_xyz
  1  'x, y, z'
loop_
 _atom_type_symbol
 _atom_type_oxidation_number
  H+  1.0
  O2-  -2.0
loop_
 _atom_site_type_symbol
 _atom_site_label
 _atom_site_symmetry_multiplicity
 _atom_site_fract_x
 _atom_site_fract_y
 _atom_site_fract_z
 _atom_site_occupancy
  H+  H0  1  1.03209651  0.63415353  0.15556471  1
  H+  H1  1  0.09617153  0.38390413  0.33261846  1
  H+  H2  1  0.71548769  0.11010808  0.33323398  1
  H+  H3  1  -0.00079264  0.10232200  -0.00625853  1
  H+  H4  1  0.36825706  0.97889292  0.84556169  1
  H+  H5  1  0.63179320  0.61869428  0.33451344  1
  H+  H6  1  0.45114525  0.03209912  0.62708646  1
  H+  H7  1  0.72518763  0.85872172  0.50847097  1
  H+  H8  1  0.90416620  0.31983843  0.93281195  1
  H+  H9  1  0.64152673  0.11760749  0.66967884  1
  H+  H10  1  0.41438254  0.55315047  0.98589643  1
  H+  H11  1  0.98377928  0.60669019  0.35509106  1
  H+  H12  1  0.63906262  0.11161216  0.84632087  1
  H+  H13  1  0.87706474  0.76043916  0.48924643  1
  H+  H14  1  0.62558867  0.05996914  0.24110697  1
  H+  H15  1  0.12739252  0.00341107  0.31598771  1
  H+  H16  1  0.69222811  0.59556053  0.17504344  1
  H+  H17  1  0.26175064  0.10410617  0.82206393  1
  H+  H18  1  0.52782378  0.64212866  0.49814498  1
  H+  H19  1  0.11105728  0.85127047  0.64858261  1
  H+  H20  1  0.75798921  0.87388697  0.33925788  1
  H+  H21  1  0.88745884  0.77262823  0.83921383  1
  H+  H22  1  0.25875901  0.80800213  0.36139009  1
  H+  H23  1  0.13246238  1.02638383  0.85428176  1
  H+  H24  1  0.11543700  0.64472528  0.82469341  1
  H+  H25  1  0.13612828  0.27636245  0.17054282  1
  H+  H26  1  0.48391589  0.88158228  0.32528332  1
  H+  H27  1  0.34197903  0.18149351  0.41240118  1
  H+  H28  1  -0.04133771  0.85173442  0.63514150  1
  H+  H29  1  0.11570631  0.71991331  0.49423654  1
  H+  H30  1  0.37512521  -0.02224775  0.15036122  1
  H+  H31  1  0.11454376  0.64072989  0.67555506  1
  H+  H32  1  0.06671752  0.89195295  0.15914686  1
  H+  H33  1  0.72969833  0.86284212  0.17604491  1
  H+  H34  1  0.48457822  0.60981176  0.66631879  1
  H+  H35  1  0.28583102  0.63546069  0.50879223  1
  H+  H36  1  0.25120494  0.88940755  0.17909615  1
  H+  H37  1  0.39531160  0.35480125  0.17761838  1
  H+  H38  1  0.37865121  0.71977029  0.66833826  1
  H+  H39  1  0.39587209  0.62139347  0.83299054  1
  H+  H40  1  0.38646058  0.74221562  1.00914914  1
  H+  H41  1  0.41705012  0.85044136  0.65943408  1
  H+  H42  1  0.24504523  0.93125019  0.23906746  1
  H+  H43  1  0.88121788  0.36191839  0.50457401  1
  H+  H44  1  0.15788818  0.53002009  0.16145384  1
  H+  H45  1  0.33173034  0.42038976  0.43700706  1
  H+  H46  1  0.98178241  0.86072034  0.99537321  1
  H+  H47  1  0.09926901  0.97812713  0.66412888  1
  H+  H48  1  0.86426808  0.63712499  0.66836630  1
  H+  H49  1  0.62131933  0.24498537  0.00985404  1
  H+  H50  1  0.11563902  0.28241531  0.31190438  1
  H+  H51  1  0.91320845  0.46460650  0.80499611  1
  H+  H52  1  0.84147739  0.62929754  0.32965898  1
  H+  H53  1  0.49341078  0.87005300  0.84672414  1
  H+  H54  1  0.14122583  0.53055677  0.67316031  1
  H+  H55  1  0.09775946  0.07621751  0.50852279  1
  H+  H56  1  0.74197471  0.59356494  0.99938424  1
  H+  H57  1  0.72350956  0.61171980  0.83633138  1
  H+  H58  1  0.65811090  0.58468614  0.27515541  1
  H+  H59  1  0.87464418  0.76567483  0.20923670  1
  H+  H60  1  -0.02671116  0.61500503  0.50157716  1
  H+  H61  1  0.12329869  0.73491068  0.00949268  1
  H+  H62  1  0.36612000  0.87218379  0.49882497  1
  H+  H63  1  -0.01022318  0.36169862  0.33743437  1
  H+  H64  1  0.89189657  0.86376480  0.84745458  1
  H+  H65  1  1.01954909  0.16980326  0.33232399  1
  H+  H66  1  0.19566947  0.51013087  0.54146647  1
  H+  H67  1  0.39194994  0.86327438  0.16968269  1
  H+  H68  1  0.27573649  0.86948979  0.49533060  1
  H+  H69  1  0.24837106  0.11091751  0.51344903  1
  H+  H70  1  0.84080994  0.12092452  0.33701953  1
  H+  H71  1  0.86510895  0.39141265  1.00362803  1
  H+  H72  1  0.51881493  0.14192972  0.34585091  1
  H+  H73  1  0.98864394  0.62368491  1.00513691  1
  H+  H74  1  0.42436753  0.56008373  0.19470161  1
  H+  H75  1  0.71963100  0.36428548  0.17484732  1
  H+  H76  1  0.54591341  0.69004179  0.97341887  1
  H+  H77  1  0.39195005  0.29698003  0.98822997  1
  H+  H78  1  0.14263211  0.12568678  0.16815438  1
  H+  H79  1  0.88864636  1.00126158  0.67191963  1
  H+  H80  1  0.39655986  0.28901566  0.33578288  1
  H+  H81  1  0.97420498  0.61973442  0.84541897  1
  H+  H82  1  0.64741220  0.43294374  0.99454781  1
  H+  H83  1  0.63361468  0.36050884  0.84701784  1
  H+  H84  1  0.02260443  0.63655349  0.67096546  1
  H+  H85  1  0.23201179  0.61813422  0.66817036  1
  H+  H86  1  0.89208286  0.28755958  0.66111209  1
  H+  H87  1  0.22322271  0.08218968  0.31446648  1
  H+  H88  1  0.23452671  0.12985988  -0.00539125  1
  H+  H89  1  0.16775763  0.22277751  0.37806081  1
  H+  H90  1  0.12811256  0.77298632  0.66012898  1
  H+  H91  1  0.07788203  0.43220635  0.85676217  1
  H+  H92  1  0.86680630  0.89494665  0.16568157  1
  H+  H93  1  0.62255122  0.88422741  0.83594837  1
  H+  H94  1  0.27697229  0.38894766  0.68007764  1
  H+  H95  1  0.38470549  0.74303277  0.82634855  1
  H+  H96  1  0.49818887  0.13899784  0.50252269  1
  H+  H97  1  0.87106350  0.19589881  0.08926047  1
  H+  H98  1  0.26745499  0.38637522  0.33919878  1
  H+  H99  1  0.16656675  0.55426457  0.83891229  1
  H+  H100  1  0.62386931  0.40128287  0.66278862  1
  H+  H101  1  0.58148973  0.91240411  0.40092356  1
  H+  H102  1  0.27901007  0.41970468  0.01202575  1
  H+  H103  1  0.54337321  0.62659925  0.14640509  1
  H+  H104  1  0.37437119  0.03365481  0.65982046  1
  H+  H105  1  0.61790282  0.48718115  0.34502281  1
  H+  H106  1  0.13603457  0.76371614  0.83283013  1
  H+  H107  1  0.53675811  0.40469300  0.66322207  1
  H+  H108  1  0.96939005  0.24960231  0.10884674  1
  H+  H109  1  0.77424022  0.63772352  0.66773861  1
  H+  H110  1  0.64564827  0.28086644  0.65951096  1
  H+  H111  1  0.61057755  0.22933546  0.16352545  1
  H+  H112  1  0.12449804  0.35862281  -0.00481197  1
  H+  H113  1  0.86636503  0.13038432  0.49921382  1
  H+  H114  1  0.37599539  0.03344629  0.33339900  1
  H+  H115  1  0.83601442  0.41642154  0.72784135  1
  H+  H116  1  0.62845428  0.14855031  0.49503399  1
  H+  H117  1  0.61773524  0.64527542  0.49214307  1
  H+  H118  1  0.66200315  0.29001003  0.50264096  1
  H+  H119  1  0.77683453  0.13365706  0.20165965  1
  H+  H120  1  0.37812975  0.12225421  0.33243715  1
  H+  H121  1  0.64148213  0.77163236  0.66521455  1
  H+  H122  1  0.84219834  0.38150778  0.15734528  1
  H+  H123  1  0.37125299  0.86740552  0.33485907  1
  H+  H124  1  0.87484361  0.75761035  0.64560949  1
  H+  H125  1  0.13609694  0.11051894  0.99308942  1
  H+  H126  1  0.87051518  0.24561177  0.83722687  1
  H+  H127  1  0.53075361  0.14052241  0.83472739  1
  H+  H128  1  0.13621250  0.85699869  0.85200369  1
  H+  H129  1  0.34627788  0.65853772  0.40670957  1
  H+  H130  1  0.18363533  0.61199982  0.89870216  1
  H+  H131  1  0.39444445  0.37240487  0.50633690  1
  H+  H132  1  0.02646711  0.39555247  0.67901448  1
  H+  H133  1  0.77340176  0.14428063  0.66799579  1
  H+  H134  1  0.63241237  0.36649070  0.33169735  1
  H+  H135  1  0.85151070  0.00529126  0.31827048  1
  H+  H136  1  0.15130316  0.28532565  0.99364279  1
  H+  H137  1  0.51989991  0.14282640  0.15827917  1
  H+  H138  1  0.11514647  0.24032367  0.51335298  1
  H+  H139  1  0.08553733  0.81962248  0.31011205  1
  H+  H140  1  0.61977136  -0.11064732  0.49771891  1
  H+  H141  1  0.53426465  0.14454842  0.68173042  1
  H+  H142  1  0.96234415  0.33123031  0.83879842  1
  H+  H143  1  0.59622740  0.95774034  0.16713011  1
  H+  H144  1  0.13629455  0.85329214  0.49934287  1
  H+  H145  1  0.13248696  0.80721733  0.25477681  1
  H+  H146  1  0.14940958  0.37101844  0.16142197  1
  H+  H147  1  0.73211708  0.37721462  0.99583151  1
  H+  H148  1  0.77560222  0.39038489  0.66836609  1
  H+  H149  1  0.62164467  0.63977974  0.67223473  1
  H+  H150  1  0.72656280  0.36482888  0.84366023  1
  H+  H151  1  0.87106751  0.25289953  0.33594443  1
  H+  H152  1  0.37596272  0.23426385  0.16463058  1
  H+  H153  1  0.86527362  0.97011079  -0.00122159  1
  H+  H154  1  0.48379670  0.37881213  0.33363809  1
  H+  H155  1  0.60630520  0.72488874  0.33783429  1
  H+  H156  1  0.86890812  0.64449169  0.02858156  1
  H+  H157  1  0.84815929  0.87736718  0.33120437  1
  H+  H158  1  0.32860039  0.86821435  0.66513265  1
  H+  H159  1  0.37185160  0.72897609  0.16109625  1
  H+  H160  1  0.29862136  0.62650181  0.34458012  1
  H+  H161  1  0.00778476  0.88142783  0.32883979  1
  H+  H162  1  0.48755331  0.86245372  0.50841144  1
  H+  H163  1  0.12342651  0.23432201  0.82185943  1
  H+  H164  1  0.83424030  0.67153295  0.76300211  1
  H+  H165  1  0.86732677  0.36835874  0.82368612  1
  H+  H166  1  0.12139678  -0.02087070  1.00004987  1
  H+  H167  1  0.18146661  0.63222869  0.32384502  1
  H+  H168  1  0.86313794  0.16149897  0.64391356  1
  H+  H169  1  0.37326776  0.23922689  0.50004022  1
  H+  H170  1  0.23613800  0.85532137  0.00334244  1
  H+  H171  1  0.62824536  0.71027983  0.16603812  1
  H+  H172  1  0.36207858  0.94625702  -0.00490441  1
  H+  H173  1  0.63240449  0.86072977  0.32577156  1
  H+  H174  1  0.29528398  0.65797005  0.00305481  1
  H+  H175  1  0.09403834  0.46702926  0.48678182  1
  H+  H176  1  0.88217658  0.53748752  0.85790271  1
  H+  H177  1  0.60798524  0.45977448  0.83498846  1
  H+  H178  1  0.83108067  0.68288633  0.12170808  1
  H+  H179  1  0.14903506  0.64018309  0.99309332  1
  H+  H180  1  0.01995781  0.05370197  0.04340925  1
  H+  H181  1  0.01176871  0.14283615  0.36041383  1
  H+  H182  1  0.05341616  0.40008250  0.14942261  1
  H+  H183  1  0.23361632  0.86131266  0.84279843  1
  H+  H184  1  0.12470231  0.96975702  0.48949930  1
  H+  H185  1  0.63707904  0.85359821  0.17569783  1
  H+  H186  1  0.11317806  0.63030288  0.49326222  1
  H+  H187  1  0.14670399  0.38732519  0.51441289  1
  H+  H188  1  0.60775032  0.23023293  0.34171867  1
  H+  H189  1  0.67319280  0.83265225  0.60605750  1
  H+  H190  1  0.54113606  0.41000672  0.16230013  1
  H+  H191  1  0.76756802  0.12424223  0.82739058  1
  H+  H192  1  1.03212681  0.13516570  0.67387281  1
  H+  H193  1  0.59072530  0.66547639  0.73384059  1
  H+  H194  1  0.12040411  0.14481176  0.82168788  1
  H+  H195  1  0.37198495  0.16584140  0.00574895  1
  H+  H196  1  0.84814918  0.37594510  0.34612496  1
  H+  H197  1  0.62698053  0.11101506  0.33533575  1
  H+  H198  1  0.53341131  0.39402336  0.49919234  1
  H+  H199  1  0.29361976  0.15238486  0.67109406  1
  H+  H200  1  0.94885966  0.38493449  0.19621054  1
  H+  H201  1  0.38855430  0.86222011  1.00482256  1
  H+  H202  1  0.62535526  0.40762262  0.16619210  1
  H+  H203  1  0.77359597  0.87645444  0.68092772  1
  H+  H204  1  0.39409330  0.60792430  0.66529143  1
  H+  H205  1  0.61968409  0.23007996  0.83552532  1
  H+  H206  1  0.36373028  0.90057272  0.68582524  1
  H+  H207  1  0.90164064  0.28809321  0.16993528  1
  H+  H208  1  0.47769333  0.85615064  0.17388794  1
  H+  H209  1  0.73090739  0.11172560  0.51177626  1
  H+  H210  1  0.16901512  0.56237590  0.99174582  1
  H+  H211  1  0.61484553  0.63313602  0.82835226  1
  H+  H212  1  0.28178970  0.14933423  0.15813383  1
  H+  H213  1  0.40242767  0.29207826  0.65934935  1
  H+  H214  1  0.88403272  0.52615233  0.16338247  1
  H+  H215  1  0.40558026  0.63614043  0.98687007  1
  H+  H216  1  0.67917996  0.33837291  0.59798626  1
  H+  H217  1  0.38385803  0.15459915  0.49526222  1
  H+  H218  1  0.15074064  0.86446971  1.00168799  1
  H+  H219  1  0.35855506  0.39008944  0.34162352  1
  H+  H220  1  0.96250312  0.34421795  0.99371623  1
  H+  H221  1  0.54794671  0.88966598  0.67766992  1
  H+  H222  1  0.89521112  0.31360811  0.27514635  1
  H+  H223  1  0.86507789  0.21993771  0.49791880  1
  H+  H224  1  0.64641080  0.02957175  0.66920954  1
  H+  H225  1  0.86116265  0.72717432  0.01894467  1
  H+  H226  1  -0.03301241  0.07681396  0.51315676  1
  H+  H227  1  0.38375679  0.15908581  0.66508296  1
  H+  H228  1  0.40203407  0.06469056  1.01357789  1
  H+  H229  1  0.27769703  0.18691929  0.36903894  1
  H+  H230  1  0.63795936  0.89655592  0.68069154  1
  H+  H231  1  0.49406481  0.14367510  -0.00025265  1
  H+  H232  1  0.87296068  0.85791078  0.49281357  1
  H+  H233  1  0.60981188  0.97482616  0.34354554  1
  H+  H234  1  0.63919689  0.76614738  0.83714198  1
  H+  H235  1  0.62489156  0.39678627  0.49785729  1
  H+  H236  1  0.88864900  0.52621740  0.65594964  1
  H+  H237  1  0.40360318  0.86981794  0.85130802  1
  H+  H238  1  0.16797166  0.08562470  0.22429743  1
  H+  H239  1  0.86476301  0.64495670  0.17122888  1
  H+  H240  1  0.83611275  0.49308574  0.32080956  1
  H+  H241  1  0.38080549  0.52676869  0.30726668  1
  H+  H242  1  0.39303359  0.38395450  -0.02062351  1
  H+  H243  1  0.75946884  0.12507705  0.16989259  1
  H+  H244  1  0.89204115  0.08791336  0.68627382  1
  H+  H245  1  0.23552656  0.36989433  0.84211210  1
  H+  H246  1  0.71730573  0.35832988  0.33546036  1
  H+  H247  1  0.13779349  0.36833100  0.67050169  1
  H+  H248  1  0.52110119  0.36923504  0.84587098  1
  H+  H249  1  0.64306215  0.53136526  0.50430885  1
  H+  H250  1  0.23537179  0.92315961  0.68008484  1
  H+  H251  1  0.28542858  0.41242853  0.50128260  1
  H+  H252  1  0.10734235  -0.00820446  0.15108312  1
  H+  H253  1  0.74887920  0.38044832  0.50425762  1
  H+  H254  1  0.90533031  0.12494151  0.16306761  1
  H+  H255  1  0.86022229  -0.03614089  0.49121317  1
  H+  H256  1  0.88986343  0.02740323  0.16594325  1
  H+  H257  1  0.24263945  0.62020635  0.16695761  1
  H+  H258  1  0.88424150  0.52697341  0.50168719  1
  H+  H259  1  0.86187183  0.64450520  0.82520345  1
  H+  H260  1  0.64609637  0.53137054  0.65371968  1
  H+  H261  1  0.85675523  0.86873268  0.67482512  1
  H+  H262  1  0.38281604  0.09632730  0.84367288  1
  H+  H263  1  0.89322028  0.37669181  0.65802240  1
  H+  H264  1  0.18341181  0.08237207  0.72080501  1
  H+  H265  1  -0.00146150  0.58027117  0.33801897  1
  H+  H266  1  0.60196905  0.09196145  0.17977612  1
  H+  H267  1  0.52725765  0.63657240  0.82399086  1
  H+  H268  1  0.37569864  0.63763522  0.50734800  1
  H+  H269  1  0.02428846  0.13854123  0.16123210  1
  H+  H270  1  0.63917570  1.02187695  0.84812962  1
  H+  H271  1  0.87129611  0.88598274  0.01031420  1
  H+  H272  1  0.77502809  0.87913878  0.84029263  1
  H+  H273  1  0.36538780  0.47890463  0.83224160  1
  H+  H274  1  0.89555166  1.01141316  0.87368394  1
  H+  H275  1  0.61919664  0.96809439  0.01295817  1
  H+  H276  1  0.10811692  0.25359840  0.48238446  1
  H+  H277  1  0.76169439  0.64260973  0.33751778  1
  H+  H278  1  0.13523978  0.73730382  0.33182652  1
  H+  H279  1  0.39435711  0.37590606  0.66245960  1
  H+  H280  1  0.39724967  0.35815655  0.86363138  1
  H+  H281  1  0.39926921  0.52684818  0.50971770  1
  H+  H282  1  -0.12830334  0.76215436  0.30622612  1
  H+  H283  1  0.01820631  0.87456876  0.84945401  1
  H+  H284  1  0.00396527  0.37764078  0.48952633  1
  H+  H285  1  0.15250551  0.13260643  0.35290094  1
  H+  H286  1  0.86924114  0.64305787  0.48283748  1
  H+  H287  1  0.85009454  0.22362609  0.00615272  1
  H+  H288  1  0.44517017  0.82700779  0.59769609  1
  H+  H289  1  0.59779731  0.17841020  0.43535707  1
  H+  H290  1  0.61643227  0.83070658  1.02004710  1
  H+  H291  1  0.42758421  0.57974588  0.57293961  1
  H+  H292  1  0.52684877  0.88269711  0.01321777  1
  H+  H293  1  0.47460949  0.60067485  0.30271218  1
  H+  H294  1  0.08342090  0.92523141  0.06072891  1
  H+  H295  1  0.67133182  0.34368982  0.93761434  1
  H+  H296  1  0.02989159  0.89038987  0.48775756  1
  H+  H297  1  0.09369864  0.66744237  0.06724290  1
  H+  H298  1  0.08089645  0.41763065  0.74102851  1
  H+  H299  1  0.13915959  0.69832574  0.39734287  1
  H+  H300  1  0.66535471  0.83068785  0.26667165  1
  H+  H301  1  0.90704491  0.57574509  0.22501582  1
  H+  H302  1  0.34701918  0.67591581  0.09842409  1
  H+  H303  1  0.34718113  0.47520500  0.06414273  1
  H+  H304  1  0.14082487  0.12041936  0.67722156  1
  H+  H305  1  0.34541471  0.67133597  0.73150211  1
  H+  H306  1  0.07973776  0.66952588  0.76477250  1
  H+  H307  1  0.38513423  0.11792608  0.16980750  1
  H+  H308  1  0.73080932  0.62033685  0.49800067  1
  H+  H309  1  0.63494070  0.11285715  0.00048400  1
  H+  H310  1  0.67734807  0.59703859  0.59679988  1
  H+  H311  1  0.91417089  0.33516661  0.56516123  1
  H+  H312  1  0.07622008  0.16386401  0.09905688  1
  H+  H313  1  0.59041308  0.42655453  0.40399866  1
  H+  H314  1  0.33280710  0.14686530  0.76907614  1
  H+  H315  1  0.19042459  0.58747667  0.26526657  1
  H+  H316  1  0.82398819  0.41669813  0.09566619  1
  H+  H317  1  0.92286013  0.60173137  0.95065620  1
  H+  H318  1  0.07915374  0.43975038  -0.00171685  1
  H+  H319  1  0.65485737  0.80699936  0.90156921  1
  H+  H320  1  0.16009387  0.34583515  0.25739534  1
  H+  H321  1  0.90852671  0.06194747  0.57168914  1
  H+  H322  1  0.84243810  0.92087600  0.10144093  1
  H+  H323  1  0.17190337  0.57050059  0.57819503  1
  H+  H324  1  0.83621016  0.91252953  0.78229779  1
  H+  H325  1  0.66669015  0.08211886  0.94337488  1
  H+  H326  1  0.39921889  0.76998623  0.51398741  1
  H+  H327  1  0.42410977  0.85362175  0.26146927  1
  H+  H328  1  0.34609046  0.92256419  0.78520120  1
  H+  H329  1  0.13891574  0.28027621  0.66000884  1
  H+  H330  1  0.11773325  0.37460155  0.83432732  1
  H+  H331  1  0.91756244  0.58650967  0.59643633  1
  H+  H332  1  0.61822139  -0.02204065  0.49704225  1
  H+  H333  1  0.19564693  0.06666774  0.57383324  1
  H+  H334  1  0.36756138  0.47606414  0.68077594  1
  H+  H335  1  0.76686998  0.13317570  0.02037321  1
  H+  H336  1  0.17756933  0.09948513  0.90188875  1
  H+  H337  1  0.43162104  0.83676558  0.94511972  1
  H+  H338  1  0.09385097  0.17686744  0.73236164  1
  H+  H339  1  0.59262957  0.17630826  0.74157478  1
  H+  H340  1  0.12113941  0.63413800  0.15568781  1
  H+  H341  1  0.59868053  0.91831884  0.77581380  1
  H+  H342  1  0.67143499  0.57435442  0.89701673  1
  H+  H343  1  0.34359336  0.91263524  0.09211023  1
  H+  H344  1  0.43166031  0.10008846  0.55686812  1
  H+  H345  1  0.27238818  0.36575453  0.15910356  1
  H+  H346  1  0.66951239  0.08601134  0.57010173  1
  H+  H347  1  0.08787483  0.40759563  0.07924195  1
  H+  H348  1  0.87238413  0.48511371  0.00960318  1
  H+  H349  1  0.18516571  0.38209552  0.57907156  1
  H+  H350  1  0.83083618  0.41547976  0.40748237  1
  H+  H351  1  0.91657795  0.82473556  0.93973310  1
  H+  H352  1  0.06981789  0.90657129  0.38781541  1
  H+  H353  1  0.16066286  0.82656788  0.56244669  1
  H+  H354  1  0.03951355  0.90219787  0.70703713  1
  H+  H355  1  0.92245264  0.46318332  0.45990983  1
  H+  H356  1  0.57492741  0.66833948  0.39789727  1
  H+  H357  1  0.58353389  0.90475664  0.10515399  1
  H+  H358  1  0.17264416  0.33697558  0.90083221  1
  H+  H359  1  0.41279705  0.08729474  0.22954900  1
  H+  H360  1  0.89761419  0.81744144  0.55617244  1
  H+  H361  1  0.66375462  0.33329346  0.23687313  1
  H+  H362  1  0.33943433  0.18781484  0.06618230  1
  H+  H363  1  0.42762405  0.59710132  0.89359450  1
  H+  H364  1  0.33654240  0.41434497  0.77668464  1
  H+  H365  1  0.82531810  0.15504431  0.76708546  1
  H+  H366  1  0.63472629  0.77287572  0.51017803  1
  H+  H367  1  0.58865972  0.18163979  0.06827753  1
  H+  H368  1  0.42181804  0.08946256  0.90845742  1
  H+  H369  1  0.32662002  0.88023672  0.40888757  1
  H+  H370  1  0.40547249  0.61516738  0.14998410  1
  H+  H371  1  0.88421341  0.06840489  0.25969242  1
  H+  H372  1  0.42505911  0.34713069  0.56727190  1
  H+  H373  1  0.32349449  0.36391219  0.10082053  1
  H+  H374  1  0.43049492  0.33602484  0.23843235  1
  H+  H375  1  0.09137206  0.91725799  0.79882467  1
  H+  H376  1  0.82837211  0.90624685  0.42827908  1
  H+  H377  1  0.78262371  0.51415558  0.27453972  1
  H+  H378  1  0.29171399  0.66073743  0.82477488  1
  H+  H379  1  0.06069951  0.40520232  0.39884114  1
  H+  H380  1  0.27261332  0.99774014  0.73270946  1
  H+  H381  1  0.08134266  0.10933374  0.44838597  1
  H+  H382  1  0.82742827  0.15601573  0.40286046  1
  H+  H383  1  0.83757108  0.67240769  0.42097311  1
  O2-  O384  1  0.08422685  0.17346018  0.14368364  1
  O2-  O385  1  0.05063241  0.07382042  0.48389988  1
  O2-  O386  1  0.09640101  0.17739786  0.80148939  1
  O2-  O387  1  0.10692002  0.42174421  0.12725814  1
  O2-  O388  1  0.06252034  0.40871135  0.46897984  1
  O2-  O389  1  0.07948320  0.40044015  0.82146240  1
  O2-  O390  1  0.09056533  0.66248275  0.13816975  1
  O2-  O391  1  0.08527302  0.66034306  0.47628981  1
  O2-  O392  1  0.08215907  0.67278984  0.81089319  1
  O2-  O393  1  0.06495393  0.93512940  0.13338659  1
  O2-  O394  1  0.08771764  0.91208925  0.47086465  1
  O2-  O395  1  0.08430192  0.90581988  0.84227445  1
  O2-  O396  1  0.34246992  0.17597084  0.14413071  1
  O2-  O397  1  0.34435463  0.17844565  0.48459665  1
  O2-  O398  1  0.30628212  0.09860301  0.79792272  1
  O2-  O399  1  0.32997216  0.38079620  0.14342530  1
  O2-  O400  1  0.34063202  0.42480852  0.48227003  1
  O2-  O401  1  0.33322954  0.41665431  0.82176356  1
  O2-  O402  1  0.34322337  0.66977402  0.14357668  1
  O2-  O403  1  0.34606472  0.66997868  0.49492353  1
  O2-  O404  1  0.35032449  0.68382823  0.80815475  1
  O2-  O405  1  0.34455586  0.91636703  0.13892804  1
  O2-  O406  1  0.33407185  0.89633560  0.47764837  1
  O2-  O407  1  0.33562216  0.91697163  0.82900811  1
  O2-  O408  1  0.58084941  0.17082159  0.14436312  1
  O2-  O409  1  0.60457579  0.18496651  0.48060835  1
  O2-  O410  1  0.59021218  0.16970818  0.81851071  1
  O2-  O411  1  0.60104523  0.44076992  0.14746482  1
  O2-  O412  1  0.59371634  0.42625453  0.48351723  1
  O2-  O413  1  0.58116212  0.39754642  0.82793263  1
  O2-  O414  1  0.60758308  0.65611686  0.14323539  1
  O2-  O415  1  0.58689804  0.67620764  0.48015624  1
  O2-  O416  1  0.58868723  0.66613362  0.81009873  1
  O2-  O417  1  0.57906386  0.89918675  0.15048492  1
  O2-  O418  1  0.58852865  0.91793121  0.48114304  1
  O2-  O419  1  0.59423992  0.91682684  0.82108259  1
  O2-  O420  1  0.91244668  0.22043848  0.12722880  1
  O2-  O421  1  0.83495231  0.15898405  0.48366239  1
  O2-  O422  1  0.82772932  0.15421635  0.81149607  1
  O2-  O423  1  0.82041101  0.41823484  0.14139732  1
  O2-  O424  1  0.86257932  0.43342467  0.47320858  1
  O2-  O425  1  0.85572080  0.41488748  0.80754416  1
  O2-  O426  1  0.83402977  0.67776047  0.16653133  1
  O2-  O427  1  0.84068921  0.67560961  0.46718347  1
  O2-  O428  1  0.83221118  0.67395259  0.80831703  1
  O2-  O429  1  0.83898899  0.92453536  0.14731851  1
  O2-  O430  1  0.83165072  0.90377030  0.47442950  1
  O2-  O431  1  0.83677453  0.91202624  0.82725341  1
  O2-  O432  1  0.17328311  0.09422698  0.17950641  1
  O2-  O433  1  0.18984625  0.06732831  0.52984692  1
  O2-  O434  1  0.17073540  0.08902309  0.85634143  1
  O2-  O435  1  0.16975807  0.33686291  0.18578041  1
  O2-  O436  1  0.19914302  0.41402283  0.53934890  1
  O2-  O437  1  0.17248203  0.33733584  0.85534065  1
  O2-  O438  1  0.18099860  0.58675406  0.18104696  1
  O2-  O439  1  0.17934583  0.55530437  0.53563872  1
  O2-  O440  1  0.18321992  0.61228984  0.85229922  1
  O2-  O441  1  0.20880531  0.88995229  0.20844508  1
  O2-  O442  1  0.16342884  0.82188002  0.51744562  1
  O2-  O443  1  0.16964286  0.82468254  0.85240436  1
  O2-  O444  1  0.41473278  0.08634242  0.18477636  1
  O2-  O445  1  0.43588487  0.11017284  0.51284766  1
  O2-  O446  1  0.42029814  0.07718734  0.86396857  1
  O2-  O447  1  0.43112804  0.33057404  0.19343435  1
  O2-  O448  1  0.42588699  0.34337626  0.52156804  1
  O2-  O449  1  0.42005721  0.31916595  0.87174219  1
  O2-  O450  1  0.43074342  0.57728524  0.15126329  1
  O2-  O451  1  0.42884759  0.58605477  0.52765699  1
  O2-  O452  1  0.42372072  0.58915051  0.84808369  1
  O2-  O453  1  0.41746562  0.83128395  0.19022587  1
  O2-  O454  1  0.42994501  0.83157839  0.52884090  1
  O2-  O455  1  0.43247023  0.83719197  0.86201711  1
  O2-  O456  1  0.60184282  0.04259551  0.19971064  1
  O2-  O457  1  0.66951387  0.08462104  0.52486701  1
  O2-  O458  1  0.66978674  0.08257176  0.86267111  1
  O2-  O459  1  0.66037910  0.33108527  0.19166529  1
  O2-  O460  1  0.68948173  0.34982607  0.51953682  1
  O2-  O461  1  0.66908864  0.33099993  0.86085668  1
  O2-  O462  1  0.64047089  0.57083541  0.20090638  1
  O2-  O463  1  0.67303548  0.59352345  0.51659448  1
  O2-  O464  1  0.66428555  0.58057234  0.85286675  1
  O2-  O465  1  0.67106405  0.82836356  0.19314802  1
  O2-  O466  1  0.66741387  0.83343565  0.52706272  1
  O2-  O467  1  0.66777194  0.82385167  0.85819527  1
  O2-  O468  1  0.92344972  0.08735604  0.18342316  1
  O2-  O469  1  0.90780614  0.06283133  0.52676976  1
  O2-  O470  1  0.94361944  0.06425321  0.89230270  1
  O2-  O471  1  0.89563106  0.33010840  0.19802826  1
  O2-  O472  1  0.90867369  0.32734128  0.52010530  1
  O2-  O473  1  0.90241202  0.30853037  0.85219565  1
  O2-  O474  1  0.91874536  0.58489013  0.18097090  1
  O2-  O475  1  0.91294905  0.58957857  0.51611508  1
  O2-  O476  1  0.91683243  0.59951913  0.86401718  1
  O2-  O477  1  0.90298915  0.82733053  0.22552724  1
  O2-  O478  1  0.90398607  0.82363130  0.50904930  1
  O2-  O479  1  0.92149370  0.83061069  0.85889315  1
  O2-  O480  1  0.16452844  0.06520309  0.30222854  1
  O2-  O481  1  0.17088796  0.08412345  0.67765708  1
  O2-  O482  1  0.17622317  0.09301630  0.97595670  1
  O2-  O483  1  0.15204064  0.34363396  0.30359187  1
  O2-  O484  1  0.17000645  0.34301057  0.65069142  1
  O2-  O485  1  0.17052159  0.34362551  0.97979400  1
  O2-  O486  1  0.19126125  0.58543545  0.31023478  1
  O2-  O487  1  0.17013728  0.58984408  0.65562607  1
  O2-  O488  1  0.18686181  0.61739613  0.97244315  1
  O2-  O489  1  0.09273649  0.77544637  0.28881147  1
  O2-  O490  1  0.15330614  0.83205205  0.64232770  1
  O2-  O491  1  0.17513290  0.82874701  0.98797290  1
  O2-  O492  1  0.40700161  0.09144760  0.31669030  1
  O2-  O493  1  0.43259333  0.07186956  0.64073077  1
  O2-  O494  1  0.43100131  0.11325077  0.98586991  1
  O2-  O495  1  0.42329663  0.34745679  0.31811942  1
  O2-  O496  1  0.42768250  0.35116188  0.64287441  1
  O2-  O497  1  0.42758601  0.35634790  0.97252786  1
  O2-  O498  1  0.42701138  0.55759791  0.27789147  1
  O2-  O499  1  0.42378217  0.57670243  0.65114648  1
  O2-  O500  1  0.43971043  0.61137320  0.96782836  1
  O2-  O501  1  0.43114650  0.87562278  0.30489581  1
  O2-  O502  1  0.44928734  0.82355669  0.64432617  1
  O2-  O503  1  0.42999535  0.83619469  0.99006232  1
  O2-  O504  1  0.65407001  0.07762766  0.32061195  1
  O2-  O505  1  0.67212724  0.08899131  0.65180153  1
  O2-  O506  1  0.66273812  0.07929909  0.98864331  1
  O2-  O507  1  0.65858065  0.33184985  0.31685982  1
  O2-  O508  1  0.67753628  0.34042341  0.64341810  1
  O2-  O509  1  0.67079745  0.35000588  0.98292716  1
  O2-  O510  1  0.66517244  0.58972807  0.32093278  1
  O2-  O511  1  0.67826362  0.59561998  0.64206364  1
  O2-  O512  1  0.70432754  0.55071780  0.96769470  1
  O2-  O513  1  0.66304690  0.82998524  0.31288371  1
  O2-  O514  1  0.67560841  0.83332506  0.65156434  1
  O2-  O515  1  0.62943677  0.78275588  1.02544068  1
  O2-  O516  1  0.86157739  0.06079513  0.30173761  1
  O2-  O517  1  0.91706118  0.06368455  0.65871258  1
  O2-  O518  1  0.91937420  0.06771118  0.95140227  1
  O2-  O519  1  0.90256288  0.31567907  0.32028610  1
  O2-  O520  1  0.92575790  0.34713438  0.64513752  1
  O2-  O521  1  0.90291274  0.32581177  0.97772409  1
  O2-  O522  1  0.83807077  0.54039203  0.29502614  1
  O2-  O523  1  0.92038689  0.58745191  0.64192495  1
  O2-  O524  1  0.92545652  0.59401313  0.99477643  1
  O2-  O525  1  0.90125676  0.82477682  0.29279536  1
  O2-  O526  1  0.89695146  0.81585516  0.62448997  1
  O2-  O527  1  0.91925649  0.82722678  0.98478682  1
  O2-  O528  1  0.04586246  0.11122737  0.02578779  1
  O2-  O529  1  0.16999212  0.17154140  0.38906413  1
  O2-  O530  1  0.09318270  0.17273928  0.68524820  1
  O2-  O531  1  0.06273831  0.38603500  0.01894293  1
  O2-  O532  1  0.05516195  0.40045992  0.35203340  1
  O2-  O533  1  0.08608161  0.42389524  0.69621417  1
  O2-  O534  1  0.09320849  0.67052298  0.02057844  1
  O2-  O535  1  0.17052241  0.71999497  0.35873635  1
  O2-  O536  1  0.08160082  0.66930497  0.68936638  1
  O2-  O537  1  0.08917555  0.91946545  0.01565901  1
  O2-  O538  1  0.06820108  0.90708466  0.34271748  1
  O2-  O539  1  0.05955564  0.91400132  0.66509092  1
  O2-  O540  1  0.33605700  0.18959490  0.02077947  1
  O2-  O541  1  0.33061947  0.18290578  0.36693257  1
  O2-  O542  1  0.35410986  0.18597280  0.68421588  1
  O2-  O543  1  0.34090687  0.45214843  0.02275242  1
  O2-  O544  1  0.32261791  0.41185417  0.36064889  1
  O2-  O545  1  0.33666158  0.41533396  0.69588838  1
  O2-  O546  1  0.35302398  0.67788702  0.01993564  1
  O2-  O547  1  0.35605590  0.65185068  0.36370141  1
  O2-  O548  1  0.33983275  0.66201712  0.68635544  1
  O2-  O549  1  0.33893379  0.89670903  0.02182311  1
  O2-  O550  1  0.31361470  0.86673040  0.36308249  1
  O2-  O551  1  0.28037655  0.98237571  0.69140832  1
  O2-  O552  1  0.58944751  0.18304277  0.02244147  1
  O2-  O553  1  0.57959375  0.17022484  0.35880440  1
  O2-  O554  1  0.59449262  0.17597703  0.69570694  1
  O2-  O555  1  0.63562888  0.48139238  0.00206341  1
  O2-  O556  1  0.58836554  0.42542021  0.35864905  1
  O2-  O557  1  0.59873017  0.43730405  0.67370082  1
  O2-  O558  1  0.60601285  0.73884527  -0.03288305  1
  O2-  O559  1  0.57706409  0.66451027  0.35301173  1
  O2-  O560  1  0.58937989  0.66796205  0.68813284  1
  O2-  O561  1  0.58832458  0.90799568  0.02786216  1
  O2-  O562  1  0.57976065  0.91257193  0.35561528  1
  O2-  O563  1  0.60632760  0.92585358  0.69562212  1
  O2-  O564  1  0.82894099  0.16958692  0.02993254  1
  O2-  O565  1  0.82228064  0.16027393  0.35807718  1
  O2-  O566  1  0.83734644  0.17607544  0.67754792  1
  O2-  O567  1  0.83711634  0.42296161  0.02066258  1
  O2-  O568  1  0.81875272  0.40651107  0.36076641  1
  O2-  O569  1  0.83747737  0.42240881  0.68287472  1
  O2-  O570  1  0.83171702  0.66914500  0.03843518  1
  O2-  O571  1  0.82662481  0.67170671  0.34677924  1
  O2-  O572  1  0.83641897  0.67024167  0.68252087  1
  O2-  O573  1  0.85000579  0.92277842  0.02786097  1
  O2-  O574  1  0.82021114  0.90421534  0.35400235  1
  O2-  O575  1  0.83455772  0.90223627  0.69615943  1
