# generated using pymatgen
data_H2O
_symmetry_space_group_name_H-M   'P 1'
_cell_length_a   17.98482937
_cell_length_b   17.98907792
_cell_length_c   21.99173594
_cell_angle_alpha   89.99365463
_cell_angle_beta   90.02269838
_cell_angle_gamma   120.02563413
_symmetry_Int_Tables_number   1
_chemical_formula_structural   H2O
_chemical_formula_sum   'H384 O192'
_cell_volume   6160.17561461
_cell_formula_units_Z   192
loop_
 _symmetry_equiv_pos_site_id
 _symmetry_equiv_pos_as_xyz
  1  'x, y, z'
loop_
 _atom_type_symbol
 _atom_type_oxidation_number
  H+  1.0
  O2-  -2.0
loop_
 _atom_site_type_symbol
 _atom_site_label
 _atom_site_symmetry_multiplicity
 _atom_site_fract_x
 _atom_site_fract_y
 _atom_site_fract_z
 _atom_site_occupancy
  H+  H0  1  0.34021942  0.37760837  -0.03769988  1
  H+  H1  1  0.48784019  0.86534348  0.85006578  1
  H+  H2  1  0.70267470  0.06342534  0.16325170  1
  H+  H3  1  0.66273313  0.83931980  0.93753384  1
  H+  H4  1  0.13207481  0.85730399  0.66731694  1
  H+  H5  1  0.13416639  0.52202358  -0.00871610  1
  H+  H6  1  0.35623544  0.72967559  0.34189823  1
  H+  H7  1  0.37524201  0.76421433  0.65832994  1
  H+  H8  1  0.49187043  0.61034379  0.50683305  1
  H+  H9  1  0.61988342  0.72807497  0.34415584  1
  H+  H10  1  0.61091021  0.78565571  0.12060033  1
  H+  H11  1  0.88400498  0.36613912  0.98179310  1
  H+  H12  1  0.34777835  0.37460911  0.16535814  1
  H+  H13  1  0.12999679  0.36796751  0.49611415  1
  H+  H14  1  0.78083332  0.15408087  0.33762965  1
  H+  H15  1  0.33279041  0.16280349  0.43047553  1
  H+  H16  1  0.62069015  0.46967760  0.66922942  1
  H+  H17  1  0.64511732  0.26782925  0.65742550  1
  H+  H18  1  0.77130169  0.38869457  0.34538619  1
  H+  H19  1  0.95912883  0.12963870  0.17365482  1
  H+  H20  1  0.27138485  0.13494591  0.49023037  1
  H+  H21  1  0.94612064  0.83572463  0.67158277  1
  H+  H22  1  0.76864716  0.37519617  0.49873698  1
  H+  H23  1  0.02057007  0.64279579  0.34992380  1
  H+  H24  1  0.15045687  0.77755479  0.50714439  1
  H+  H25  1  0.10896175  0.72123018  0.16137510  1
  H+  H26  1  0.63072167  0.50146434  0.50598779  1
  H+  H27  1  0.14435581  0.18496726  0.36071205  1
  H+  H28  1  0.12426553  0.14853594  0.66844375  1
  H+  H29  1  0.27541810  0.89185150  0.49952479  1
  H+  H30  1  0.88093023  0.26324454  0.50713224  1
  H+  H31  1  0.37217190  0.72827834  0.16558620  1
  H+  H32  1  0.07939574  0.15661660  0.76969250  1
  H+  H33  1  0.53507572  0.57026704  0.10996519  1
  H+  H34  1  0.75313362  0.11858503  1.01157810  1
  H+  H35  1  0.10952738  0.48150316  0.49308106  1
  H+  H36  1  0.10805287  0.40480597  0.33694953  1
  H+  H37  1  0.56354544  0.15669924  0.09342228  1
  H+  H38  1  0.14042563  0.77823354  0.83496615  1
  H+  H39  1  0.88184070  0.77717022  0.51067682  1
  H+  H40  1  0.10580234  0.98025653  0.01354930  1
  H+  H41  1  0.22057273  0.35805633  0.16692596  1
  H+  H42  1  1.02973033  0.89042535  0.34056456  1
  H+  H43  1  0.38891027  0.60407335  0.83854554  1
  H+  H44  1  0.88234382  0.60734084  0.16217036  1
  H+  H45  1  0.49258521  0.36596796  0.33163639  1
  H+  H46  1  0.89968625  0.77237110  0.17662788  1
  H+  H47  1  0.11071567  0.63516960  0.82789109  1
  H+  H48  1  0.63764425  0.33693218  0.16336153  1
  H+  H49  1  1.02236376  0.12623057  0.82961125  1
  H+  H50  1  0.14089211  0.28310821  0.66660743  1
  H+  H51  1  0.71480207  1.14879461  0.67312608  1
  H+  H52  1  0.97365626  0.86686648  1.00450305  1
  H+  H53  1  0.88848217  0.51322077  0.16066495  1
  H+  H54  1  0.98101662  0.36001296  0.16733619  1
  H+  H55  1  0.22419939  0.86572277  0.66821990  1
  H+  H56  1  0.65707760  0.07202212  0.93067947  1
  H+  H57  1  0.51231244  0.88414553  0.67724592  1
  H+  H58  1  0.86662419  0.85186175  0.66704488  1
  H+  H59  1  1.01842414  0.14442670  0.50793234  1
  H+  H60  1  0.87321444  1.01132290  -0.00191067  1
  H+  H61  1  0.63634734  0.11656259  0.50648716  1
  H+  H62  1  0.22408266  0.36530361  0.49927092  1
  H+  H63  1  0.27627404  0.89347645  0.83075030  1
  H+  H64  1  0.35666718  0.71342931  0.82881151  1
  H+  H65  1  0.07741128  0.13674343  0.18162980  1
  H+  H66  1  0.87096811  0.14384842  0.50326725  1
  H+  H67  1  0.52011962  0.13619662  0.33808161  1
  H+  H68  1  0.38098905  0.25476069  0.68233205  1
  H+  H69  1  0.83807694  0.70530862  0.67121820  1
  H+  H70  1  0.79552536  0.90347440  0.34287790  1
  H+  H71  1  0.27896210  0.13847440  0.33534060  1
  H+  H72  1  0.85466608  0.97550878  0.67693358  1
  H+  H73  1  0.82732056  0.90731944  0.11012674  1
  H+  H74  1  0.11588377  -0.02152015  0.83109971  1
  H+  H75  1  0.77754381  0.63129476  0.16565785  1
  H+  H76  1  0.63534603  0.60707840  0.17996332  1
  H+  H77  1  0.03130248  0.13887122  0.66264198  1
  H+  H78  1  0.15127395  0.76646377  0.99031943  1
  H+  H79  1  0.40474544  0.56974297  0.06466802  1
  H+  H80  1  0.10265462  0.38314798  1.00722885  1
  H+  H81  1  0.40861156  0.36333233  1.01562047  1
  H+  H82  1  0.37025711  0.16026266  0.67952548  1
  H+  H83  1  0.21778320  0.38020906  0.31691300  1
  H+  H84  1  0.36648159  0.98234372  0.83688714  1
  H+  H85  1  1.01692915  0.90869924  0.49606032  1
  H+  H86  1  0.89021322  0.03592392  0.52449603  1
  H+  H87  1  0.86387761  0.14414989  0.34107023  1
  H+  H88  1  0.49596097  0.59324497  0.16611300  1
  H+  H89  1  0.13209806  0.61188554  0.17219980  1
  H+  H90  1  -0.02429371  0.12602508  0.32083783  1
  H+  H91  1  0.02026345  0.39449848  0.00422686  1
  H+  H92  1  0.15694448  0.57868632  0.59881802  1
  H+  H93  1  0.89628252  0.56043679  0.83350548  1
  H+  H94  1  0.51391199  0.37728619  -0.00594968  1
  H+  H95  1  0.12642122  0.61531234  0.50239844  1
  H+  H96  1  0.37750103  0.60573547  0.18197334  1
  H+  H97  1  0.39696685  0.12189113  0.84910820  1
  H+  H98  1  0.37247703  0.48336584  0.67314177  1
  H+  H99  1  0.88689581  0.23961919  0.83267297  1
  H+  H100  1  0.21957631  0.60664702  0.65720446  1
  H+  H101  1  0.26749334  0.62608468  0.82669927  1
  H+  H102  1  0.92843394  0.09926755  0.69594162  1
  H+  H103  1  0.76921154  0.64285602  0.34623135  1
  H+  H104  1  0.85950670  0.42425118  0.82747689  1
  H+  H105  1  0.50414524  0.39350310  0.15401738  1
  H+  H106  1  0.41825864  0.08245679  0.26897995  1
  H+  H107  1  0.85196679  0.62483462  0.66896854  1
  H+  H108  1  0.12163198  0.51718367  0.83963202  1
  H+  H109  1  0.88792715  0.52169110  0.50813018  1
  H+  H110  1  0.97338569  0.60821233  0.66233349  1
  H+  H111  1  0.46550630  0.86173431  0.33027025  1
  H+  H112  1  0.85813518  0.12873781  0.16871133  1
  H+  H113  1  0.62917528  0.58937532  0.51061824  1
  H+  H114  1  0.15477480  0.57593192  0.89967788  1
  H+  H115  1  0.38465435  0.26612286  0.50894006  1
  H+  H116  1  0.27746346  0.30814443  0.79086935  1
  H+  H117  1  0.59099863  0.39443831  0.14620966  1
  H+  H118  1  0.77101805  0.37849506  0.66638633  1
  H+  H119  1  0.71777930  0.41461965  0.87483159  1
  H+  H120  1  0.62729131  0.78285446  0.51794385  1
  H+  H121  1  -0.02023558  0.87219229  0.84351593  1
  H+  H122  1  0.88868914  0.28151205  0.32714902  1
  H+  H123  1  0.37780846  1.01135008  0.49968392  1
  H+  H124  1  0.06935646  0.94221340  0.67959271  1
  H+  H125  1  0.64365167  0.77157641  0.12078110  1
  H+  H126  1  0.70439585  0.18267402  0.25584958  1
  H+  H127  1  0.66834129  0.08390738  0.25474341  1
  H+  H128  1  0.11084649  0.72951296  0.34667624  1
  H+  H129  1  0.13624703  0.86375145  0.32713074  1
  H+  H130  1  0.97722219  0.36032052  0.65424037  1
  H+  H131  1  0.56777220  0.19986955  -0.00546523  1
  H+  H132  1  0.61856239  0.40876859  0.35606056  1
  H+  H133  1  0.52012492  0.13435651  0.15851465  1
  H+  H134  1  0.47972579  0.87516778  0.50870528  1
  H+  H135  1  0.58652389  0.10827472  0.73401810  1
  H+  H136  1  0.63437530  0.86381116  1.00080050  1
  H+  H137  1  0.71833887  0.58975502  0.66073919  1
  H+  H138  1  0.48064734  0.88465066  0.18050390  1
  H+  H139  1  0.21513361  0.61362847  0.50401595  1
  H+  H140  1  0.13275583  0.29239459  0.32955031  1
  H+  H141  1  0.38122683  0.35285636  0.51289172  1
  H+  H142  1  0.48142666  0.62367777  0.33336824  1
  H+  H143  1  0.17358979  0.08747561  0.93879486  1
  H+  H144  1  0.38502532  1.01380253  0.01326859  1
  H+  H145  1  0.38815342  0.61693486  0.33564794  1
  H+  H146  1  0.11540313  0.88308060  0.16299787  1
  H+  H147  1  0.83933628  0.21638211  0.15402828  1
  H+  H148  1  0.66447566  0.22912587  0.17864072  1
  H+  H149  1  0.37467339  0.23473923  1.00827088  1
  H+  H150  1  0.39153269  0.11360682  0.17691401  1
  H+  H151  1  0.38577289  0.02138126  0.17977270  1
  H+  H152  1  0.40798882  0.61782256  0.50400961  1
  H+  H153  1  0.88766367  0.61440889  -0.00060041  1
  H+  H154  1  0.63037460  0.99955372  0.84474813  1
  H+  H155  1  0.88585381  0.61982190  0.33630165  1
  H+  H156  1  0.61983687  0.34858823  0.99295827  1
  H+  H157  1  0.61484404  0.14792276  0.33230725  1
  H+  H158  1  0.36022089  0.72437565  -0.00648143  1
  H+  H159  1  0.84165645  0.11500613  0.01298506  1
  H+  H160  1  0.12520292  0.39283131  0.82588530  1
  H+  H161  1  0.23943482  0.85592228  -0.01288415  1
  H+  H162  1  0.39796088  0.52279332  0.85147845  1
  H+  H163  1  0.53477013  0.63879841  0.83759259  1
  H+  H164  1  0.72607487  0.11849167  0.50835662  1
  H+  H165  1  0.37078841  0.73796024  0.50483129  1
  H+  H166  1  0.61955039  0.73134715  0.83730876  1
  H+  H167  1  0.97228954  0.37459636  0.32407979  1
  H+  H168  1  0.36417871  0.97917293  0.33988243  1
  H+  H169  1  0.25655454  0.15413347  0.66307652  1
  H+  H170  1  0.11312402  0.63010372  0.00705977  1
  H+  H171  1  0.35252022  0.93088163  0.74704714  1
  H+  H172  1  0.34313526  0.46328570  0.98378888  1
  H+  H173  1  0.11482748  0.38658411  0.67383044  1
  H+  H174  1  0.76479849  0.88076964  0.01145438  1
  H+  H175  1  0.10732880  0.12777634  0.01158686  1
  H+  H176  1  0.91979837  0.33073264  0.92903874  1
  H+  H177  1  0.61799308  0.99101208  0.49989136  1
  H+  H178  1  1.02641917  0.63488709  1.00980876  1
  H+  H179  1  0.00967023  0.35784362  0.81941524  1
  H+  H180  1  0.63127002  0.87299706  0.67442305  1
  H+  H181  1  0.18113276  0.06023873  0.65629097  1
  H+  H182  1  0.13868172  0.11013017  0.84111274  1
  H+  H183  1  0.76557184  0.88597765  0.68246413  1
  H+  H184  1  0.34565522  0.46207825  0.16907764  1
  H+  H185  1  0.79024504  0.37263165  0.16201073  1
  H+  H186  1  0.02697798  0.64273350  0.49649150  1
  H+  H187  1  0.22319725  0.85405893  0.17384821  1
  H+  H188  1  0.64053340  0.52540605  0.17868548  1
  H+  H189  1  0.86225758  0.63632178  0.49745988  1
  H+  H190  1  0.62802218  0.26960842  0.32586665  1
  H+  H191  1  0.38562137  0.26821525  0.17338650  1
  H+  H192  1  0.64052913  0.51771765  -0.01340979  1
  H+  H193  1  0.49515264  0.37342884  0.66482357  1
  H+  H194  1  0.88624565  0.53223913  0.33951125  1
  H+  H195  1  0.87734183  0.76129888  0.83938018  1
  H+  H196  1  0.02183033  0.39042611  0.49220632  1
  H+  H197  1  0.98276605  0.61187627  0.16037011  1
  H+  H198  1  0.88607665  0.35905218  0.65424754  1
  H+  H199  1  0.77555448  0.90354756  0.51599089  1
  H+  H200  1  0.66916352  0.70806811  0.48116686  1
  H+  H201  1  0.63049726  0.87265392  0.51914337  1
  H+  H202  1  0.37902909  1.03966287  0.66460161  1
  H+  H203  1  0.84917867  0.46956199  1.00309835  1
  H+  H204  1  0.13401266  0.53135537  0.32167047  1
  H+  H205  1  0.13266675  0.04098056  0.50531960  1
  H+  H206  1  0.88744003  0.87274436  0.84051326  1
  H+  H207  1  0.16756732  0.10582859  0.16848285  1
  H+  H208  1  0.22369324  0.61273052  -0.01748370  1
  H+  H209  1  0.86111909  0.89917078  0.51040065  1
  H+  H210  1  0.11254420  0.88698895  0.83242566  1
  H+  H211  1  0.22482176  0.86385138  0.32624684  1
  H+  H212  1  0.51704766  0.12254687  0.82485590  1
  H+  H213  1  0.23080949  0.61993664  0.31855849  1
  H+  H214  1  0.76464107  0.35043539  0.82746425  1
  H+  H215  1  0.33173834  0.65783358  0.54672704  1
  H+  H216  1  0.37403187  0.23551277  0.83933286  1
  H+  H217  1  0.60379315  0.22436658  0.49375775  1
  H+  H218  1  0.91608049  0.83592105  0.94383198  1
  H+  H219  1  0.52814433  0.39707441  0.83329209  1
  H+  H220  1  0.41646221  0.83852307  0.23606888  1
  H+  H221  1  0.23407246  0.11794429  -0.00247521  1
  H+  H222  1  0.12435802  0.26755111  0.50111668  1
  H+  H223  1  0.11174930  0.72297550  0.67423261  1
  H+  H224  1  0.86431719  -0.02576986  0.83064268  1
  H+  H225  1  0.62993331  0.86811271  0.84727456  1
  H+  H226  1  0.43054118  0.97441169  0.70219451  1
  H+  H227  1  0.23105594  0.38454758  0.83169461  1
  H+  H228  1  0.76974985  0.62711705  0.49960807  1
  H+  H229  1  0.23079046  0.11505329  0.84343119  1
  H+  H230  1  0.12214812  -0.02434992  0.33609462  1
  H+  H231  1  0.11419912  0.39305837  0.15253703  1
  H+  H232  1  0.10955480  0.63278488  0.67229216  1
  H+  H233  1  0.88503193  0.90816338  0.33197838  1
  H+  H234  1  0.52049636  0.37758530  0.49520072  1
  H+  H235  1  0.32496811  0.39570230  0.75486958  1
  H+  H236  1  0.88594166  0.51732423  0.66077288  1
  H+  H237  1  0.61135104  0.38904439  0.82893048  1
  H+  H238  1  0.37678867  0.86206223  0.33124039  1
  H+  H239  1  0.35808379  0.63116456  0.67015184  1
  H+  H240  1  0.88145046  0.10085519  0.84100079  1
  H+  H241  1  0.86421530  0.72663484  0.01223864  1
  H+  H242  1  0.85425730  0.88037980  1.01273252  1
  H+  H243  1  0.86384277  0.87962646  0.16651271  1
  H+  H244  1  0.88343494  0.32512341  0.82876114  1
  H+  H245  1  0.13391687  0.52213239  0.16971938  1
  H+  H246  1  0.35778901  0.46954567  0.50394690  1
  H+  H247  1  0.72069545  0.86574999  0.84551791  1
  H+  H248  1  0.63424638  0.35883989  0.50415420  1
  H+  H249  1  0.60539107  0.20542318  0.80786575  1
  H+  H250  1  0.39320787  0.86918151  0.99698244  1
  H+  H251  1  0.85880955  0.38739279  0.34220050  1
  H+  H252  1  0.75245988  0.89646770  0.19701771  1
  H+  H253  1  0.60413874  0.71967016  -0.00962027  1
  H+  H254  1  0.10760468  0.47320467  0.67263765  1
  H+  H255  1  0.38869767  0.11318300  0.32877833  1
  H+  H256  1  0.59915211  0.73321855  0.68580108  1
  H+  H257  1  0.37849781  0.39653668  0.67030435  1
  H+  H258  1  0.82968144  0.67310042  0.40486035  1
  H+  H259  1  0.13289767  0.09209951  0.30883309  1
  H+  H260  1  0.65334581  0.53670916  0.83413277  1
  H+  H261  1  0.39312085  0.36600412  0.84783958  1
  H+  H262  1  0.09936406  0.23160106  0.16320074  1
  H+  H263  1  0.28120584  0.64356109  0.16263543  1
  H+  H264  1  0.76381539  0.11566988  0.82736447  1
  H+  H265  1  0.08001127  0.43481360  0.39682003  1
  H+  H266  1  0.99237065  0.63687082  0.83854161  1
  H+  H267  1  0.65029120  0.62475310  0.83992045  1
  H+  H268  1  0.89031064  0.78220323  0.33176634  1
  H+  H269  1  0.11319670  0.26011249  -0.00614040  1
  H+  H270  1  0.40111612  0.35861438  0.32575502  1
  H+  H271  1  0.12776641  -0.02204324  0.16807966  1
  H+  H272  1  0.37872774  0.85510001  0.66305663  1
  H+  H273  1  0.17959469  0.10687913  0.56232577  1
  H+  H274  1  0.61205025  0.98070138  0.01294811  1
  H+  H275  1  0.39732712  0.86507675  0.84815974  1
  H+  H276  1  0.65432733  0.86152828  0.35284956  1
  H+  H277  1  0.39623932  0.49574332  0.35430296  1
  H+  H278  1  0.61195824  0.09688268  -0.01570051  1
  H+  H279  1  0.60555339  0.93170489  0.30093287  1
  H+  H280  1  0.62717772  0.34372760  0.28576913  1
  H+  H281  1  0.62668693  0.52074425  0.33811685  1
  H+  H282  1  0.36267967  0.88782379  0.16320762  1
  H+  H283  1  0.59063759  0.95932745  0.10949241  1
  H+  H284  1  0.68002561  0.58383841  -0.06890957  1
  H+  H285  1  0.66762797  0.35913720  0.13691147  1
  H+  H286  1  0.63770062  0.09587810  0.84024912  1
  H+  H287  1  0.47708378  0.62140563  0.66991699  1
  H+  H288  1  0.16782169  0.58414546  0.25052214  1
  H+  H289  1  0.41526788  0.84056328  0.56631592  1
  H+  H290  1  0.08435957  0.67283102  0.43477456  1
  H+  H291  1  0.37042683  0.89956545  0.49653593  1
  H+  H292  1  0.57942453  0.91109568  0.78567450  1
  H+  H293  1  0.47420211  0.11501063  0.49880590  1
  H+  H294  1  0.81182652  0.14900595  0.09372773  1
  H+  H295  1  0.92497106  0.83529820  0.26976664  1
  H+  H296  1  0.42672925  0.58735562  0.60544522  1
  H+  H297  1  0.91588179  0.57949770  0.56766846  1
  H+  H298  1  0.32440220  0.65797095  0.72885442  1
  H+  H299  1  0.43095727  0.33975986  0.60598672  1
  H+  H300  1  0.58791030  0.41163874  0.73238939  1
  H+  H301  1  0.61223076  0.63407308  0.34181568  1
  H+  H302  1  0.58694719  0.97921872  0.69012803  1
  H+  H303  1  0.33281986  0.92164471  0.40015879  1
  H+  H304  1  0.37760935  0.11158508  0.49718481  1
  H+  H305  1  0.46864523  0.60329035  1.00851687  1
  H+  H306  1  0.16314958  0.82444587  0.23306757  1
  H+  H307  1  0.34608904  0.18319009  0.77697713  1
  H+  H308  1  0.08404031  0.66326181  0.09953168  1
  H+  H309  1  0.87998502  0.66501785  0.83545191  1
  H+  H310  1  0.07078436  0.90263520  0.74395882  1
  H+  H311  1  0.42632487  0.84135599  0.93858229  1
  H+  H312  1  0.40632876  0.09165220  0.60308976  1
  H+  H313  1  0.17386006  0.36430876  0.89360352  1
  H+  H314  1  0.66222564  0.32818209  0.56476890  1
  H+  H315  1  0.08360842  0.66522661  0.76634636  1
  H+  H316  1  0.08158279  0.42452132  0.09506175  1
  H+  H317  1  0.77644027  0.63480787  0.00901558  1
  H+  H318  1  0.59069061  0.92599447  0.44304129  1
  H+  H319  1  0.31826456  0.66539646  0.39852510  1
  H+  H320  1  0.17228792  0.83180332  0.89652972  1
  H+  H321  1  0.85463655  0.21356383  0.67078269  1
  H+  H322  1  0.18433536  0.07888128  0.25074017  1
  H+  H323  1  0.28440137  0.12898651  0.16454616  1
  H+  H324  1  0.84135267  0.17137276  0.44003130  1
  H+  H325  1  0.78177234  0.65429989  0.83260123  1
  H+  H326  1  0.90599918  0.82975046  0.57223298  1
  H+  H327  1  0.69623535  0.28973299  0.23729435  1
  H+  H328  1  0.83330981  0.66070806  0.10333911  1
  H+  H329  1  0.52594319  0.89269965  1.02153462  1
  H+  H330  1  0.60881652  0.63308885  -0.01122425  1
  H+  H331  1  0.98646142  0.86420357  0.17686994  1
  H+  H332  1  0.91881258  0.33161793  0.22585182  1
  H+  H333  1  0.08262848  0.18643547  0.40948072  1
  H+  H334  1  0.66252366  0.57993199  0.27658296  1
  H+  H335  1  0.41992029  0.32918344  0.23247777  1
  H+  H336  1  0.82642399  0.40768135  0.05975094  1
  H+  H337  1  0.57449700  0.41672321  0.05268545  1
  H+  H338  1  0.91893366  0.09686000  0.58298050  1
  H+  H339  1  0.84153216  0.11804080  0.66977832  1
  H+  H340  1  0.90929701  0.07454561  0.90337925  1
  H+  H341  1  0.23019140  0.37163553  0.66525627  1
  H+  H342  1  0.88103709  0.38702686  0.15363870  1
  H+  H343  1  0.90205308  0.10067108  0.23680788  1
  H+  H344  1  0.11192235  0.14812932  0.50057547  1
  H+  H345  1  0.07693438  0.92183903  0.07311451  1
  H+  H346  1  0.57678719  0.16602454  0.43317822  1
  H+  H347  1  0.59751075  0.67200796  0.43007490  1
  H+  H348  1  0.33622113  0.92730690  0.10663855  1
  H+  H349  1  0.82734733  0.39582628  0.72600523  1
  H+  H350  1  0.28931788  0.97188170  0.03551332  1
  H+  H351  1  0.37108045  0.22669946  0.33896603  1
  H+  H352  1  0.35581993  0.63328242  0.00127779  1
  H+  H353  1  0.81911152  0.14547734  0.76446997  1
  H+  H354  1  0.68676462  0.85453995  0.28604380  1
  H+  H355  1  0.34025680  0.41793549  0.44302703  1
  H+  H356  1  0.87293335  0.35735017  0.50681191  1
  H+  H357  1  0.59700205  0.99136515  0.34672807  1
  H+  H358  1  0.63365118  0.35234530  0.66320832  1
  H+  H359  1  0.70557621  0.34212116  0.99719231  1
  H+  H360  1  0.06977947  0.15129796  0.06979539  1
  H+  H361  1  0.96153530  0.10032505  0.99820131  1
  H+  H362  1  0.20196389  0.34729409  0.98222411  1
  H+  H363  1  0.34443812  0.16712825  0.10371191  1
  H+  H364  1  0.40479760  0.57291199  0.24165195  1
  H+  H365  1  0.91274805  0.33003274  0.57186950  1
  H+  H366  1  0.65747627  0.83920346  0.61599269  1
  H+  H367  1  0.82955540  0.40489168  0.43903726  1
  H+  H368  1  0.07860784  0.93641133  0.43774354  1
  H+  H369  1  0.42439279  0.34397337  0.91157144  1
  H+  H370  1  0.45100545  0.46082232  0.38565889  1
  H+  H371  1  0.07396747  0.40544945  0.75737166  1
  H+  H372  1  0.65886798  0.55568968  0.60116665  1
  H+  H373  1  0.17786924  0.83612788  0.56663967  1
  H+  H374  1  0.92054281  0.59062978  0.93937324  1
  H+  H375  1  0.57600085  0.41465822  0.43164004  1
  H+  H376  1  0.68849435  0.93340555  0.20667408  1
  H+  H377  1  0.38580226  0.15151848  0.00949882  1
  H+  H378  1  0.57435525  0.66994129  0.74237755  1
  H+  H379  1  0.66467801  0.32896110  0.90976934  1
  H+  H380  1  0.43736553  0.09706479  0.90669448  1
  H+  H381  1  0.15505712  0.33661256  0.22340528  1
  H+  H382  1  0.83315102  0.91486547  0.77014610  1
  H+  H383  1  0.89067950  0.03098990  0.32180293  1
  O2-  O384  1  0.05995791  0.16765780  0.15401839  1
  O2-  O385  1  0.07792362  0.17689092  0.48780316  1
  O2-  O386  1  0.08253156  0.15410632  0.81435465  1
  O2-  O387  1  0.08378705  0.42491272  0.14149412  1
  O2-  O388  1  0.08131697  0.42047873  0.47637673  1
  O2-  O389  1  0.07157006  0.40175606  0.80436836  1
  O2-  O390  1  0.07775368  0.65980319  0.14559157  1
  O2-  O391  1  0.08754081  0.67115210  0.48201089  1
  O2-  O392  1  0.08374096  0.66879609  0.81198126  1
  O2-  O393  1  0.08772571  0.91725018  0.15207911  1
  O2-  O394  1  0.07579108  0.94906844  0.48132817  1
  O2-  O395  1  0.08097019  0.91669474  0.81745182  1
  O2-  O396  1  0.34633846  0.16711778  0.14921683  1
  O2-  O397  1  0.33286269  0.15953615  0.47649455  1
  O2-  O398  1  0.34325953  0.17608574  0.82212007  1
  O2-  O399  1  0.31577404  0.40328474  0.15121318  1
  O2-  O400  1  0.32335210  0.41022879  0.48721035  1
  O2-  O401  1  0.30717872  0.37002777  0.79767894  1
  O2-  O402  1  0.34269231  0.66672175  0.15455684  1
  O2-  O403  1  0.34008345  0.67286906  0.50352571  1
  O2-  O404  1  0.32679325  0.65552352  0.80991585  1
  O2-  O405  1  0.33006231  0.91716199  0.15144678  1
  O2-  O406  1  0.33882397  0.92972329  0.48279825  1
  O2-  O407  1  0.33827709  0.92363306  0.81855213  1
  O2-  O408  1  0.57618031  0.16646631  0.13721074  1
  O2-  O409  1  0.57057499  0.16331909  0.47849601  1
  O2-  O410  1  0.57445754  0.14321083  0.80401527  1
  O2-  O411  1  0.56382826  0.42827841  0.13592491  1
  O2-  O412  1  0.57999881  0.40677598  0.47891704  1
  O2-  O413  1  0.58682399  0.42391093  0.81410820  1
  O2-  O414  1  0.55103951  0.60776818  0.14530173  1
  O2-  O415  1  0.60676747  0.67670867  0.47633924  1
  O2-  O416  1  0.59526693  0.67068966  0.82230509  1
  O2-  O417  1  0.57880334  0.97834980  0.15069016  1
  O2-  O418  1  0.58449514  0.92697331  0.48708238  1
  O2-  O419  1  0.58302508  0.91372323  0.83023200  1
  O2-  O420  1  0.81097945  0.15430396  0.14360687  1
  O2-  O421  1  0.84256892  0.17573383  0.48541832  1
  O2-  O422  1  0.82444971  0.14519488  0.80976053  1
  O2-  O423  1  0.84493088  0.41382630  0.14206036  1
  O2-  O424  1  0.83047615  0.40190710  0.48507108  1
  O2-  O425  1  0.82143405  0.37039853  0.80679803  1
  O2-  O426  1  0.83729987  0.65620151  0.14884071  1
  O2-  O427  1  0.82949223  0.66481998  0.48446430  1
  O2-  O428  1  0.84613742  0.69328207  0.82290420  1
  O2-  O429  1  0.83218321  0.90936486  0.15505121  1
  O2-  O430  1  0.83585474  0.93643526  0.50262328  1
  O2-  O431  1  0.83531993  0.91298368  0.81594869  1
  O2-  O432  1  0.19052591  0.07456017  0.18996853  1
  O2-  O433  1  0.17187934  0.10461340  0.51750375  1
  O2-  O434  1  0.17005328  0.08076686  0.85730443  1
  O2-  O435  1  0.15607460  0.33089114  0.17883178  1
  O2-  O436  1  0.15955402  0.33499780  0.50966570  1
  O2-  O437  1  0.18747577  0.39398717  0.85381517  1
  O2-  O438  1  0.16316682  0.58219338  0.18801406  1
  O2-  O439  1  0.15478995  0.58065327  0.51736896  1
  O2-  O440  1  0.15487486  0.57713174  0.85331787  1
  O2-  O441  1  0.16195506  0.82044921  0.18742041  1
  O2-  O442  1  0.18745044  0.83752776  0.52235862  1
  O2-  O443  1  0.16844819  0.83801637  0.85083982  1
  O2-  O444  1  0.41921629  0.08172314  0.19514764  1
  O2-  O445  1  0.41072737  0.08148574  0.51312417  1
  O2-  O446  1  0.42641328  0.08953461  0.86120124  1
  O2-  O447  1  0.41115895  0.32964498  0.18764549  1
  O2-  O448  1  0.41454579  0.32542208  0.52588004  1
  O2-  O449  1  0.42873503  0.34363678  0.86497640  1
  O2-  O450  1  0.39888777  0.56637890  0.19681516  1
  O2-  O451  1  0.43096682  0.58147643  0.51894004  1
  O2-  O452  1  0.42729175  0.58484199  0.85586463  1
  O2-  O453  1  0.42059743  0.84130377  0.19093818  1
  O2-  O454  1  0.41736387  0.84325552  0.52055430  1
  O2-  O455  1  0.42352065  0.83196436  0.86368972  1
  O2-  O456  1  0.65814172  0.01401904  0.18735077  1
  O2-  O457  1  0.66515321  0.08505271  0.52047672  1
  O2-  O458  1  0.66860636  0.06849402  0.85757354  1
  O2-  O459  1  0.71496419  0.26225752  0.20673544  1
  O2-  O460  1  0.66391459  0.32728642  0.51927060  1
  O2-  O461  1  0.68376335  0.35315675  0.86638076  1
  O2-  O462  1  0.67322188  0.58461363  0.19522916  1
  O2-  O463  1  0.66284569  0.56247630  0.52266288  1
  O2-  O464  1  0.68539854  0.59617475  0.85083788  1
  O2-  O465  1  0.70399584  0.89219029  0.22307987  1
  O2-  O466  1  0.65744115  0.84030551  0.53638621  1
  O2-  O467  1  0.66166410  0.83509402  0.86186567  1
  O2-  O468  1  0.89917149  0.10337017  0.19058390  1
  O2-  O469  1  0.92297152  0.09916082  0.53694552  1
  O2-  O470  1  0.91455800  0.07453154  0.85795975  1
  O2-  O471  1  0.91940303  0.32787479  0.18072726  1
  O2-  O472  1  0.90865008  0.32795741  0.52295987  1
  O2-  O473  1  0.92077541  0.30330682  0.84422867  1
  O2-  O474  1  0.91787976  0.57689528  0.17221430  1
  O2-  O475  1  0.91737114  0.58194122  0.52201858  1
  O2-  O476  1  0.93112421  0.61389081  0.85541709  1
  O2-  O477  1  0.92562060  0.83143455  0.19255716  1
  O2-  O478  1  0.91014586  0.83655796  0.52707961  1
  O2-  O479  1  0.91811051  0.84144993  0.85782446  1
  O2-  O480  1  0.17922057  0.08004615  0.30186153  1
  O2-  O481  1  0.19719586  0.11802814  0.64306622  1
  O2-  O482  1  0.17305323  0.08943548  0.98409143  1
  O2-  O483  1  0.15626569  0.34914774  0.30829969  1
  O2-  O484  1  0.16837775  0.34447243  0.65472445  1
  O2-  O485  1  0.13822717  0.31945969  0.97749232  1
  O2-  O486  1  0.17116669  0.58848430  0.30008716  1
  O2-  O487  1  0.15773940  0.57693994  0.64413630  1
  O2-  O488  1  0.15912774  0.58101468  0.97341282  1
  O2-  O489  1  0.16511720  0.83247740  0.31044767  1
  O2-  O490  1  0.16648979  0.83200314  0.65117104  1
  O2-  O491  1  0.18337281  0.82127981  0.96764243  1
  O2-  O492  1  0.41921163  0.08229660  0.31524180  1
  O2-  O493  1  0.40264513  0.09760669  0.64710925  1
  O2-  O494  1  0.44835966  0.10376414  0.98318691  1
  O2-  O495  1  0.43152559  0.32901704  0.31168650  1
  O2-  O496  1  0.43264811  0.34758457  0.65080198  1
  O2-  O497  1  0.41926947  0.33351481  0.98275614  1
  O2-  O498  1  0.41911810  0.58735692  0.32167712  1
  O2-  O499  1  0.41681610  0.58637716  0.64960711  1
  O2-  O500  1  0.40559101  0.57014010  1.02039534  1
  O2-  O501  1  0.40493145  0.82846177  0.31680244  1
  O2-  O502  1  0.40521410  0.82480231  0.64267741  1
  O2-  O503  1  0.42544101  0.84124389  0.98492467  1
  O2-  O504  1  0.68776999  0.13219958  0.28381391  1
  O2-  O505  1  0.66581299  0.15982701  0.66615698  1
  O2-  O506  1  0.65144897  0.07467391  0.97659943  1
  O2-  O507  1  0.66513934  0.32783483  0.30646805  1
  O2-  O508  1  0.66758247  0.32713296  0.64351551  1
  O2-  O509  1  0.64642356  0.31285450  0.97967159  1
  O2-  O510  1  0.65974208  0.58301251  0.32170309  1
  O2-  O511  1  0.65684853  0.55376688  0.64623270  1
  O2-  O512  1  0.67660133  0.58010327  0.97629157  1
  O2-  O513  1  0.68047491  0.83349825  0.33069783  1
  O2-  O514  1  0.65949787  0.84000606  0.66117318  1
  O2-  O515  1  0.66336408  0.83426544  0.98329323  1
  O2-  O516  1  0.91518253  0.09560807  0.30831167  1
  O2-  O517  1  0.89720407  0.07607005  0.65803628  1
  O2-  O518  1  0.90165252  0.07209417  0.98225756  1
  O2-  O519  1  0.91266490  0.33964733  0.30842811  1
  O2-  O520  1  0.91744067  0.33049976  0.63668744  1
  O2-  O521  1  0.92585251  0.34755172  0.97204462  1
  O2-  O522  1  0.91837812  0.59121694  0.32361855  1
  O2-  O523  1  0.91423935  0.57707581  0.64494882  1
  O2-  O524  1  0.91581559  0.58182425  0.98386393  1
  O2-  O525  1  0.92602462  0.84146141  0.31512314  1
  O2-  O526  1  0.89087910  0.81587016  0.65076957  1
  O2-  O527  1  0.91202013  0.83050188  0.98852119  1
  O2-  O528  1  0.07000178  0.15144278  0.02495028  1
  O2-  O529  1  0.09596878  0.19497541  0.36483927  1
  O2-  O530  1  0.08722639  0.17135165  0.68339331  1
  O2-  O531  1  0.08015997  0.42112667  0.02187330  1
  O2-  O532  1  0.07998698  0.43745216  0.35142263  1
  O2-  O533  1  0.07726672  0.41217656  0.68719555  1
  O2-  O534  1  0.08645082  0.66305094  0.02527601  1
  O2-  O535  1  0.08106459  0.67173253  0.36575462  1
  O2-  O536  1  0.07977999  0.66266022  0.68929608  1
  O2-  O537  1  0.06908847  0.92077630  0.02824707  1
  O2-  O538  1  0.09014220  0.91875154  0.35660074  1
  O2-  O539  1  0.06331555  0.89050914  0.69844440  1
  O2-  O540  1  0.34725715  0.17302321  0.02382442  1
  O2-  O541  1  0.33705888  0.16642370  0.35513716  1
  O2-  O542  1  0.34457133  0.19362275  0.69772912  1
  O2-  O543  1  0.30727629  0.40773367  -0.03727523  1
  O2-  O544  1  0.39153038  0.44338776  0.37525425  1
  O2-  O545  1  0.34233769  0.42107934  0.68520340  1
  O2-  O546  1  0.32255832  0.66153398  -0.00987958  1
  O2-  O547  1  0.32407941  0.66663921  0.35424233  1
  O2-  O548  1  0.32392050  0.65904845  0.68330008  1
  O2-  O549  1  0.33454911  0.95733510  0.03102927  1
  O2-  O550  1  0.33299445  0.91819506  0.35515024  1
  O2-  O551  1  0.36790821  0.93887412  0.70163505  1
  O2-  O552  1  0.53751437  0.13873147  0.00788630  1
  O2-  O553  1  0.58124081  0.17010992  0.35381657  1
  O2-  O554  1  0.59144039  0.08474080  0.69381842  1
  O2-  O555  1  0.57904720  0.40993778  0.00838345  1
  O2-  O556  1  0.57645248  0.42650271  0.36441469  1
  O2-  O557  1  0.58882512  0.40564020  0.68754673  1
  O2-  O558  1  0.56929467  0.65597317  -0.00894166  1
  O2-  O559  1  0.58366601  0.66691189  0.35832420  1
  O2-  O560  1  0.56474270  0.67190626  0.69805265  1
  O2-  O561  1  0.58590819  0.92623832  0.03763262  1
  O2-  O562  1  0.58175289  0.93152851  0.34102718  1
  O2-  O563  1  0.57017036  0.91832545  0.69557717  1
  O2-  O564  1  0.81034021  0.14229963  0.03150831  1
  O2-  O565  1  0.83663005  0.17626037  0.35886707  1
  O2-  O566  1  0.81439866  0.15487480  0.68480227  1
  O2-  O567  1  0.81747716  0.40784353  0.01518713  1
  O2-  O568  1  0.82886097  0.41379537  0.36400006  1
  O2-  O569  1  0.83207917  0.40572959  0.68153346  1
  O2-  O570  1  0.83596191  0.66528893  0.02677591  1
  O2-  O571  1  0.83035942  0.67605720  0.35950694  1
  O2-  O572  1  0.81448248  0.64547647  0.68567323  1
  O2-  O573  1  0.82529201  0.91198427  0.02745496  1
  O2-  O574  1  0.85828685  0.94314521  0.34387918  1
  O2-  O575  1  0.82791951  0.91384549  0.69337635  1
