# generated using pymatgen
data_H2O
_symmetry_space_group_name_H-M   'P 1'
_cell_length_a   17.98919429
_cell_length_b   17.98211689
_cell_length_c   21.99304713
_cell_angle_alpha   89.99268814
_cell_angle_beta   90.02891922
_cell_angle_gamma   119.98369069
_symmetry_Int_Tables_number   1
_chemical_formula_structural   H2O
_chemical_formula_sum   'H384 O192'
_cell_volume   6162.25769048
_cell_formula_units_Z   192
loop_
 _symmetry_equiv_pos_site_id
 _symmetry_equiv_pos_as_xyz
  1  'x, y, z'
loop_
 _atom_type_symbol
 _atom_type_oxidation_number
  H+  1.0
  O2-  -2.0
loop_
 _atom_site_type_symbol
 _atom_site_label
 _atom_site_symmetry_multiplicity
 _atom_site_fract_x
 _atom_site_fract_y
 _atom_site_fract_z
 _atom_site_occupancy
  H+  H0  1  0.38408631  0.35867176  0.17412042  1
  H+  H1  1  0.17201041  0.34221922  0.24202716  1
  H+  H2  1  0.64078402  0.28170555  0.67230236  1
  H+  H3  1  0.12917287  0.03035992  0.66639137  1
  H+  H4  1  0.61728709  0.78041221  0.86409142  1
  H+  H5  1  0.89165763  0.03568557  0.65807291  1
  H+  H6  1  0.87710160  1.00725568  0.32213759  1
  H+  H7  1  0.39709769  0.86308210  0.85115271  1
  H+  H8  1  0.85875682  0.71975013  0.00750743  1
  H+  H9  1  0.87898052  0.60187475  0.17271755  1
  H+  H10  1  0.62770214  0.10968973  0.17620815  1
  H+  H11  1  0.36057256  0.14213513  0.33919671  1
  H+  H12  1  0.83482575  0.16077023  0.05890535  1
  H+  H13  1  0.21674069  0.92997678  0.63098791  1
  H+  H14  1  0.87314580  0.48811741  0.83154037  1
  H+  H15  1  0.88103603  0.52030287  0.00303545  1
  H+  H16  1  0.86458979  0.23589710  0.67559131  1
  H+  H17  1  0.02001748  0.39161375  0.01074103  1
  H+  H18  1  0.47629148  0.92894714  0.28679883  1
  H+  H19  1  0.62982505  0.63813986  0.34850982  1
  H+  H20  1  0.43613540  0.32530363  0.88952050  1
  H+  H21  1  0.75708851  0.86142480  0.01619500  1
  H+  H22  1  0.26395978  0.88279307  0.33720513  1
  H+  H23  1  0.39842180  0.02401030  0.98578468  1
  H+  H24  1  0.13334208  0.66682901  0.85983513  1
  H+  H25  1  0.63675479  0.35478985  0.50168881  1
  H+  H26  1  0.86450305  0.96799621  0.15967321  1
  H+  H27  1  0.29157266  0.35557873  0.81340065  1
  H+  H28  1  0.41239955  0.54558634  0.34217416  1
  H+  H29  1  0.97911913  0.15507039  0.84044314  1
  H+  H30  1  0.77192913  0.87528949  0.33397808  1
  H+  H31  1  0.11129401  0.39538243  0.01069228  1
  H+  H32  1  0.36498912  0.13543599  0.15752405  1
  H+  H33  1  0.63211379  0.08976665  0.00339987  1
  H+  H34  1  0.59372288  0.96827406  0.16781122  1
  H+  H35  1  0.85413761  0.21943015  0.15298814  1
  H+  H36  1  0.71935509  0.60913269  0.17315411  1
  H+  H37  1  0.12178938  0.98919014  0.13832626  1
  H+  H38  1  0.76855899  0.38595428  0.01207751  1
  H+  H39  1  0.17492885  0.08356103  0.22514899  1
  H+  H40  1  -0.02831058  0.61007703  0.00261107  1
  H+  H41  1  0.13270567  0.51787950  0.83516755  1
  H+  H42  1  0.88194618  0.23850538  0.33148313  1
  H+  H43  1  0.64926341  0.76215762  0.51606845  1
  H+  H44  1  1.00300142  0.12861972  0.50652094  1
  H+  H45  1  0.60379035  0.89101652  0.66258440  1
  H+  H46  1  0.02243462  0.14484059  0.68295430  1
  H+  H47  1  0.40188116  0.37764149  0.49476292  1
  H+  H48  1  0.14376831  0.28756871  -0.00480395  1
  H+  H49  1  0.37466488  0.25516527  0.98793836  1
  H+  H50  1  0.25782190  0.41664555  0.56064692  1
  H+  H51  1  0.37180282  1.02392974  0.32375890  1
  H+  H52  1  0.87687786  0.75938402  0.33516123  1
  H+  H53  1  0.52270835  0.13919348  0.66196944  1
  H+  H54  1  0.86017156  0.16407028  0.83699627  1
  H+  H55  1  0.51731957  0.88966727  0.64884039  1
  H+  H56  1  0.28349337  0.65321533  0.34088990  1
  H+  H57  1  0.38481194  0.52384009  0.17042319  1
  H+  H58  1  0.34641538  0.72019522  0.15873612  1
  H+  H59  1  0.78957209  0.89563376  0.64665447  1
  H+  H60  1  0.85371203  0.37895261  0.16186923  1
  H+  H61  1  0.13382805  0.27683449  0.18563071  1
  H+  H62  1  0.67201363  0.06747866  0.26537100  1
  H+  H63  1  0.09548613  0.88959499  0.03959895  1
  H+  H64  1  0.26999710  0.15549474  0.67041638  1
  H+  H65  1  0.29449181  0.89764403  0.68915731  1
  H+  H66  1  0.63341962  1.02703903  0.65632550  1
  H+  H67  1  0.61616325  0.10102852  0.81784212  1
  H+  H68  1  0.33895631  0.65507545  0.43989228  1
  H+  H69  1  0.04213887  0.66132067  0.85792203  1
  H+  H70  1  0.15667809  0.38338228  0.32560653  1
  H+  H71  1  0.73616733  0.09562618  0.32180858  1
  H+  H72  1  0.38165509  1.01814072  0.84338932  1
  H+  H73  1  0.38682670  1.03224637  0.49389167  1
  H+  H74  1  0.97363919  0.36264363  0.50472088  1
  H+  H75  1  0.70807105  0.10496828  0.81876002  1
  H+  H76  1  0.60463004  0.12850091  0.49246024  1
  H+  H77  1  0.82974216  0.90015462  0.71024357  1
  H+  H78  1  0.71492990  0.10737354  0.16815131  1
  H+  H79  1  0.85251460  0.91165943  0.10151494  1
  H+  H80  1  0.64759668  0.59282805  0.58199914  1
  H+  H81  1  0.11694762  0.85707033  0.16494124  1
  H+  H82  1  0.86879906  0.48557117  0.67261773  1
  H+  H83  1  0.77679273  0.87682955  0.48780281  1
  H+  H84  1  0.37939759  0.90034430  0.48047319  1
  H+  H85  1  0.53236876  0.88296460  0.34620964  1
  H+  H86  1  0.11817648  0.76890946  0.17040409  1
  H+  H87  1  0.89337295  0.37324713  0.66364354  1
  H+  H88  1  0.39037867  0.78027658  0.81876121  1
  H+  H89  1  0.25453198  0.88254423  0.14625365  1
  H+  H90  1  0.10246987  0.69155779  0.64839258  1
  H+  H91  1  0.30919323  0.39427292  0.47937825  1
  H+  H92  1  0.10583127  0.13583865  0.50839539  1
  H+  H93  1  0.85631754  0.71375572  0.16402452  1
  H+  H94  1  0.76040696  0.14038617  0.49924320  1
  H+  H95  1  0.91511130  0.10361518  0.89294469  1
  H+  H96  1  0.76441889  0.65401073  0.48802550  1
  H+  H97  1  0.27499757  0.39097692  0.01585472  1
  H+  H98  1  0.96610257  0.68776396  0.28223730  1
  H+  H99  1  0.10991066  0.64201659  0.00746584  1
  H+  H100  1  0.12393296  0.25768264  0.83271274  1
  H+  H101  1  0.52638008  0.63909328  0.82504162  1
  H+  H102  1  0.37300803  0.13440243  0.00505850  1
  H+  H103  1  0.88384357  0.10057195  0.32072974  1
  H+  H104  1  0.61332758  0.14312450  0.66827212  1
  H+  H105  1  0.63397886  0.35792105  0.00296924  1
  H+  H106  1  0.10842271  0.38740408  0.16448435  1
  H+  H107  1  0.63193455  0.72076077  0.01858324  1
  H+  H108  1  0.39005776  0.88813275  0.32363306  1
  H+  H109  1  0.51269729  0.12928074  0.16240192  1
  H+  H110  1  0.34575188  0.56205248  0.84548894  1
  H+  H111  1  0.85809725  0.48122091  0.48831445  1
  H+  H112  1  0.89479494  0.77501078  0.49803360  1
  H+  H113  1  0.27220404  0.38381305  0.17124901  1
  H+  H114  1  0.60102811  0.22002971  0.16241231  1
  H+  H115  1  0.48555704  0.87648587  0.49263561  1
  H+  H116  1  0.96021915  0.63510495  0.64599811  1
  H+  H117  1  0.08920049  0.22196904  0.52143074  1
  H+  H118  1  0.62968818  0.61066086  0.17341649  1
  H+  H119  1  0.78286989  0.39544595  0.68129563  1
  H+  H120  1  0.12416819  0.79457902  0.87033496  1
  H+  H121  1  0.68888115  0.85208206  0.70039432  1
  H+  H122  1  0.36994259  0.22832387  0.15680237  1
  H+  H123  1  0.61164554  0.22057565  0.48902622  1
  H+  H124  1  0.47404048  0.12065218  0.49855575  1
  H+  H125  1  0.26260453  0.63361338  1.00529456  1
  H+  H126  1  0.59108184  0.22050772  0.33658865  1
  H+  H127  1  0.12468007  0.73453978  0.49339224  1
  H+  H128  1  0.83326620  -0.04908462  0.89249860  1
  H+  H129  1  0.12150501  0.31268868  0.59388759  1
  H+  H130  1  0.39179853  0.51837718  0.65470849  1
  H+  H131  1  0.09945675  0.77073876  0.01420940  1
  H+  H132  1  0.66543128  0.08248518  0.56811865  1
  H+  H133  1  0.63927471  0.27194223  1.00298600  1
  H+  H134  1  0.23752710  0.60974869  0.50739631  1
  H+  H135  1  0.09626419  0.86655566  0.33693836  1
  H+  H136  1  0.86683153  0.88039447  0.48440122  1
  H+  H137  1  0.62862010  0.35897292  0.17125221  1
  H+  H138  1  0.86443879  0.22127867  0.00081106  1
  H+  H139  1  0.11430892  0.98369234  0.48726235  1
  H+  H140  1  0.47599568  0.36291479  0.17089410  1
  H+  H141  1  0.62596638  0.96506667  0.33890975  1
  H+  H142  1  0.88744741  0.12276334  0.66548966  1
  H+  H143  1  0.51499726  0.39643773  0.65629060  1
  H+  H144  1  0.40562664  1.01907450  0.64512297  1
  H+  H145  1  0.16628393  0.43101277  0.46162472  1
  H+  H146  1  0.63641502  0.52288843  0.32332768  1
  H+  H147  1  0.62885667  0.51631775  0.48442675  1
  H+  H148  1  0.02876235  0.06667618  0.11562870  1
  H+  H149  1  0.35016089  0.12702520  0.82368830  1
  H+  H150  1  0.16419210  0.59223936  0.93229129  1
  H+  H151  1  0.78234494  0.63407864  0.83367352  1
  H+  H152  1  0.51778640  0.39054752  0.33433259  1
  H+  H153  1  0.90262709  0.39177721  0.84063630  1
  H+  H154  1  0.48500256  0.36149398  0.50384596  1
  H+  H155  1  0.61964782  0.88323642  0.49598421  1
  H+  H156  1  0.60892567  0.50118332  0.65038599  1
  H+  H157  1  0.01445074  0.62894631  0.16217705  1
  H+  H158  1  0.35535999  0.63614046  0.00841458  1
  H+  H159  1  0.72483694  0.11634836  0.66192367  1
  H+  H160  1  0.87815012  0.96282801  0.88410536  1
  H+  H161  1  0.61952180  0.48413407  0.81019672  1
  H+  H162  1  0.97748492  0.90781279  1.01874691  1
  H+  H163  1  0.90428126  0.37192916  0.31950612  1
  H+  H164  1  0.13430586  0.09193214  0.31808639  1
  H+  H165  1  0.64118072  0.02067005  0.50875782  1
  H+  H166  1  0.85142831  0.12932244  0.15526454  1
  H+  H167  1  0.38306556  0.88177680  -0.00215674  1
  H+  H168  1  0.71115525  0.61654148  0.64205127  1
  H+  H169  1  0.23193946  0.62857585  0.85574660  1
  H+  H170  1  0.02463981  0.38950783  0.68442316  1
  H+  H171  1  0.08512079  0.70120107  0.57900594  1
  H+  H172  1  0.12948427  0.52264800  0.17672934  1
  H+  H173  1  0.41389536  0.63483729  0.34765868  1
  H+  H174  1  0.77307531  0.63054279  0.33622166  1
  H+  H175  1  0.64055146  0.61475400  0.83611951  1
  H+  H176  1  0.22902691  0.36600368  0.66967792  1
  H+  H177  1  0.46899291  0.10711080  0.83012016  1
  H+  H178  1  0.38460318  0.84881638  0.64576049  1
  H+  H179  1  0.80294450  0.20729177  0.85621256  1
  H+  H180  1  0.13329498  0.15265759  1.00430159  1
  H+  H181  1  0.71580904  0.35562314  0.17286353  1
  H+  H182  1  0.60335650  0.21727579  0.81560477  1
  H+  H183  1  0.26862103  0.14116418  0.83031672  1
  H+  H184  1  0.28117746  0.62314003  0.65493588  1
  H+  H185  1  0.60947128  0.47794057  0.16276872  1
  H+  H186  1  0.14683371  0.40129138  0.84420429  1
  H+  H187  1  0.88109408  0.27989294  0.50793658  1
  H+  H188  1  0.09867560  -0.00512329  0.83688350  1
  H+  H189  1  0.51724813  0.63417611  0.66991437  1
  H+  H190  1  0.22082701  0.12181509  0.50847486  1
  H+  H191  1  0.38760562  0.27842328  0.32559504  1
  H+  H192  1  0.36738317  0.61384171  0.49352046  1
  H+  H193  1  0.12314897  0.64409098  0.50517897  1
  H+  H194  1  0.86536675  0.39645641  0.49016643  1
  H+  H195  1  0.82474856  0.66726901  0.42922084  1
  H+  H196  1  0.61947960  0.94959619  -0.01824085  1
  H+  H197  1  0.11335074  0.23141933  0.68560034  1
  H+  H198  1  0.96354327  0.61891056  0.50442592  1
  H+  H199  1  0.62664725  0.76601203  0.66808353  1
  H+  H200  1  0.60527148  0.71731593  0.15812708  1
  H+  H201  1  0.00991298  0.09787926  0.34177957  1
  H+  H202  1  0.38273494  0.61129056  0.16427472  1
  H+  H203  1  0.35970384  0.23234188  0.49373314  1
  H+  H204  1  0.37066326  0.74147460  0.34859972  1
  H+  H205  1  0.96583166  0.10581709  0.17176547  1
  H+  H206  1  0.14074050  0.36880286  0.68144437  1
  H+  H207  1  0.12828666  0.76777722  0.32538749  1
  H+  H208  1  0.52916796  0.13345623  1.00596709  1
  H+  H209  1  0.72396263  0.60437125  0.98840504  1
  H+  H210  1  0.11210953  0.11522706  0.15397552  1
  H+  H211  1  0.09379421  0.90400880  0.84283706  1
  H+  H212  1  0.12262668  0.49292290  0.33195868  1
  H+  H213  1  0.62639172  0.35825279  0.32572296  1
  H+  H214  1  0.23486772  0.11806109  0.16447918  1
  H+  H215  1  0.53524416  0.85703143  -0.01740964  1
  H+  H216  1  0.13181414  0.53151006  0.99410650  1
  H+  H217  1  0.88226729  0.36493138  0.99884021  1
  H+  H218  1  0.51478425  0.62863558  0.15685991  1
  H+  H219  1  0.36364928  0.48411054  0.84343675  1
  H+  H220  1  0.91470299  0.31014990  0.83734173  1
  H+  H221  1  0.96343025  0.87555986  0.84241983  1
  H+  H222  1  0.09480591  0.17373698  0.06176406  1
  H+  H223  1  0.13775488  0.13586653  0.85228170  1
  H+  H224  1  0.15139930  0.82852002  0.26566587  1
  H+  H225  1  0.64550128  0.37169484  0.66148540  1
  H+  H226  1  0.32871533  0.90647225  0.04313341  1
  H+  H227  1  0.34054829  0.87882928  0.14863533  1
  H+  H228  1  0.35845609  0.38175423  0.01903303  1
  H+  H229  1  0.53585869  0.39040066  0.80764217  1
  H+  H230  1  0.39956308  0.26262986  0.83217570  1
  H+  H231  1  0.12987583  0.11878752  0.66472353  1
  H+  H232  1  0.72594006  0.35906394  0.49361594  1
  H+  H233  1  0.89616679  0.86922532  0.64460955  1
  H+  H234  1  0.74259183  0.83543629  0.79868695  1
  H+  H235  1  0.52256941  0.88364645  0.81897888  1
  H+  H236  1  0.89280709  0.49720661  0.33323300  1
  H+  H237  1  0.97858909  0.86255361  0.65817850  1
  H+  H238  1  0.14162976  0.62243069  0.32592789  1
  H+  H239  1  0.37117547  0.01514650  0.16818418  1
  H+  H240  1  0.23917775  0.42434910  0.86569915  1
  H+  H241  1  0.40750738  0.50936000  0.49948342  1
  H+  H242  1  0.87148821  0.64266532  0.33556700  1
  H+  H243  1  0.88081342  0.85464726  0.33226865  1
  H+  H244  1  0.25737830  0.37460463  0.56138527  1
  H+  H245  1  0.14498444  0.87796726  0.48892655  1
  H+  H246  1  0.01658868  0.64499833  0.33281172  1
  H+  H247  1  0.13490364  0.48914759  0.49312894  1
  H+  H248  1  0.60706201  0.63802270  0.66767348  1
  H+  H249  1  0.38598633  0.36918281  0.81894969  1
  H+  H250  1  0.88712867  0.12310944  0.50609542  1
  H+  H251  1  0.02873179  0.88995537  0.48881967  1
  H+  H252  1  0.61470674  0.88712412  0.83264776  1
  H+  H253  1  0.88696755  0.84759085  0.17582185  1
  H+  H254  1  0.35573695  0.14184539  0.49270181  1
  H+  H255  1  0.38703651  0.76191915  0.63587693  1
  H+  H256  1  0.83492342  0.63308843  0.65898559  1
  H+  H257  1  0.23291840  0.11951342  0.31608236  1
  H+  H258  1  0.84245405  0.72412005  0.65519874  1
  H+  H259  1  0.54463159  0.64489808  0.36178432  1
  H+  H260  1  0.31889282  0.89275032  0.92692361  1
  H+  H261  1  0.26909403  0.69895910  0.77264667  1
  H+  H262  1  0.28704317  0.89743617  0.48082333  1
  H+  H263  1  0.63843141  0.85037204  0.32852451  1
  H+  H264  1  0.99520876  0.12505131  0.98889611  1
  H+  H265  1  0.41840474  0.33206504  0.26304816  1
  H+  H266  1  0.20040460  0.89096911  0.88000494  1
  H+  H267  1  0.16056137  0.08569887  0.56833053  1
  H+  H268  1  0.89735237  0.61725498  0.84982127  1
  H+  H269  1  0.39139619  0.28404478  0.65297304  1
  H+  H270  1  -0.03068787  0.35736043  0.16575300  1
  H+  H271  1  0.13715287  0.50824257  0.66526799  1
  H+  H272  1  0.61304025  -0.01760564  0.81499478  1
  H+  H273  1  0.15112833  0.60114182  0.67253796  1
  H+  H274  1  0.11562895  0.90649867  0.69381866  1
  H+  H275  1  0.86669902  0.72438200  0.83903433  1
  H+  H276  1  0.37370841  0.62854687  0.65484574  1
  H+  H277  1  0.10682054  0.63501646  0.16443186  1
  H+  H278  1  -0.01158338  0.36714883  0.31422034  1
  H+  H279  1  0.91933519  0.58013408  0.90863358  1
  H+  H280  1  0.64295699  0.35981913  0.81029621  1
  H+  H281  1  0.36822135  0.38746922  0.66058300  1
  H+  H282  1  0.61005878  0.47728956  0.00321616  1
  H+  H283  1  0.09716004  0.34315828  0.53155119  1
  H+  H284  1  0.14611788  0.03527570  1.01041548  1
  H+  H285  1  0.72583061  0.35633776  0.82651539  1
  H+  H286  1  0.59087916  0.87850378  0.16690118  1
  H+  H287  1  0.71577651  0.85408637  0.16991139  1
  H+  H288  1  0.07749896  0.66200889  0.07063616  1
  H+  H289  1  0.85536430  0.46900831  0.16675069  1
  H+  H290  1  0.83078389  0.18110007  0.73584158  1
  H+  H291  1  0.92308046  0.34177734  0.60520576  1
  H+  H292  1  0.32918838  0.18344160  0.72892106  1
  H+  H293  1  0.56236736  0.15793324  0.39398484  1
  H+  H294  1  0.38205933  0.75692356  -0.00684982  1
  H+  H295  1  0.80694344  0.18235674  0.43744207  1
  H+  H296  1  0.45533499  0.85740839  0.17048276  1
  H+  H297  1  0.61725872  0.65747524  0.44532171  1
  H+  H298  1  0.42409591  0.33992427  0.58853480  1
  H+  H299  1  -0.00963852  0.85838650  0.33970708  1
  H+  H300  1  0.92088098  0.34850083  0.93812816  1
  H+  H301  1  0.58329636  0.43730094  0.71781758  1
  H+  H302  1  0.56814366  0.15893002  0.75647540  1
  H+  H303  1  0.08798049  0.43029720  0.38907253  1
  H+  H304  1  0.89265780  0.18676809  0.38591350  1
  H+  H305  1  0.08774301  0.43241738  0.74448191  1
  H+  H306  1  0.34806448  0.41193227  0.72545712  1
  H+  H307  1  0.31772867  0.66085527  0.09953177  1
  H+  H308  1  0.58124914  0.42831675  0.39276892  1
  H+  H309  1  0.59818137  0.91638039  0.43483976  1
  H+  H310  1  0.16610878  0.09616012  0.90771941  1
  H+  H311  1  0.89897648  0.84968662  0.89751750  1
  H+  H312  1  0.66233393  0.57578691  0.89416790  1
  H+  H313  1  0.26687897  0.82561196  0.87539718  1
  H+  H314  1  0.62820341  0.85188190  0.91408841  1
  H+  H315  1  0.82539482  0.65642819  0.10322518  1
  H+  H316  1  0.11934468  0.83934792  0.96113630  1
  H+  H317  1  0.06296201  0.62783050  0.73384883  1
  H+  H318  1  0.51945357  0.39186297  0.00643005  1
  H+  H319  1  0.17042725  0.35392095  0.93940640  1
  H+  H320  1  0.04292488  0.42390270  0.83346746  1
  H+  H321  1  0.64561807  0.76538344  0.33235163  1
  H+  H322  1  0.90939356  0.81464659  0.23585120  1
  H+  H323  1  0.86586969  0.43995031  0.39314423  1
  H+  H324  1  0.63669274  0.60729251  0.99126009  1
  H+  H325  1  0.07346962  0.90761906  0.39777489  1
  H+  H326  1  0.92928739  0.83431909  0.55792267  1
  H+  H327  1  0.37758073  0.92768449  0.73073293  1
  H+  H328  1  0.15640774  0.82730646  0.64168955  1
  H+  H329  1  0.48380067  0.62529330  0.99466807  1
  H+  H330  1  0.72079949  0.09202184  0.99683853  1
  H+  H331  1  0.58006294  0.15768879  0.06881877  1
  H+  H332  1  0.33570312  0.68293588  0.73731365  1
  H+  H333  1  0.67333372  0.82965211  0.56930422  1
  H+  H334  1  0.68159801  0.47651504  0.45788973  1
  H+  H335  1  0.17338207  0.59459341  0.26654591  1
  H+  H336  1  0.83058012  0.83855643  0.80161787  1
  H+  H337  1  0.90493691  -0.01164858  0.99916890  1
  H+  H338  1  0.40765699  0.57076802  0.94749398  1
  H+  H339  1  0.33312075  0.29719396  0.94792506  1
  H+  H340  1  0.33054257  0.17358346  0.39852463  1
  H+  H341  1  0.91781651  0.58648648  0.23376244  1
  H+  H342  1  0.40030313  0.07290317  0.23021977  1
  H+  H343  1  0.49559568  0.60044629  0.50967225  1
  H+  H344  1  0.89727784  0.58390846  0.59316422  1
  H+  H345  1  0.83089318  0.90599251  0.39503511  1
  H+  H346  1  0.91237026  0.32586556  0.22509374  1
  H+  H347  1  0.33119230  0.92038888  0.39455446  1
  H+  H348  1  0.35919065  0.43029134  0.39553916  1
  H+  H349  1  0.34550897  0.16782925  0.06588327  1
  H+  H350  1  0.06948694  0.93013519  0.74559293  1
  H+  H351  1  0.23968228  0.11574360  0.99994928  1
  H+  H352  1  0.08115429  0.41895235  0.10386717  1
  H+  H353  1  0.39184177  0.82974534  0.22600056  1
  H+  H354  1  0.21919563  0.61116457  0.17183035  1
  H+  H355  1  0.86244574  0.63229058  0.00714837  1
  H+  H356  1  0.42707829  0.57290943  0.59174453  1
  H+  H357  1  0.90070853  0.11364267  0.99347115  1
  H+  H358  1  0.11142452  0.65465689  0.73127349  1
  H+  H359  1  0.41865960  0.80952186  0.93079093  1
  H+  H360  1  0.18608094  0.85718660  0.54494132  1
  H+  H361  1  0.41578981  0.83736240  0.54447612  1
  H+  H362  1  0.91412870  0.09708635  0.56877675  1
  H+  H363  1  0.58225727  0.67129519  0.76562711  1
  H+  H364  1  0.84897204  0.43218853  0.76959205  1
  H+  H365  1  0.37746014  0.40275018  0.33126835  1
  H+  H366  1  0.08896167  0.18875098  0.77803130  1
  H+  H367  1  0.82832164  0.41532064  0.07144867  1
  H+  H368  1  0.24628789  0.38430846  0.32566508  1
  H+  H369  1  0.58030411  0.42074293  0.10191781  1
  H+  H370  1  0.65299552  0.32451250  0.26833969  1
  H+  H371  1  0.90571469  0.07256347  0.23004931  1
  H+  H372  1  0.46279961  0.11288904  0.32392550  1
  H+  H373  1  0.42012052  0.08101393  0.58869154  1
  H+  H374  1  0.58375606  0.65083401  0.06791611  1
  H+  H375  1  0.08625810  0.15954132  0.38454563  1
  H+  H376  1  0.17416310  0.58083903  0.56585831  1
  H+  H377  1  0.87339111  0.61792092  0.49976901  1
  H+  H378  1  0.07332626  0.66072301  0.39611077  1
  H+  H379  1  0.66582662  0.85630466  1.01271877  1
  H+  H380  1  0.42225057  0.08818389  0.92974330  1
  H+  H381  1  0.66209397  0.82315685  0.23103894  1
  H+  H382  1  0.32908607  0.41039824  0.11063528  1
  H+  H383  1  0.66755219  0.58605367  0.26579861  1
  O2-  O384  1  0.06516958  0.12340978  0.13343685  1
  O2-  O385  1  0.07148988  0.16549800  0.49713457  1
  O2-  O386  1  0.09146897  0.19564738  0.82342696  1
  O2-  O387  1  0.07692820  0.41636345  0.14946525  1
  O2-  O388  1  0.11387527  0.42969957  0.47503968  1
  O2-  O389  1  0.10240850  0.45332733  0.81656452  1
  O2-  O390  1  0.07564315  0.66391498  0.14801997  1
  O2-  O391  1  0.08724567  0.67256316  0.50315743  1
  O2-  O392  1  0.10482310  0.70302799  0.85524746  1
  O2-  O393  1  0.08298067  0.92888953  0.12291289  1
  O2-  O394  1  0.08924631  0.92379779  0.47152036  1
  O2-  O395  1  0.06668165  0.93425392  0.82191151  1
  O2-  O396  1  0.33883177  0.16850189  0.13926551  1
  O2-  O397  1  0.32313547  0.17124388  0.48023333  1
  O2-  O398  1  0.32681432  0.16490041  0.81177179  1
  O2-  O399  1  0.33241013  0.41093067  0.15640872  1
  O2-  O400  1  0.36972153  0.42433956  0.46857039  1
  O2-  O401  1  0.35145433  0.39604039  0.80323437  1
  O2-  O402  1  0.31730354  0.65897059  0.14520308  1
  O2-  O403  1  0.32803972  0.63548240  0.48268248  1
  O2-  O404  1  0.32154570  0.69658064  0.77889231  1
  O2-  O405  1  0.31416884  0.91116427  0.13030923  1
  O2-  O406  1  0.34658368  0.93085941  0.46569223  1
  O2-  O407  1  0.31209800  0.88525733  0.88160673  1
  O2-  O408  1  0.57340913  0.15890635  0.14809030  1
  O2-  O409  1  0.57531814  0.15883776  0.47650301  1
  O2-  O410  1  0.56714463  0.15528057  0.80257885  1
  O2-  O411  1  0.57915403  0.41720392  0.14715989  1
  O2-  O412  1  0.62277038  0.45983507  0.46895182  1
  O2-  O413  1  0.59093470  0.42875425  0.78649638  1
  O2-  O414  1  0.57794248  0.65640894  0.14431088  1
  O2-  O415  1  0.61283648  0.65471626  0.49174340  1
  O2-  O416  1  0.58547005  0.67385456  0.81134166  1
  O2-  O417  1  0.55726560  0.90666846  0.15696095  1
  O2-  O418  1  0.59613577  0.91903618  0.48038182  1
  O2-  O419  1  0.58564128  0.91435303  0.80671253  1
  O2-  O420  1  0.82223971  0.15898268  0.13745970  1
  O2-  O421  1  0.81992528  0.17821231  0.48019622  1
  O2-  O422  1  0.82420963  0.19034486  0.82110097  1
  O2-  O423  1  0.82246267  0.40945636  0.14960991  1
  O2-  O424  1  0.83400152  0.42257863  0.47072031  1
  O2-  O425  1  0.84496125  0.42771147  0.81487995  1
  O2-  O426  1  0.82360516  0.65242937  0.14826282  1
  O2-  O427  1  0.82498363  0.67186193  0.47499045  1
  O2-  O428  1  0.84483313  0.66435190  0.82625772  1
  O2-  O429  1  0.84104335  0.90765150  0.14563879  1
  O2-  O430  1  0.83266258  0.90432525  0.46658267  1
  O2-  O431  1  0.78776470  0.83841482  0.77258021  1
  O2-  O432  1  0.17367609  0.08415552  0.17816414  1
  O2-  O433  1  0.15921481  0.08861053  0.52270462  1
  O2-  O434  1  0.16408005  0.09988883  0.86256641  1
  O2-  O435  1  0.16396313  0.33785568  0.19526549  1
  O2-  O436  1  0.08704172  0.29263682  0.55545846  1
  O2-  O437  1  0.18081898  0.37386328  0.86052245  1
  O2-  O438  1  0.15982842  0.58379310  0.19053416  1
  O2-  O439  1  0.17488178  0.58655525  0.52096586  1
  O2-  O440  1  0.17076678  0.59998383  0.86437348  1
  O2-  O441  1  0.14674636  0.83001876  0.18495075  1
  O2-  O442  1  0.17721426  0.84726316  0.50137573  1
  O2-  O443  1  0.13783006  0.85556659  0.88259497  1
  O2-  O444  1  0.40402327  0.07477005  0.18449192  1
  O2-  O445  1  0.41209736  0.09109883  0.51183341  1
  O2-  O446  1  0.40966212  0.08026834  0.84935167  1
  O2-  O447  1  0.41540904  0.32735135  0.18585409  1
  O2-  O448  1  0.42571621  0.33802325  0.51727514  1
  O2-  O449  1  0.43808823  0.32479319  0.84443046  1
  O2-  O450  1  0.41853934  0.58666422  0.17746503  1
  O2-  O451  1  0.43401005  0.57013829  0.52041724  1
  O2-  O452  1  0.34639250  0.51757330  0.87037151  1
  O2-  O453  1  0.39169329  0.82644399  0.18120158  1
  O2-  O454  1  0.42300764  0.85074102  0.50028967  1
  O2-  O455  1  0.42840760  0.83153794  0.84495740  1
  O2-  O456  1  0.65826535  0.07848611  0.18904545  1
  O2-  O457  1  0.66618817  0.08182427  0.52236722  1
  O2-  O458  1  0.64673089  0.06832110  0.82842883  1
  O2-  O459  1  0.65438210  0.32437067  0.18594616  1
  O2-  O460  1  0.66688118  0.32340014  0.51006543  1
  O2-  O461  1  0.66252159  0.32308631  0.82927245  1
  O2-  O462  1  0.65953431  0.57978015  0.18981309  1
  O2-  O463  1  0.66116833  0.61158114  0.51244947  1
  O2-  O464  1  0.66486882  0.57835557  0.84859302  1
  O2-  O465  1  0.65666382  0.82491668  0.18597748  1
  O2-  O466  1  0.67117805  0.82415643  0.52493555  1
  O2-  O467  1  0.64628990  0.84226301  0.87266883  1
  O2-  O468  1  0.90489984  0.07601699  0.18435475  1
  O2-  O469  1  0.91727490  0.09478940  0.52335890  1
  O2-  O470  1  0.91740575  0.12569746  0.85140377  1
  O2-  O471  1  0.90807237  0.32422345  0.17973117  1
  O2-  O472  1  0.91684138  0.34067839  0.52277865  1
  O2-  O473  1  0.93811055  0.36617162  0.85759573  1
  O2-  O474  1  0.91161837  0.57408286  0.18837939  1
  O2-  O475  1  0.90250017  0.58649048  0.51611965  1
  O2-  O476  1  0.92781953  0.58578004  0.86364325  1
  O2-  O477  1  0.90893123  0.81021091  0.19122758  1
  O2-  O478  1  0.93094681  0.83583273  0.51226799  1
  O2-  O479  1  0.90206035  0.83663615  0.85466819  1
  O2-  O480  1  0.17707607  0.08321555  0.29537738  1
  O2-  O481  1  0.15808598  0.08802344  0.64659623  1
  O2-  O482  1  0.17772907  0.08977577  0.98743049  1
  O2-  O483  1  0.18517082  0.35156728  0.31147700  1
  O2-  O484  1  0.16532455  0.33439471  0.66384940  1
  O2-  O485  1  0.17121258  0.34987557  0.98459350  1
  O2-  O486  1  0.17704939  0.59687034  0.31231439  1
  O2-  O487  1  0.16952365  0.56885458  0.64705596  1
  O2-  O488  1  0.16300120  0.59214339  0.98008225  1
  O2-  O489  1  0.15390373  0.82911533  0.31120915  1
  O2-  O490  1  0.19619449  0.88410440  0.66116201  1
  O2-  O491  1  0.11678733  0.83196409  1.00599400  1
  O2-  O492  1  0.40096595  0.08326047  0.30708826  1
  O2-  O493  1  0.42667971  0.07903653  0.63371394  1
  O2-  O494  1  0.42352374  0.08597583  0.97495398  1
  O2-  O495  1  0.41968509  0.33808423  0.30841642  1
  O2-  O496  1  0.42598043  0.34439444  0.63525969  1
  O2-  O497  1  0.38815961  0.31066142  0.96573336  1
  O2-  O498  1  0.45033883  0.60921531  0.34073208  1
  O2-  O499  1  0.42328945  0.57818281  0.63795493  1
  O2-  O500  1  0.42801004  0.61549386  0.97865132  1
  O2-  O501  1  0.43414395  0.87463786  0.30523962  1
  O2-  O502  1  0.41275495  0.82282882  0.62227227  1
  O2-  O503  1  0.42105084  0.81631034  0.97535115  1
  O2-  O504  1  0.67703145  0.05637931  0.30927888  1
  O2-  O505  1  0.66633112  0.08979529  0.64415962  1
  O2-  O506  1  0.65861123  0.05568987  0.98981564  1
  O2-  O507  1  0.65168583  0.32270610  0.31339368  1
  O2-  O508  1  0.68014254  0.34487162  0.66929811  1
  O2-  O509  1  0.66980366  0.33328811  0.99060386  1
  O2-  O510  1  0.67198262  0.58517840  0.31138616  1
  O2-  O511  1  0.64728573  0.58368457  0.62875671  1
  O2-  O512  1  0.66386723  0.57479695  0.97276234  1
  O2-  O513  1  0.66985786  0.82237547  0.31122960  1
  O2-  O514  1  0.66223602  0.83049749  0.66074191  1
  O2-  O515  1  0.69642243  0.82674286  1.02755845  1
  O2-  O516  1  0.91045282  0.06755182  0.30550130  1
  O2-  O517  1  0.92115998  0.09785304  0.64728231  1
  O2-  O518  1  0.93408197  0.08703159  0.97686929  1
  O2-  O519  1  0.92620153  0.33407391  0.30300059  1
  O2-  O520  1  0.92299556  0.34080643  0.65041582  1
  O2-  O521  1  0.91479202  0.33705962  0.98265781  1
  O2-  O522  1  0.94040013  0.63164675  0.30203481  1
  O2-  O523  1  0.90139408  0.58856563  0.63866876  1
  O2-  O524  1  0.91091997  0.58108731  0.98721929  1
  O2-  O525  1  0.91231555  0.82228354  0.32088124  1
  O2-  O526  1  0.92384303  0.83445007  0.63475937  1
  O2-  O527  1  0.92609043  0.88827302  0.99188394  1
  O2-  O528  1  0.10169123  0.18284858  0.01689974  1
  O2-  O529  1  0.06102173  0.10436170  0.36385513  1
  O2-  O530  1  0.08154486  0.17048963  0.70042746  1
  O2-  O531  1  0.08032812  0.42459789  0.02635263  1
  O2-  O532  1  0.09135860  0.43045841  0.34438194  1
  O2-  O533  1  0.08556888  0.41994269  0.69902179  1
  O2-  O534  1  0.07465213  0.66586772  0.02534711  1
  O2-  O535  1  0.07933429  0.66571283  0.35195189  1
  O2-  O536  1  0.08496053  0.72292201  0.62112403  1
  O2-  O537  1  0.08135556  0.93666128  0.05600414  1
  O2-  O538  1  0.06105655  0.89258675  0.35328072  1
  O2-  O539  1  0.07500652  0.92752742  0.70015041  1
  O2-  O540  1  0.34293389  0.16552812  0.01971255  1
  O2-  O541  1  0.33403585  0.17676896  0.35330307  1
  O2-  O542  1  0.32950303  0.19327400  0.68475576  1
  O2-  O543  1  0.33163124  0.41293286  0.03613712  1
  O2-  O544  1  0.35157702  0.43499051  0.35007441  1
  O2-  O545  1  0.33894102  0.41597904  0.68123095  1
  O2-  O546  1  0.32226985  0.66395191  0.02336860  1
  O2-  O547  1  0.34155588  0.68109951  0.36021380  1
  O2-  O548  1  0.34255981  0.66070346  0.66600744  1
  O2-  O549  1  0.35223656  0.91530902  0.00126209  1
  O2-  O550  1  0.32562688  0.91681320  0.34846281  1
  O2-  O551  1  0.35534522  0.91164374  0.68960670  1
  O2-  O552  1  0.58764321  0.15931403  0.02371180  1
  O2-  O553  1  0.55549402  0.15878199  0.34941971  1
  O2-  O554  1  0.58050622  0.17089980  0.68296779  1
  O2-  O555  1  0.57764389  0.41854088  0.02258875  1
  O2-  O556  1  0.57973110  0.42287258  0.34795243  1
  O2-  O557  1  0.57907417  0.43648673  0.67062043  1
  O2-  O558  1  0.59097184  0.65721850  0.02240586  1
  O2-  O559  1  0.60835993  0.67109611  0.37246620  1
  O2-  O560  1  0.57728815  0.66620595  0.68762395  1
  O2-  O561  1  0.59830556  0.88658820  -0.02394759  1
  O2-  O562  1  0.59254778  0.90588554  0.35876242  1
  O2-  O563  1  0.57436516  0.92417265  0.66848067  1
  O2-  O564  1  0.84055714  0.16047622  0.01361996  1
  O2-  O565  1  0.85595052  0.17918861  0.35110890  1
  O2-  O566  1  0.83351848  0.17549730  0.69149283  1
  O2-  O567  1  0.83098471  0.41745216  0.02596128  1
  O2-  O568  1  0.89195272  0.44776477  0.35219760  1
  O2-  O569  1  0.84656032  0.42744923  0.69034298  1
  O2-  O570  1  0.82772118  0.65999852  0.02079731  1
  O2-  O571  1  0.83222089  0.66375756  0.35460075  1
  O2-  O572  1  0.80248724  0.66348058  0.66616721  1
  O2-  O573  1  0.88019056  0.92892056  0.01866093  1
  O2-  O574  1  0.83340795  0.90653008  0.34849784  1
  O2-  O575  1  0.84517272  0.92420070  0.66781122  1
