# generated using pymatgen
data_H2O
_symmetry_space_group_name_H-M   'P 1'
_cell_length_a   17.98356350
_cell_length_b   17.97799406
_cell_length_c   22.01563081
_cell_angle_alpha   90.02033226
_cell_angle_beta   90.00418956
_cell_angle_gamma   119.98147778
_symmetry_Int_Tables_number   1
_chemical_formula_structural   H2O
_chemical_formula_sum   'H384 O192'
_cell_volume   6165.37834499
_cell_formula_units_Z   192
loop_
 _symmetry_equiv_pos_site_id
 _symmetry_equiv_pos_as_xyz
  1  'x, y, z'
loop_
 _atom_type_symbol
 _atom_type_oxidation_number
  H+  1.0
  O2-  -2.0
loop_
 _atom_site_type_symbol
 _atom_site_label
 _atom_site_symmetry_multiplicity
 _atom_site_fract_x
 _atom_site_fract_y
 _atom_site_fract_z
 _atom_site_occupancy
  H+  H0  1  0.62115713  0.63694283  0.83037965  1
  H+  H1  1  0.63386225  0.60545183  0.17916852  1
  H+  H2  1  0.03333701  0.63904231  0.82191388  1
  H+  H3  1  0.10321105  0.21897658  0.81751601  1
  H+  H4  1  0.43939874  0.10135890  0.51904326  1
  H+  H5  1  0.95202225  0.37720497  0.24356318  1
  H+  H6  1  0.04801728  0.54644646  0.20407284  1
  H+  H7  1  1.01018586  0.88108834  0.51156664  1
  H+  H8  1  -0.00253249  0.87587863  0.15722735  1
  H+  H9  1  0.10594003  0.97268496  0.51213677  1
  H+  H10  1  0.36212603  0.47627823  0.67577292  1
  H+  H11  1  0.51346383  0.62617232  0.68035749  1
  H+  H12  1  0.35549835  0.76064598  0.98259632  1
  H+  H13  1  0.65827120  0.02407539  0.67168310  1
  H+  H14  1  0.52724609  0.13729895  0.81100290  1
  H+  H15  1  0.36955589  0.25902027  0.33451080  1
  H+  H16  1  0.87013925  0.70686831  0.36284259  1
  H+  H17  1  0.26565908  0.90746056  0.00188302  1
  H+  H18  1  0.99351392  0.62515747  0.66492724  1
  H+  H19  1  0.37256038  0.37935547  0.99789150  1
  H+  H20  1  0.12078200  0.37177266  0.16051757  1
  H+  H21  1  0.22615430  0.36415083  0.66506990  1
  H+  H22  1  0.47466249  0.12601707  0.98193690  1
  H+  H23  1  0.66854103  0.07851621  0.58743075  1
  H+  H24  1  0.17336512  0.49915280  0.15647664  1
  H+  H25  1  0.65682813  1.02624481  0.16925021  1
  H+  H26  1  0.11182620  0.14116441  0.35334308  1
  H+  H27  1  0.38843575  0.03965323  0.98116862  1
  H+  H28  1  0.39478556  0.36983361  0.83889398  1
  H+  H29  1  0.30653004  0.77601975  0.22422426  1
  H+  H30  1  0.01542038  0.13007732  0.81561980  1
  H+  H31  1  0.61105295  0.36818478  0.82665371  1
  H+  H32  1  0.90437162  0.62551987  0.66617191  1
  H+  H33  1  0.82943235  0.13273302  0.50555821  1
  H+  H34  1  0.32693437  0.67460986  0.72533981  1
  H+  H35  1  0.75539765  0.89961670  0.66552904  1
  H+  H36  1  0.74441331  0.13718656  0.50786757  1
  H+  H37  1  0.82526430  0.56898056  0.22098176  1
  H+  H38  1  0.13328726  0.59523994  -0.02581138  1
  H+  H39  1  0.52224762  0.37041033  0.82581966  1
  H+  H40  1  0.61716488  0.88814788  0.82995197  1
  H+  H41  1  0.93865974  0.37960534  0.36584739  1
  H+  H42  1  0.34252260  0.21740118  0.50164312  1
  H+  H43  1  0.20880145  0.08021989  0.20124386  1
  H+  H44  1  0.08108646  0.41898476  0.73165516  1
  H+  H45  1  0.61248881  0.47106099  0.67541346  1
  H+  H46  1  0.89861838  0.36045024  0.83748628  1
  H+  H47  1  0.63739775  0.41662952  0.49177270  1
  H+  H48  1  0.89530507  0.37100292  0.65733396  1
  H+  H49  1  0.91248792  0.38943858  0.18411531  1
  H+  H50  1  0.78301872  0.39582733  0.66381993  1
  H+  H51  1  0.08251432  0.59246732  0.19886806  1
  H+  H52  1  0.11816458  0.46180715  0.99993786  1
  H+  H53  1  0.62863284  0.12227856  0.15488722  1
  H+  H54  1  0.02753851  0.14342443  0.34543331  1
  H+  H55  1  0.80932755  0.69262070  0.85622658  1
  H+  H56  1  0.60194379  0.12553779  -0.00779138  1
  H+  H57  1  -0.01028648  0.10729951  0.64039841  1
  H+  H58  1  0.39289889  0.52435164  0.51028589  1
  H+  H59  1  0.64591269  0.03103012  0.82663253  1
  H+  H60  1  -0.00615523  0.87225693  -0.00845222  1
  H+  H61  1  0.61271916  0.46838971  0.01293062  1
  H+  H62  1  0.12419203  0.50385458  0.82885309  1
  H+  H63  1  0.37147452  0.23241410  0.82288664  1
  H+  H64  1  0.18010716  0.12577618  -0.01423922  1
  H+  H65  1  0.37451244  0.38943803  0.18318864  1
  H+  H66  1  0.12448937  0.88931626  0.81121204  1
  H+  H67  1  0.02918990  0.62930469  0.14035050  1
  H+  H68  1  1.02686891  0.39260761  0.66923594  1
  H+  H69  1  0.42338772  0.92120359  0.01252217  1
  H+  H70  1  0.13865311  0.36704477  0.66255103  1
  H+  H71  1  0.36069537  0.89186163  0.16867264  1
  H+  H72  1  0.12096895  0.73480946  0.66453304  1
  H+  H73  1  0.92079933  0.79270560  0.83672083  1
  H+  H74  1  0.64714727  0.62894452  0.52264193  1
  H+  H75  1  0.10762736  0.02987328  0.99297730  1
  H+  H76  1  0.62199442  0.72299750  0.14555949  1
  H+  H77  1  0.19364275  0.57107496  0.20664072  1
  H+  H78  1  0.53443556  0.87228187  -0.00622667  1
  H+  H79  1  0.27032231  0.65018037  0.35788831  1
  H+  H80  1  0.78978932  0.61468357  0.35469826  1
  H+  H81  1  0.89514310  0.03245559  0.16529703  1
  H+  H82  1  0.87356986  0.23779987  0.82979460  1
  H+  H83  1  -0.04016511  0.84365262  0.33609093  1
  H+  H84  1  0.48843348  0.10192949  0.63497161  1
  H+  H85  1  0.72177238  0.32189247  0.86055247  1
  H+  H86  1  0.12123490  0.09980187  0.51461756  1
  H+  H87  1  0.54462669  0.20777230  0.55196870  1
  H+  H88  1  0.85964942  0.14016928  0.82521006  1
  H+  H89  1  -0.02311274  0.35319951  -0.01576908  1
  H+  H90  1  0.22510458  0.84801070  0.32490536  1
  H+  H91  1  0.23305179  0.36805074  0.50855826  1
  H+  H92  1  0.90672103  0.78184251  0.98438618  1
  H+  H93  1  0.37802594  0.14710693  0.81386283  1
  H+  H94  1  0.87611932  0.99490567  0.65738529  1
  H+  H95  1  0.11276626  0.89609009  0.15567459  1
  H+  H96  1  0.67765983  0.58869375  0.27608833  1
  H+  H97  1  0.14372657  0.26855410  0.18676044  1
  H+  H98  1  0.13247775  0.52197731  0.66261946  1
  H+  H99  1  0.27490190  0.90573801  0.96859224  1
  H+  H100  1  0.53063986  0.08985012  0.14592550  1
  H+  H101  1  0.09349635  0.86334253  0.31968969  1
  H+  H102  1  0.27634282  0.38641071  0.34327166  1
  H+  H103  1  0.74113518  0.86189679  0.13471783  1
  H+  H104  1  0.77545051  0.41447823  0.80741547  1
  H+  H105  1  0.31545069  0.58668218  0.78230142  1
  H+  H106  1  0.13036580  0.11725631  0.66175340  1
  H+  H107  1  0.61512765  0.71862408  0.00343477  1
  H+  H108  1  0.86920519  0.63628007  -0.00326028  1
  H+  H109  1  0.63270428  0.47023102  0.32859181  1
  H+  H110  1  0.64875294  0.61011762  0.33934580  1
  H+  H111  1  0.68044611  0.85514963  0.60486914  1
  H+  H112  1  0.62147705  0.60194945  0.66885542  1
  H+  H113  1  0.03074242  0.14439981  0.16648875  1
  H+  H114  1  0.38470926  0.76713697  0.82578875  1
  H+  H115  1  0.38792700  0.78180421  0.65840295  1
  H+  H116  1  0.10809857  0.38437367  0.82146209  1
  H+  H117  1  0.46938991  0.29110750  0.52879618  1
  H+  H118  1  0.51719317  0.14479488  0.31766508  1
  H+  H119  1  0.37103553  0.01647267  0.33638719  1
  H+  H120  1  0.22083130  0.11760417  0.66290662  1
  H+  H121  1  0.22952103  0.36482811  0.83434691  1
  H+  H122  1  0.83226468  0.44717369  0.18633412  1
  H+  H123  1  0.37667900  0.35848282  0.33134968  1
  H+  H124  1  0.37353339  0.47635155  0.18566085  1
  H+  H125  1  0.35971990  0.88646522  0.81460099  1
  H+  H126  1  0.87836601  0.89391337  0.99470607  1
  H+  H127  1  0.38749199  0.27705627  0.99046363  1
  H+  H128  1  0.36511132  0.72937643  0.35501434  1
  H+  H129  1  0.79652320  0.14817910  0.15589528  1
  H+  H130  1  0.72698200  0.60698742  0.98579406  1
  H+  H131  1  0.88445620  0.77865374  0.51336980  1
  H+  H132  1  0.26746625  0.64152588  0.66711905  1
  H+  H133  1  0.92450039  0.32946736  0.92058295  1
  H+  H134  1  0.58932847  0.40903337  0.11303831  1
  H+  H135  1  0.27623044  0.17631709  0.13982404  1
  H+  H136  1  0.86376751  0.90400747  0.67689172  1
  H+  H137  1  0.14100963  0.28855585  0.34022454  1
  H+  H138  1  0.58418134  0.40375862  0.72979315  1
  H+  H139  1  0.88305907  0.90135872  0.14742690  1
  H+  H140  1  0.93694996  0.07493260  0.48154255  1
  H+  H141  1  0.54750693  0.41374195  0.49525607  1
  H+  H142  1  0.10647141  0.87428231  0.51213837  1
  H+  H143  1  0.86982108  0.97714298  0.34778902  1
  H+  H144  1  0.74792360  0.39132996  0.49567984  1
  H+  H145  1  0.61492220  0.98910519  0.34551252  1
  H+  H146  1  0.62995716  0.25228889  0.83401629  1
  H+  H147  1  0.36573580  0.38859398  0.67482064  1
  H+  H148  1  0.38873414  0.60889406  0.34330194  1
  H+  H149  1  0.48660440  1.01834647  0.03155762  1
  H+  H150  1  0.25519050  0.09397767  0.85528318  1
  H+  H151  1  0.61213017  0.10343794  0.54852119  1
  H+  H152  1  0.13905800  0.62271921  0.51385489  1
  H+  H153  1  0.69850123  0.23046913  0.43369617  1
  H+  H154  1  0.54023026  0.89050673  0.14920232  1
  H+  H155  1  0.47834706  0.36134557  0.66256513  1
  H+  H156  1  1.01027918  0.37592739  0.82708263  1
  H+  H157  1  0.38794270  1.02555719  0.82519280  1
  H+  H158  1  0.09685033  0.75823468  0.96706748  1
  H+  H159  1  0.61724480  0.90191992  0.35735244  1
  H+  H160  1  0.65971679  0.56605956  0.93159503  1
  H+  H161  1  0.89474074  0.12258703  0.17039901  1
  H+  H162  1  0.25427214  0.87608853  0.49719416  1
  H+  H163  1  0.13341614  0.61484062  0.66097261  1
  H+  H164  1  0.89779649  0.61980614  0.83744671  1
  H+  H165  1  0.34070885  0.96494250  0.49340174  1
  H+  H166  1  0.77186480  0.72607081  0.10743862  1
  H+  H167  1  0.35281285  0.10177733  0.50391156  1
  H+  H168  1  0.88376414  0.86949794  0.51629324  1
  H+  H169  1  0.13226689  0.85027628  0.65476830  1
  H+  H170  1  0.27132749  0.37439783  0.99693559  1
  H+  H171  1  0.03494120  0.89627740  0.81939706  1
  H+  H172  1  0.62059655  0.32597108  0.19647915  1
  H+  H173  1  0.60339636  0.98338094  0.51018636  1
  H+  H174  1  0.72538611  0.61907138  0.17311995  1
  H+  H175  1  0.35463771  0.14617031  -0.01121354  1
  H+  H176  1  0.91642889  0.60822452  0.18861839  1
  H+  H177  1  0.11299024  0.13516639  0.17423537  1
  H+  H178  1  0.12199128  0.72770610  0.82036915  1
  H+  H179  1  0.87093535  0.13522473  0.99694109  1
  H+  H180  1  0.03308562  0.64147897  0.49715067  1
  H+  H181  1  0.87264075  0.78762286  0.67157259  1
  H+  H182  1  0.49639255  0.61395686  0.18849478  1
  H+  H183  1  0.24915282  0.12956058  0.50019293  1
  H+  H184  1  0.25595930  0.60991898  0.82088931  1
  H+  H185  1  0.13351239  0.41829087  0.33794678  1
  H+  H186  1  0.73713529  0.86176648  0.99203182  1
  H+  H187  1  0.87445107  0.27432363  0.50910757  1
  H+  H188  1  0.12634207  0.77531088  0.50846151  1
  H+  H189  1  0.49525909  0.36390744  0.18891808  1
  H+  H190  1  0.11909275  0.55935462  0.35684413  1
  H+  H191  1  0.40151435  0.28044130  0.18026174  1
  H+  H192  1  0.85653619  0.93200921  0.08647056  1
  H+  H193  1  0.09598062  0.64968409  0.43954853  1
  H+  H194  1  0.58318719  0.90897722  0.73655111  1
  H+  H195  1  0.48261412  0.87008000  0.34239892  1
  H+  H196  1  0.01835491  0.89222148  0.67094036  1
  H+  H197  1  0.87402716  0.48475934  0.66845987  1
  H+  H198  1  0.85503556  0.35946350  0.32949718  1
  H+  H199  1  0.86951977  0.22186708  -0.00008609  1
  H+  H200  1  0.97022891  0.35529227  0.50267636  1
  H+  H201  1  0.11801680  0.00540773  0.17789502  1
  H+  H202  1  0.37338274  0.76510836  0.18622910  1
  H+  H203  1  0.37571540  0.48430095  0.82852105  1
  H+  H204  1  0.10735502  0.37436207  0.49123101  1
  H+  H205  1  0.38562892  0.61007745  0.51375226  1
  H+  H206  1  0.62152713  0.49707641  0.83676863  1
  H+  H207  1  0.20780697  0.09994236  0.33836712  1
  H+  H208  1  0.61742364  0.23876948  0.17966205  1
  H+  H209  1  0.25917418  0.61907233  0.98804698  1
  H+  H210  1  0.53136803  0.63557904  0.35836187  1
  H+  H211  1  -0.02196457  0.02997829  0.28789348  1
  H+  H212  1  0.04616028  0.41497958  0.32625753  1
  H+  H213  1  0.85390888  0.17051624  0.09677147  1
  H+  H214  1  0.09229126  0.40363912  0.06088508  1
  H+  H215  1  0.41706954  0.83146185  0.28546538  1
  H+  H216  1  0.03495018  0.10589082  0.96320170  1
  H+  H217  1  0.52776808  0.64437833  0.50958303  1
  H+  H218  1  0.67105149  0.84056664  0.29946853  1
  H+  H219  1  0.91016200  0.63934012  0.51466381  1
  H+  H220  1  0.63418497  0.11783438  0.31191425  1
  H+  H221  1  0.11255606  0.22842903  0.66884048  1
  H+  H222  1  0.87158684  0.38660990  -0.01240299  1
  H+  H223  1  0.73009912  0.87241525  0.35674594  1
  H+  H224  1  0.76122651  0.35119328  0.18841611  1
  H+  H225  1  0.14296955  0.35925487  0.99195172  1
  H+  H226  1  0.37920509  0.61312766  0.66156010  1
  H+  H227  1  0.85663580  0.75150636  0.14284636  1
  H+  H228  1  0.61831618  0.72569743  0.36034758  1
  H+  H229  1  0.22709103  0.86889124  0.83085432  1
  H+  H230  1  0.61668939  0.13860488  0.81060116  1
  H+  H231  1  0.43771102  0.11852487  0.19029157  1
  H+  H232  1  0.36357174  0.47113712  0.00076622  1
  H+  H233  1  0.63142588  0.87358404  0.51817952  1
  H+  H234  1  0.74159990  0.65351302  0.69211789  1
  H+  H235  1  0.37557834  0.86045891  0.50694992  1
  H+  H236  1  0.65178118  0.86021043  0.13599222  1
  H+  H237  1  0.52555867  0.88437873  0.82666436  1
  H+  H238  1  0.32172286  0.91154009  0.75747676  1
  H+  H239  1  0.12691216  0.78086162  0.16268255  1
  H+  H240  1  0.36078644  0.88489233  0.34891980  1
  H+  H241  1  0.23378366  0.35982491  0.18982802  1
  H+  H242  1  0.52994893  0.22411875  0.52551068  1
  H+  H243  1  0.88928092  0.51580682  0.98511215  1
  H+  H244  1  0.73369454  0.12344718  0.83108150  1
  H+  H245  1  0.09241738  0.95133489  0.32616953  1
  H+  H246  1  0.71250844  0.58011401  0.83629696  1
  H+  H247  1  0.65875872  0.30804044  0.48864941  1
  H+  H248  1  0.54194131  0.65145676  0.83597308  1
  H+  H249  1  0.62350581  0.46914439  0.17147957  1
  H+  H250  1  0.36420777  0.02298573  0.17570382  1
  H+  H251  1  0.37811695  0.38867256  0.49498978  1
  H+  H252  1  0.62876012  1.01780403  -0.02562716  1
  H+  H253  1  0.38361899  0.60391874  -0.00358894  1
  H+  H254  1  0.10197731  0.84872476  -0.02227773  1
  H+  H255  1  0.87167978  0.23236834  0.67423915  1
  H+  H256  1  0.30960440  0.62664940  0.15536275  1
  H+  H257  1  0.34559707  0.13326744  0.67119313  1
  H+  H258  1  0.60952721  0.37825610  0.01251255  1
  H+  H259  1  0.34015332  0.13997940  0.15421739  1
  H+  H260  1  0.66317331  0.79040910  0.83794765  1
  H+  H261  1  0.71098113  0.41066488  0.31803718  1
  H+  H262  1  0.34946511  0.88239888  0.66799754  1
  H+  H263  1  0.61114331  0.62774013  0.00029444  1
  H+  H264  1  0.10952491  0.98146275  0.66950545  1
  H+  H265  1  0.64929508  0.54112837  0.51486023  1
  H+  H266  1  0.78289989  0.38716044  -0.00469917  1
  H+  H267  1  0.66942957  0.58635798  0.61196528  1
  H+  H268  1  0.77991504  0.64588774  0.50924956  1
  H+  H269  1  0.91861501  0.61198815  0.34964370  1
  H+  H270  1  0.38475153  0.27440992  0.66174056  1
  H+  H271  1  0.59888200  0.22132130  0.28437770  1
  H+  H272  1  0.77096683  0.89396703  0.51083692  1
  H+  H273  1  0.32071078  0.82119868  0.96114831  1
  H+  H274  1  0.63282414  0.78391793  0.52047468  1
  H+  H275  1  0.65122156  0.36875268  0.65203536  1
  H+  H276  1  0.34365401  0.42415171  0.76877235  1
  H+  H277  1  0.85129633  0.23638145  0.34813577  1
  H+  H278  1  0.01895193  0.62182971  -0.01234285  1
  H+  H279  1  0.04663762  0.39779928  0.16071599  1
  H+  H280  1  0.59453358  0.38675771  0.36794886  1
  H+  H281  1  0.63219239  0.26697228  0.99695078  1
  H+  H282  1  0.22334146  0.86139766  0.16099616  1
  H+  H283  1  0.46938128  0.86814341  0.50846213  1
  H+  H284  1  0.36128623  0.72817494  0.50467814  1
  H+  H285  1  0.36472829  0.05895613  0.60125144  1
  H+  H286  1  0.36980059  0.47312529  0.34482009  1
  H+  H287  1  0.40020966  0.62219513  0.84828506  1
  H+  H288  1  0.08581598  0.91851148  0.74866642  1
  H+  H289  1  0.16449812  0.96412404  0.02036624  1
  H+  H290  1  0.13534739  0.60193968  0.83097126  1
  H+  H291  1  0.16701561  0.58729253  0.57948913  1
  H+  H292  1  0.81389574  0.17303510  0.40428751  1
  H+  H293  1  0.17134544  0.33804197  0.56533254  1
  H+  H294  1  0.09479841  0.93197363  0.07764663  1
  H+  H295  1  0.32939762  0.66471977  0.44760943  1
  H+  H296  1  0.16857773  0.33145222  0.89142801  1
  H+  H297  1  0.33269478  0.17570222  0.05104840  1
  H+  H298  1  0.89519763  0.53034146  0.83074896  1
  H+  H299  1  0.74174643  0.88936086  0.84218008  1
  H+  H300  1  0.83266180  0.92709063  0.45372309  1
  H+  H301  1  0.85614180  0.98159885  0.77508761  1
  H+  H302  1  0.61795752  0.21144505  0.39675900  1
  H+  H303  1  0.62598053  0.87996502  -0.00098454  1
  H+  H304  1  0.59141264  0.92054143  0.08666354  1
  H+  H305  1  0.41906807  0.08809732  0.88273609  1
  H+  H306  1  0.38015076  0.07010478  0.27683729  1
  H+  H307  1  0.57720277  0.65815541  0.73767390  1
  H+  H308  1  0.13965064  0.26931782  0.98449578  1
  H+  H309  1  0.31640693  0.90628974  0.40365934  1
  H+  H310  1  0.32883814  0.17427122  0.73045647  1
  H+  H311  1  0.92205198  0.33977568  0.59763196  1
  H+  H312  1  0.42273563  0.33877621  0.89846064  1
  H+  H313  1  0.58999801  0.67381405  0.45222862  1
  H+  H314  1  0.75455810  0.73642944  0.72584740  1
  H+  H315  1  0.09651224  0.66443425  0.03652008  1
  H+  H316  1  0.57731813  0.64685385  0.10004996  1
  H+  H317  1  0.94228243  0.60660103  0.57038995  1
  H+  H318  1  0.08016120  0.40958037  0.43369816  1
  H+  H319  1  0.42601196  0.32485158  0.57540112  1
  H+  H320  1  0.85988824  0.88756847  0.36755519  1
  H+  H321  1  0.41293667  0.62086420  0.19480323  1
  H+  H322  1  0.48035325  0.36613128  0.99920279  1
  H+  H323  1  0.92888971  0.07115942  0.25703524  1
  H+  H324  1  0.42731200  0.58792348  0.90587625  1
  H+  H325  1  0.95238533  0.05674133  0.57812969  1
  H+  H326  1  0.72382305  0.12189506  0.32626702  1
  H+  H327  1  -0.00992858  0.67356404  0.10042857  1
  H+  H328  1  0.34860691  0.00329703  0.66157815  1
  H+  H329  1  0.09480686  0.67425624  0.72763357  1
  H+  H330  1  0.06768333  0.15326846  0.44292114  1
  H+  H331  1  0.90563936  0.06627962  0.89572110  1
  H+  H332  1  0.67870830  0.08398756  0.23018958  1
  H+  H333  1  0.02612721  0.61840941  0.32441722  1
  H+  H334  1  0.86596691  0.79918829  0.30721367  1
  H+  H335  1  0.31625622  0.16528887  0.40600274  1
  H+  H336  1  0.14483359  0.06986118  0.28137650  1
  H+  H337  1  0.16398986  0.56244952  0.91744977  1
  H+  H338  1  0.74899640  0.11598351  0.66859837  1
  H+  H339  1  0.65438458  0.32188308  0.93725681  1
  H+  H340  1  0.17251771  0.82323320  0.26126108  1
  H+  H341  1  0.87416572  0.98061106  -0.01073405  1
  H+  H342  1  0.94837953  0.85262531  0.89486232  1
  H+  H343  1  0.30395058  0.65456019  0.05111819  1
  H+  H344  1  0.58689147  0.14766623  0.65045946  1
  H+  H345  1  0.39993389  0.68151354  0.11605251  1
  H+  H346  1  0.07628204  0.16435062  0.72668388  1
  H+  H347  1  0.14900685  0.83357192  0.88208876  1
  H+  H348  1  0.67873274  0.83444172  0.93301090  1
  H+  H349  1  0.40088620  0.82021702  0.88651083  1
  H+  H350  1  0.37082336  0.93977251  0.10547889  1
  H+  H351  1  0.75483408  0.84215428  0.23802365  1
  H+  H352  1  0.68783918  0.35268244  0.59085214  1
  H+  H353  1  0.13286539  0.71239724  0.31567762  1
  H+  H354  1  0.34651026  0.41516770  0.43602250  1
  H+  H355  1  0.92123842  0.58232138  0.92853046  1
  H+  H356  1  0.41920313  0.84321816  0.60121439  1
  H+  H357  1  0.64661022  0.87940352  0.66857522  1
  H+  H358  1  0.41808131  0.32479609  0.27218445  1
  H+  H359  1  0.47564528  0.60643308  0.99841791  1
  H+  H360  1  0.83784011  0.66163716  0.44968933  1
  H+  H361  1  0.84029551  0.42864268  0.75449046  1
  H+  H362  1  0.86454367  0.38952420  0.48154022  1
  H+  H363  1  0.75566302  0.88458580  0.23681563  1
  H+  H364  1  0.41208496  0.58056520  0.60569862  1
  H+  H365  1  0.92094985  0.57126895  0.28546440  1
  H+  H366  1  0.17735702  0.06051139  0.89916543  1
  H+  H367  1  0.15492592  0.82562874  0.57706468  1
  H+  H368  1  0.83420575  0.67451697  0.04961949  1
  H+  H369  1  0.90839059  0.83661598  0.60736844  1
  H+  H370  1  0.42987883  0.58714067  0.28614920  1
  H+  H371  1  0.84272493  0.17875517  0.73574541  1
  H+  H372  1  0.34825556  0.13162922  0.34883451  1
  H+  H373  1  0.64885663  0.07811375  0.91499050  1
  H+  H374  1  0.25108405  0.86765587  0.66415678  1
  H+  H375  1  0.58455228  0.15383062  0.05900684  1
  H+  H376  1  0.81425125  0.68569154  0.78321426  1
  H+  H377  1  0.93520336  0.83889383  0.21719426  1
  H+  H378  1  0.81969872  0.40117047  0.42126024  1
  H+  H379  1  0.17163839  0.33805142  0.27670702  1
  H+  H380  1  0.58259260  0.93204920  0.44659206  1
  H+  H381  1  0.23415186  0.62232395  0.51725624  1
  H+  H382  1  0.52805667  0.88538210  0.67393875  1
  H+  H383  1  0.15768446  0.07902744  0.57602410  1
  O2-  O384  1  0.09378197  0.17390082  0.15805880  1
  O2-  O385  1  0.06152428  0.14104697  0.48803510  1
  O2-  O386  1  0.07466937  0.16101264  0.79945372  1
  O2-  O387  1  0.09979565  0.40699397  0.13873225  1
  O2-  O388  1  0.06867560  0.39592303  0.47694577  1
  O2-  O389  1  0.07630770  0.41351760  0.80806846  1
  O2-  O390  1  0.01192856  0.67301613  0.14095968  1
  O2-  O391  1  0.09608890  0.66456183  0.48257845  1
  O2-  O392  1  0.09396894  0.66628141  0.80721914  1
  O2-  O393  1  0.08292792  0.92561454  0.14043621  1
  O2-  O394  1  0.07392866  0.90977557  0.49852998  1
  O2-  O395  1  0.09301147  0.92059047  0.79628849  1
  O2-  O396  1  0.33472556  0.18714971  0.13439627  1
  O2-  O397  1  0.30903251  0.16015987  0.48193302  1
  O2-  O398  1  0.34301999  0.17462104  0.80372618  1
  O2-  O399  1  0.34005715  0.41602286  0.17178736  1
  O2-  O400  1  0.35025712  0.42052732  0.48115999  1
  O2-  O401  1  0.34399188  0.42380082  0.81457280  1
  O2-  O402  1  0.37133074  0.67868664  0.15422585  1
  O2-  O403  1  0.32950271  0.66543088  0.49302812  1
  O2-  O404  1  0.31786053  0.63508214  0.80431429  1
  O2-  O405  1  0.34274060  0.92838109  0.14621880  1
  O2-  O406  1  0.31380129  0.90383439  0.47977544  1
  O2-  O407  1  0.32898834  0.91718520  0.80324263  1
  O2-  O408  1  0.58636385  0.13949877  0.13690162  1
  O2-  O409  1  0.63957665  0.21796717  0.43891360  1
  O2-  O410  1  0.58843625  0.17213430  0.79841965  1
  O2-  O411  1  0.59078467  0.40812264  0.15823783  1
  O2-  O412  1  0.60604463  0.44824135  0.47975543  1
  O2-  O413  1  0.58288252  0.39926841  0.81009684  1
  O2-  O414  1  0.58617925  0.65772585  0.14443371  1
  O2-  O415  1  0.58947751  0.67922795  0.49742788  1
  O2-  O416  1  0.60098133  0.67726022  0.81874372  1
  O2-  O417  1  0.59755902  0.92448629  0.13223293  1
  O2-  O418  1  0.57699077  0.92409657  0.49154674  1
  O2-  O419  1  0.58567577  0.91535454  0.81180206  1
  O2-  O420  1  0.85643889  0.17336004  0.14228600  1
  O2-  O421  1  0.80364579  0.16469252  0.48885727  1
  O2-  O422  1  0.83419905  0.17577989  0.81331985  1
  O2-  O423  1  0.81629423  0.39093641  0.16887770  1
  O2-  O424  1  0.83626107  0.42015851  0.46410607  1
  O2-  O425  1  0.83579264  0.43265441  0.80060546  1
  O2-  O426  1  0.80643003  0.70136715  0.12154938  1
  O2-  O427  1  0.84051936  0.67685917  0.49342790  1
  O2-  O428  1  0.83159859  0.67213976  0.82378143  1
  O2-  O429  1  0.85157140  0.92981115  0.13190491  1
  O2-  O430  1  0.83219858  0.92112210  0.49845590  1
  O2-  O431  1  0.85051563  0.97632313  0.81979550  1
  O2-  O432  1  0.14828615  0.06259877  0.20377221  1
  O2-  O433  1  0.15453354  0.07223361  0.52970085  1
  O2-  O434  1  0.22157958  0.04814179  0.88487486  1
  O2-  O435  1  0.17180495  0.33018771  0.20231135  1
  O2-  O436  1  0.17222249  0.33919658  0.52030076  1
  O2-  O437  1  0.16820579  0.33398249  0.84658853  1
  O2-  O438  1  0.21861330  0.55900207  0.17145317  1
  O2-  O439  1  0.17173039  0.59316789  0.53200538  1
  O2-  O440  1  0.16246168  0.56768222  0.84425704  1
  O2-  O441  1  0.16766538  0.83522185  0.18266058  1
  O2-  O442  1  0.15183596  0.83353732  0.52628380  1
  O2-  O443  1  0.16334363  0.83620618  0.83758520  1
  O2-  O444  1  0.37581921  0.07972466  0.19353015  1
  O2-  O445  1  0.37692706  0.06587979  0.52049725  1
  O2-  O446  1  0.42275843  0.08695311  0.83780123  1
  O2-  O447  1  0.43403419  0.33325390  0.20498785  1
  O2-  O448  1  0.43154862  0.31555930  0.52993223  1
  O2-  O449  1  0.42331669  0.33727048  0.85339445  1
  O2-  O450  1  0.43978615  0.58815064  0.21026588  1
  O2-  O451  1  0.41923588  0.58322015  0.52825433  1
  O2-  O452  1  0.43381391  0.59502222  0.86083817  1
  O2-  O453  1  0.36553314  0.80887348  0.20940692  1
  O2-  O454  1  0.40839716  0.83314311  0.52285229  1
  O2-  O455  1  0.41246899  0.82572169  0.84212204  1
  O2-  O456  1  0.68226366  0.08599373  0.18448039  1
  O2-  O457  1  0.65105810  0.08039141  0.54235138  1
  O2-  O458  1  0.67002843  0.09074352  0.84131015  1
  O2-  O459  1  0.63643823  0.28387438  0.21109993  1
  O2-  O460  1  0.68571617  0.36349025  0.51102696  1
  O2-  O461  1  0.66328158  0.31180674  0.85742227  1
  O2-  O462  1  0.67068750  0.58221750  0.19473779  1
  O2-  O463  1  0.67853563  0.59903071  0.53593217  1
  O2-  O464  1  0.65383492  0.55872493  0.85145007  1
  O2-  O465  1  0.67773308  0.82358303  0.13105739  1
  O2-  O466  1  0.66352554  0.84539147  0.53427210  1
  O2-  O467  1  0.68233959  0.84827869  0.85551223  1
  O2-  O468  1  0.92249273  0.08825246  0.18741406  1
  O2-  O469  1  0.98024717  0.05961978  0.49311591  1
  O2-  O470  1  0.90123132  0.06727506  0.84030177  1
  O2-  O471  1  0.96749865  0.39828986  0.20172396  1
  O2-  O472  1  0.91123068  0.33572215  0.51994077  1
  O2-  O473  1  0.92911451  0.33108747  0.85078476  1
  O2-  O474  1  0.87659957  0.56395749  0.21740547  1
  O2-  O475  1  0.94911434  0.61739877  0.52609734  1
  O2-  O476  1  0.92835666  0.58943559  0.84951552  1
  O2-  O477  1  0.93078940  0.84048181  0.17321823  1
  O2-  O478  1  0.91536718  0.83899187  0.53023828  1
  O2-  O479  1  0.94934892  0.85307107  0.84934486  1
  O2-  O480  1  0.14598945  0.06961966  0.32686724  1
  O2-  O481  1  0.15997142  0.08409493  0.64770293  1
  O2-  O482  1  0.12189887  0.08453381  0.97221987  1
  O2-  O483  1  0.17552521  0.34688429  0.32246522  1
  O2-  O484  1  0.16707527  0.33479122  0.64789566  1
  O2-  O485  1  0.17603513  0.33034832  0.97530464  1
  O2-  O486  1  0.13777754  0.62112780  0.36672183  1
  O2-  O487  1  0.16395729  0.58347536  0.64610337  1
  O2-  O488  1  0.16585475  0.56543830  0.96360860  1
  O2-  O489  1  0.16701789  0.81071709  0.30576464  1
  O2-  O490  1  0.16059896  0.82031646  0.63759472  1
  O2-  O491  1  0.09618902  0.80676327  0.94666511  1
  O2-  O492  1  0.39485586  0.07649014  0.32052366  1
  O2-  O493  1  0.37532728  0.06408495  0.64564429  1
  O2-  O494  1  0.41520920  0.09809562  0.96463337  1
  O2-  O495  1  0.40383602  0.32118140  0.31849214  1
  O2-  O496  1  0.41816330  0.33521298  0.64600224  1
  O2-  O497  1  0.42149847  0.34109099  0.97994499  1
  O2-  O498  1  0.42244903  0.58132374  0.33152456  1
  O2-  O499  1  0.40837474  0.58009783  0.65114547  1
  O2-  O500  1  0.41405574  0.57311127  0.98376719  1
  O2-  O501  1  0.42025747  0.83388389  0.33030053  1
  O2-  O502  1  0.42131950  0.84355322  0.64663737  1
  O2-  O503  1  0.37374070  0.81888250  0.96514631  1
  O2-  O504  1  0.66523063  0.08523951  0.30663510  1
  O2-  O505  1  0.68684365  0.08188322  0.65377229  1
  O2-  O506  1  0.62767379  0.06805745  0.95809248  1
  O2-  O507  1  0.77203100  0.42473441  0.31113131  1
  O2-  O508  1  0.68957279  0.34880594  0.63590549  1
  O2-  O509  1  0.65938738  0.32739593  0.98227954  1
  O2-  O510  1  0.68043657  0.58362509  0.32099969  1
  O2-  O511  1  0.66202742  0.57974147  0.65734396  1
  O2-  O512  1  0.66433937  0.57349011  0.97662813  1
  O2-  O513  1  0.66775583  0.83998259  0.34375768  1
  O2-  O514  1  0.68808714  0.86028414  0.65108156  1
  O2-  O515  1  0.67569959  0.82938095  0.97833149  1
  O2-  O516  1  0.94324387  0.05572783  0.29885434  1
  O2-  O517  1  0.93559036  0.06849804  0.61792175  1
  O2-  O518  1  0.91330425  0.07375206  0.95138483  1
  O2-  O519  1  0.91075909  0.35238320  0.32763987  1
  O2-  O520  1  0.92701870  0.34184741  0.64305486  1
  O2-  O521  1  0.91848324  0.32890216  0.96760403  1
  O2-  O522  1  0.94802049  0.58527651  0.32702212  1
  O2-  O523  1  0.93095285  0.59391970  0.65023054  1
  O2-  O524  1  0.92166469  0.58124400  0.97397428  1
  O2-  O525  1  0.89568979  0.81309424  0.34614879  1
  O2-  O526  1  0.91154599  0.84406923  0.65275207  1
  O2-  O527  1  0.93675687  0.84342367  0.97198597  1
  O2-  O528  1  0.00505521  0.13950366  -0.04025522  1
  O2-  O529  1  0.08349291  0.17404806  0.36698048  1
  O2-  O530  1  0.08202443  0.16632559  0.68059006  1
  O2-  O531  1  0.09198050  0.40202011  0.01531152  1
  O2-  O532  1  0.10098413  0.44852358  0.34758406  1
  O2-  O533  1  0.08733729  0.42457883  0.68607261  1
  O2-  O534  1  0.08501002  0.65546814  -0.00684188  1
  O2-  O535  1  0.10193739  0.64563620  0.31531641  1
  O2-  O536  1  0.09098260  0.67119565  0.68239174  1
  O2-  O537  1  0.10286313  0.93629086  0.02789622  1
  O2-  O538  1  0.05716061  0.88971162  0.31535073  1
  O2-  O539  1  0.08019910  0.91947059  0.68293135  1
  O2-  O540  1  0.32800788  0.17852207  0.00651006  1
  O2-  O541  1  0.31908626  0.16504008  0.36026289  1
  O2-  O542  1  0.32416455  0.17269397  0.68458460  1
  O2-  O543  1  0.33454202  0.40757487  0.01127805  1
  O2-  O544  1  0.33863485  0.41039493  0.35590886  1
  O2-  O545  1  0.33468267  0.41655695  0.69258461  1
  O2-  O546  1  0.31858241  0.65609749  0.00822855  1
  O2-  O547  1  0.33005385  0.66784498  0.36823921  1
  O2-  O548  1  0.32925765  0.67425379  0.68049786  1
  O2-  O549  1  0.42882157  0.96893416  0.03787887  1
  O2-  O550  1  0.32275689  0.90921809  0.35801618  1
  O2-  O551  1  0.31173591  0.90396362  0.68346452  1
  O2-  O552  1  0.57329331  0.15469405  0.01479972  1
  O2-  O553  1  0.58051857  0.17819861  0.31750198  1
  O2-  O554  1  0.54620535  0.12396248  0.61697131  1
  O2-  O555  1  0.57993772  0.40892516  0.02936426  1
  O2-  O556  1  0.61529896  0.40829654  0.32715782  1
  O2-  O557  1  0.58217906  0.40821299  0.68482575  1
  O2-  O558  1  0.58035227  0.65722048  0.01617671  1
  O2-  O559  1  0.59196708  0.66461098  0.37296019  1
  O2-  O560  1  0.57431166  0.65046475  0.69306016  1
  O2-  O561  1  0.59120096  0.90828051  0.01122797  1
  O2-  O562  1  0.58430161  0.93158135  0.36643796  1
  O2-  O563  1  0.58726256  0.90967400  0.69096467  1
  O2-  O564  1  0.84569658  0.16466669  0.01945424  1
  O2-  O565  1  0.81696782  0.17496264  0.35950235  1
  O2-  O566  1  0.84331876  0.17327030  0.69069138  1
  O2-  O567  1  0.84558443  0.42248618  0.00013132  1
  O2-  O568  1  0.77852229  0.36307016  0.34799066  1
  O2-  O569  1  0.84310471  0.42421619  0.68274900  1
  O2-  O570  1  0.84008178  0.67050715  0.00499928  1
  O2-  O571  1  0.84851047  0.64524064  0.37240368  1
  O2-  O572  1  0.78556099  0.70591191  0.71693584  1
  O2-  O573  1  0.84636108  0.92232284  0.00947906  1
  O2-  O574  1  0.83436092  0.92496715  0.37334053  1
  O2-  O575  1  0.83858634  0.94161581  0.68491802  1
