# generated using pymatgen
data_H2O
_symmetry_space_group_name_H-M   'P 1'
_cell_length_a   17.99162829
_cell_length_b   17.99413340
_cell_length_c   22.00292011
_cell_angle_alpha   90.00348989
_cell_angle_beta   89.99553291
_cell_angle_gamma   119.96834690
_symmetry_Int_Tables_number   1
_chemical_formula_structural   H2O
_chemical_formula_sum   'H384 O192'
_cell_volume   6170.93243108
_cell_formula_units_Z   192
loop_
 _symmetry_equiv_pos_site_id
 _symmetry_equiv_pos_as_xyz
  1  'x, y, z'
loop_
 _atom_type_symbol
 _atom_type_oxidation_number
  H+  1.0
  O2-  -2.0
loop_
 _atom_site_type_symbol
 _atom_site_label
 _atom_site_symmetry_multiplicity
 _atom_site_fract_x
 _atom_site_fract_y
 _atom_site_fract_z
 _atom_site_occupancy
  H+  H0  1  0.04471299  0.64609871  0.48645583  1
  H+  H1  1  0.34878151  0.96790893  0.15987322  1
  H+  H2  1  0.36405101  1.00336470  -0.00242156  1
  H+  H3  1  0.88941324  0.77191162  -0.00306642  1
  H+  H4  1  0.11958892  0.83672511  0.16896414  1
  H+  H5  1  0.77556816  0.89659502  0.15247015  1
  H+  H6  1  0.36787950  0.35141648  0.99377138  1
  H+  H7  1  0.63230539  0.75344452  0.65825725  1
  H+  H8  1  0.13835946  0.27650719  0.49661095  1
  H+  H9  1  0.90645145  0.08190810  0.43223610  1
  H+  H10  1  0.25926942  0.12374240  0.00622413  1
  H+  H11  1  0.10894260  0.33132889  0.65509041  1
  H+  H12  1  0.39480097  0.52468675  0.16728264  1
  H+  H13  1  0.50508568  0.69668417  0.02501462  1
  H+  H14  1  0.73854529  0.37012098  1.00041147  1
  H+  H15  1  0.96924040  0.83382530  0.66988882  1
  H+  H16  1  -0.05190612  0.60532424  0.67571505  1
  H+  H17  1  0.78021861  0.63739387  0.01607771  1
  H+  H18  1  0.47870555  0.36533179  0.84668880  1
  H+  H19  1  0.10872038  0.96682878  0.01087777  1
  H+  H20  1  0.61368129  0.65001521  0.15370885  1
  H+  H21  1  0.26184659  0.88199359  0.49468639  1
  H+  H22  1  0.62637685  0.23494955  0.33442985  1
  H+  H23  1  0.58595701  0.67934297  0.39815342  1
  H+  H24  1  0.89764293  0.02799468  0.83700255  1
  H+  H25  1  0.88319549  0.40812834  0.17063673  1
  H+  H26  1  0.38712615  0.64324550  0.48242395  1
  H+  H27  1  0.94259410  0.81864124  0.31454739  1
  H+  H28  1  0.39691006  0.77857163  0.32061297  1
  H+  H29  1  0.38859028  0.70128299  0.07352046  1
  H+  H30  1  0.53402436  0.82824040  0.04564278  1
  H+  H31  1  0.18193769  0.35371548  0.21421319  1
  H+  H32  1  0.10277213  0.64172320  0.64500612  1
  H+  H33  1  0.26407840  0.87250249  0.15459888  1
  H+  H34  1  0.87098547  0.48014052  0.01983841  1
  H+  H35  1  0.48892314  0.62657484  0.32100807  1
  H+  H36  1  0.85467683  0.58516820  0.66943373  1
  H+  H37  1  0.11218555  0.63688146  0.33944965  1
  H+  H38  1  0.86853846  0.48212206  0.47758987  1
  H+  H39  1  0.88240758  0.26794456  0.84790598  1
  H+  H40  1  0.12617700  0.60878951  1.01379660  1
  H+  H41  1  0.56088939  0.17895710  0.48430346  1
  H+  H42  1  0.62721767  0.90615782  0.49526116  1
  H+  H43  1  0.63782757  0.50254701  0.85672931  1
  H+  H44  1  0.84560326  0.64100084  0.17119226  1
  H+  H45  1  0.16456914  0.62709073  0.47046500  1
  H+  H46  1  0.36590533  0.63878022  0.16028388  1
  H+  H47  1  0.07633299  0.93018141  0.65569541  1
  H+  H48  1  0.13003171  0.02985058  0.50295895  1
  H+  H49  1  0.78003777  0.62714862  0.48839736  1
  H+  H50  1  0.48715551  0.58937259  -0.01400941  1
  H+  H51  1  0.85478450  0.88195459  0.33313106  1
  H+  H52  1  0.39497579  0.13058733  0.65945246  1
  H+  H53  1  0.84622476  0.70233843  0.68468872  1
  H+  H54  1  0.14149344  0.27995244  0.16395147  1
  H+  H55  1  0.63280649  0.99721653  0.67770544  1
  H+  H56  1  0.95710450  0.34919528  0.66784968  1
  H+  H57  1  0.66577523  0.56887523  0.95289509  1
  H+  H58  1  0.61641525  0.76939018  0.83197621  1
  H+  H59  1  0.10519501  0.72080576  0.33923566  1
  H+  H60  1  0.13908426  0.52952017  0.15615623  1
  H+  H61  1  0.35797974  0.84758719  0.51069095  1
  H+  H62  1  0.02623395  0.14135395  0.48016753  1
  H+  H63  1  0.26564686  0.13974446  0.15538577  1
  H+  H64  1  0.39123875  0.52305203  0.50393662  1
  H+  H65  1  0.88974668  0.86167812  0.99447782  1
  H+  H66  1  0.97490611  0.36711719  0.32037074  1
  H+  H67  1  0.40210036  0.53532394  0.32373547  1
  H+  H68  1  0.38591065  0.73222036  0.48210467  1
  H+  H69  1  0.38568657  0.48566387  0.67430996  1
  H+  H70  1  0.48095513  0.36800704  0.66873161  1
  H+  H71  1  0.11530345  0.11337487  0.99157098  1
  H+  H72  1  0.74367783  0.88124200  0.65429194  1
  H+  H73  1  0.39838621  0.61102858  0.65851654  1
  H+  H74  1  0.10755254  0.47379328  0.00471742  1
  H+  H75  1  0.39136428  1.04141688  0.66364421  1
  H+  H76  1  0.51989240  0.14490559  0.67891403  1
  H+  H77  1  0.91472114  0.82582909  0.90274052  1
  H+  H78  1  1.02603279  0.13990353  0.82816085  1
  H+  H79  1  0.36888655  0.73880173  0.82836400  1
  H+  H80  1  0.10657363  0.68439197  0.43232625  1
  H+  H81  1  0.61344333  0.73764650  0.48580381  1
  H+  H82  1  0.89324061  0.52640068  0.86446864  1
  H+  H83  1  0.87145495  0.64023899  0.01907564  1
  H+  H84  1  0.14490995  0.49834419  0.45737792  1
  H+  H85  1  0.52409308  0.38385082  0.33594936  1
  H+  H86  1  0.22503419  0.61922533  0.82352902  1
  H+  H87  1  0.95147894  0.34176065  0.52297103  1
  H+  H88  1  0.64164790  1.02633665  -0.00342962  1
  H+  H89  1  0.87042200  0.88323696  0.82150849  1
  H+  H90  1  0.39005929  0.37751555  0.66973937  1
  H+  H91  1  0.64583418  0.86989408  0.99268731  1
  H+  H92  1  0.36155347  0.38759196  0.82985574  1
  H+  H93  1  0.46752637  1.06725240  0.43472548  1
  H+  H94  1  0.40875049  0.75478793  0.01079143  1
  H+  H95  1  0.02808048  0.96388183  0.79003996  1
  H+  H96  1  0.48272305  0.87431259  0.83542402  1
  H+  H97  1  0.58841849  0.66732211  0.81454682  1
  H+  H98  1  0.27457320  0.38778694  0.49400951  1
  H+  H99  1  0.27906426  0.90059246  0.67682493  1
  H+  H100  1  0.16021270  0.56029222  0.74685051  1
  H+  H101  1  0.38304599  0.86400357  0.17127163  1
  H+  H102  1  0.12796329  0.03696150  0.17702645  1
  H+  H103  1  0.52412145  0.64894548  0.15565051  1
  H+  H104  1  0.42028428  0.81737866  0.66911127  1
  H+  H105  1  0.35523069  0.87157452  0.33617431  1
  H+  H106  1  0.85926605  0.97390942  0.33834383  1
  H+  H107  1  0.77294806  0.14447580  0.16178486  1
  H+  H108  1  0.21681528  0.84894221  0.32052935  1
  H+  H109  1  0.86933342  0.35506510  0.66838451  1
  H+  H110  1  0.62262962  0.23421247  1.00820365  1
  H+  H111  1  0.86654344  0.87761748  0.49495617  1
  H+  H112  1  0.05095952  0.41835129  0.46415658  1
  H+  H113  1  0.16116990  0.95447467  0.14965655  1
  H+  H114  1  0.67242348  0.10052878  0.23471736  1
  H+  H115  1  0.37850065  0.46104989  -0.00465854  1
  H+  H116  1  0.63299189  0.61386103  0.65571202  1
  H+  H117  1  0.84940322  0.46747190  0.67994030  1
  H+  H118  1  0.62393117  0.77545968  0.79779338  1
  H+  H119  1  0.36772902  0.25385282  -0.01006370  1
  H+  H120  1  0.27776867  0.14975100  0.67858461  1
  H+  H121  1  0.62440777  0.27449012  0.66579878  1
  H+  H122  1  0.14657899  0.67692634  0.65526321  1
  H+  H123  1  0.64720502  0.52351025  0.50340497  1
  H+  H124  1  0.33248081  0.92661067  0.77093039  1
  H+  H125  1  0.12949030  0.75643172  0.15480872  1
  H+  H126  1  0.39248475  0.87386547  0.83572055  1
  H+  H127  1  0.97617491  0.85600476  0.51154929  1
  H+  H128  1  0.63448476  0.03291503  0.83879219  1
  H+  H129  1  0.14146549  0.36667969  0.99461522  1
  H+  H130  1  0.83600933  0.90379430  0.43343917  1
  H+  H131  1  0.71880438  0.62886536  0.16891017  1
  H+  H132  1  0.11167906  0.37816332  0.83605493  1
  H+  H133  1  0.38784878  0.02716652  0.84342206  1
  H+  H134  1  0.11254084  0.88850491  0.50251378  1
  H+  H135  1  0.88159175  0.38856204  0.83536723  1
  H+  H136  1  0.15971153  1.03542329  0.32415641  1
  H+  H137  1  0.47425807  0.35741028  0.48993112  1
  H+  H138  1  0.13785368  0.86481959  0.86402703  1
  H+  H139  1  0.27916725  0.64282103  0.14968526  1
  H+  H140  1  0.61104373  0.14164392  0.83256471  1
  H+  H141  1  0.63883538  0.04494998  0.17472662  1
  H+  H142  1  0.54798267  0.90945262  0.66876599  1
  H+  H143  1  0.49358940  0.05119161  0.49907210  1
  H+  H144  1  0.73443743  0.38787061  0.51466414  1
  H+  H145  1  0.11763692  0.63643827  0.12250995  1
  H+  H146  1  0.72914367  0.86984614  0.33693562  1
  H+  H147  1  0.67412489  0.84322876  0.56190688  1
  H+  H148  1  0.87862157  0.92363747  0.63955855  1
  H+  H149  1  0.88596950  0.77702181  0.16770327  1
  H+  H150  1  1.08151354  0.16669077  0.73103378  1
  H+  H151  1  0.62790065  0.03365930  0.51892864  1
  H+  H152  1  0.27640863  0.38136892  1.00250400  1
  H+  H153  1  0.61054390  0.37825714  0.83090516  1
  H+  H154  1  0.39072332  0.77916162  0.17337278  1
  H+  H155  1  0.88852436  0.27686838  0.16959051  1
  H+  H156  1  0.89057612  0.02319058  0.99304356  1
  H+  H157  1  0.11772657  0.14353983  0.82481141  1
  H+  H158  1  0.14210582  0.57657392  0.67827132  1
  H+  H159  1  0.63813858  0.27268582  0.84272340  1
  H+  H160  1  0.72523760  0.37305467  0.31897648  1
  H+  H161  1  -0.02286689  0.86597767  0.17353089  1
  H+  H162  1  0.88547532  0.61045719  0.85979425  1
  H+  H163  1  0.72663182  0.36201695  0.83924458  1
  H+  H164  1  0.86283371  0.52196007  0.19537196  1
  H+  H165  1  0.87977599  0.83271222  0.67425058  1
  H+  H166  1  0.63839978  0.78065861  0.98706776  1
  H+  H167  1  0.64512189  0.12107177  0.32967375  1
  H+  H168  1  0.37352514  0.91161684  0.67680589  1
  H+  H169  1  0.73213144  0.86546415  0.50302409  1
  H+  H170  1  0.86670611  0.23082433  0.33332316  1
  H+  H171  1  0.38052345  0.09487630  0.32646275  1
  H+  H172  1  0.14567552  0.78486170  0.66635481  1
  H+  H173  1  0.36446933  0.22633989  0.48924002  1
  H+  H174  1  0.37180674  0.64274370  0.32248383  1
  H+  H175  1  0.29154599  0.38678035  0.15147362  1
  H+  H176  1  0.35658121  0.38903674  0.33361334  1
  H+  H177  1  0.77080660  0.13603689  0.83639400  1
  H+  H178  1  0.84044913  0.21966078  0.49216946  1
  H+  H179  1  0.88818326  0.02911544  0.16984192  1
  H+  H180  1  1.02136146  0.14635524  0.16319970  1
  H+  H181  1  0.76869572  0.61995885  0.84420964  1
  H+  H182  1  0.39407395  0.31866658  0.25546694  1
  H+  H183  1  0.61378211  0.39418727  0.49094415  1
  H+  H184  1  0.73117036  0.11603237  0.32537134  1
  H+  H185  1  0.87439526  0.61248340  0.29415347  1
  H+  H186  1  0.85543620  0.38971011  0.49739632  1
  H+  H187  1  0.65826364  0.09316327  0.61451489  1
  H+  H188  1  0.62108034  0.98448140  0.33689870  1
  H+  H189  1  0.30909979  0.26577174  0.29226493  1
  H+  H190  1  0.48370310  0.34190808  0.17837092  1
  H+  H191  1  0.97531282  0.35411313  0.84908165  1
  H+  H192  1  0.83569081  0.70799037  0.32773636  1
  H+  H193  1  0.89783188  0.61750321  0.46541217  1
  H+  H194  1  0.47838129  0.11644176  0.84851881  1
  H+  H195  1  0.42099319  0.84996519  0.92812172  1
  H+  H196  1  0.11143392  0.14746476  0.16503018  1
  H+  H197  1  0.15494772  1.03587100  0.69217515  1
  H+  H198  1  0.11131141  0.72787948  0.84186580  1
  H+  H199  1  0.85388308  0.22466528  0.68391477  1
  H+  H200  1  0.11860597  0.39518387  0.14987911  1
  H+  H201  1  0.37456378  0.61274413  0.84313130  1
  H+  H202  1  0.28229354  0.41004186  0.34326770  1
  H+  H203  1  0.14531566  0.03461583  0.83027997  1
  H+  H204  1  0.34546618  0.42371308  0.73382156  1
  H+  H205  1  0.62617968  0.17069013  0.16239737  1
  H+  H206  1  0.83943793  0.92091830  0.06309871  1
  H+  H207  1  0.86257149  0.13332834  0.00801177  1
  H+  H208  1  0.53091184  0.89456882  0.33821931  1
  H+  H209  1  0.73135274  0.11233601  0.99546290  1
  H+  H210  1  0.42498883  0.84417122  0.26560664  1
  H+  H211  1  0.05179197  0.91666080  0.34515231  1
  H+  H212  1  0.39187372  0.87849818  0.99016597  1
  H+  H213  1  0.28458523  0.14572692  0.82679840  1
  H+  H214  1  0.62348600  0.46921972  0.03481951  1
  H+  H215  1  0.24861092  0.11946550  0.32386405  1
  H+  H216  1  0.63367506  0.77320104  0.33626707  1
  H+  H217  1  0.36759120  0.09428219  0.17126218  1
  H+  H218  1  0.57730956  0.17116074  0.77425742  1
  H+  H219  1  0.15381598  0.81835334  0.26275793  1
  H+  H220  1  0.39010449  0.27673025  0.84160742  1
  H+  H221  1  0.62548110  0.38359264  1.02333398  1
  H+  H222  1  0.62067749  0.52481069  0.32005237  1
  H+  H223  1  0.88468726  0.26952873  0.00092062  1
  H+  H224  1  0.88043355  0.11671735  0.67761535  1
  H+  H225  1  0.14425603  0.36817233  0.49483650  1
  H+  H226  1  0.52446913  0.90242293  0.16659233  1
  H+  H227  1  0.86569258  0.71891988  0.48466766  1
  H+  H228  1  0.64179012  0.78906506  0.16159331  1
  H+  H229  1  0.59805033  0.39318127  0.11725775  1
  H+  H230  1  0.63064220  0.91938787  0.82954026  1
  H+  H231  1  0.10314861  0.37214180  0.32033020  1
  H+  H232  1  0.64453058  0.13086429  0.51825581  1
  H+  H233  1  0.65523438  0.88407172  0.65810647  1
  H+  H234  1  0.49380456  0.62674241  0.65326281  1
  H+  H235  1  0.14523677  0.74177058  1.01102680  1
  H+  H236  1  0.13236912  0.61463271  0.82292335  1
  H+  H237  1  0.36556330  0.10073088  0.99435924  1
  H+  H238  1  0.36612391  1.00009090  0.32283004  1
  H+  H239  1  0.61625757  0.39154770  0.33143003  1
  H+  H240  1  0.85512726  0.71181236  0.83748299  1
  H+  H241  1  0.52105780  0.88790921  0.00476040  1
  H+  H242  1  0.10404808  0.21340852  0.66555332  1
  H+  H243  1  0.60379985  0.47474159  0.67832288  1
  H+  H244  1  0.86482442  0.89528605  0.15514140  1
  H+  H245  1  0.71283879  0.60136927  0.66872759  1
  H+  H246  1  0.14387800  0.24784300  0.29386232  1
  H+  H247  1  0.96724936  0.11250432  0.32646127  1
  H+  H248  1  0.12334248  0.88903328  0.33872393  1
  H+  H249  1  0.52775203  0.64532488  0.48508480  1
  H+  H250  1  0.02145796  0.87852812  0.01185748  1
  H+  H251  1  0.14043439  0.77774103  0.51135360  1
  H+  H252  1  0.63053169  0.58481295  0.85999710  1
  H+  H253  1  0.63860779  0.60487357  0.00920310  1
  H+  H254  1  0.45232132  0.59343887  0.83851564  1
  H+  H255  1  0.61633487  0.64917302  0.33607710  1
  H+  H256  1  0.16934071  0.83771745  0.57213554  1
  H+  H257  1  0.13595036  0.27189054  0.84178894  1
  H+  H258  1  0.13761510  0.86686749  0.66529534  1
  H+  H259  1  0.27373964  0.87418585  0.00873041  1
  H+  H260  1  0.85369322  0.38467378  0.33555647  1
  H+  H261  1  1.02117226  0.38093495  1.00489132  1
  H+  H262  1  0.35828959  0.96157802  0.48052450  1
  H+  H263  1  0.98396810  0.61789125  1.02051252  1
  H+  H264  1  0.72539295  0.12405004  0.67257329  1
  H+  H265  1  0.59678304  0.93701940  0.43843827  1
  H+  H266  1  0.09570085  0.43958468  0.69037791  1
  H+  H267  1  0.25457184  0.62689742  0.46141470  1
  H+  H268  1  0.71387510  0.36177101  0.66723345  1
  H+  H269  1  0.96937988  0.85026577  0.84090019  1
  H+  H270  1  0.33031657  0.68533560  0.65691471  1
  H+  H271  1  0.60609047  0.38579171  0.67831892  1
  H+  H272  1  0.78070439  0.88892745  0.00315207  1
  H+  H273  1  0.27569565  0.89332282  0.83251342  1
  H+  H274  1  -0.05125926  0.59289135  0.41835170  1
  H+  H275  1  0.75820203  0.91705162  0.84080383  1
  H+  H276  1  0.23056017  0.62043523  0.30899748  1
  H+  H277  1  0.64482042  0.26584771  0.49787999  1
  H+  H278  1  0.11555302  0.23371181  1.00883007  1
  H+  H279  1  0.35037241  0.47099068  0.82896591  1
  H+  H280  1  0.40495224  0.36067002  0.16511663  1
  H+  H281  1  0.17267904  0.82343182  0.91321544  1
  H+  H282  1  0.86811009  0.38928249  1.01710500  1
  H+  H283  1  0.02526471  0.75312565  0.71445075  1
  H+  H284  1  0.87337575  0.00065921  0.67157820  1
  H+  H285  1  0.21202649  0.60535371  1.00666334  1
  H+  H286  1  0.84938834  0.13715935  0.48367024  1
  H+  H287  1  0.37492881  0.22100007  0.34580071  1
  H+  H288  1  0.33699911  0.42167063  0.43620439  1
  H+  H289  1  0.34525463  0.67816092  0.76974742  1
  H+  H290  1  0.40330297  0.07308604  0.93283545  1
  H+  H291  1  0.08912466  0.91875563  0.09873493  1
  H+  H292  1  0.81410607  0.64477028  0.74557763  1
  H+  H293  1  0.31678791  0.76213334  0.54764701  1
  H+  H294  1  0.83141072  0.16277978  0.06797286  1
  H+  H295  1  0.42239897  0.85195133  0.60273728  1
  H+  H296  1  0.09985697  0.42156530  0.37816692  1
  H+  H297  1  0.62332502  0.19702616  0.39971773  1
  H+  H298  1  0.87776105  0.11134614  0.32590434  1
  H+  H299  1  0.39168983  0.05968086  0.23186129  1
  H+  H300  1  0.67984818  0.57721124  0.56469526  1
  H+  H301  1  0.92904724  0.59130215  0.95790895  1
  H+  H302  1  0.16927701  0.08857775  0.89220448  1
  H+  H303  1  0.21903540  0.75760274  0.96359741  1
  H+  H304  1  0.82286741  0.65458699  0.38846288  1
  H+  H305  1  0.34471798  0.18248919  0.73412343  1
  H+  H306  1  0.65460630  0.59381554  0.22452005  1
  H+  H307  1  0.64572739  0.87936309  0.16824680  1
  H+  H308  1  0.61799378  0.28474896  0.16326604  1
  H+  H309  1  0.66838574  0.35135873  0.57277550  1
  H+  H310  1  0.32031503  0.15799656  0.06541136  1
  H+  H311  1  0.34652689  0.67237855  0.38245086  1
  H+  H312  1  0.08780834  0.91656170  0.44099345  1
  H+  H313  1  0.91236367  0.08294050  0.23193802  1
  H+  H314  1  0.91785701  0.47073868  0.79393125  1
  H+  H315  1  0.88699346  0.01806913  0.48514561  1
  H+  H316  1  0.13742799  0.11050375  0.67216419  1
  H+  H317  1  0.35955850  0.13477784  0.49913445  1
  H+  H318  1  0.70176952  0.88788348  0.90113596  1
  H+  H319  1  0.35181186  0.41519415  0.09427162  1
  H+  H320  1  0.42175714  0.58391079  0.22715631  1
  H+  H321  1  0.55286691  0.58181811  0.77609983  1
  H+  H322  1  0.21994029  0.11607289  0.49986792  1
  H+  H323  1  0.26895619  0.60194548  0.69189874  1
  H+  H324  1  0.04919210  0.69352462  0.75355420  1
  H+  H325  1  0.61010295  0.14563612  0.68367089  1
  H+  H326  1  0.66501073  0.08670009  0.90107784  1
  H+  H327  1  0.71193758  0.60729480  0.32094045  1
  H+  H328  1  0.91173001  0.81522219  0.56826288  1
  H+  H329  1  0.31413000  0.89009093  0.39524759  1
  H+  H330  1  0.66076899  0.34811036  0.26066881  1
  H+  H331  1  0.91240909  0.32908535  0.94194866  1
  H+  H332  1  0.11633251  0.14085694  0.48410302  1
  H+  H333  1  0.61874335  0.14457439  1.01026688  1
  H+  H334  1  0.17366805  0.09543838  0.23569115  1
  H+  H335  1  0.56820159  0.68100674  0.06575746  1
  H+  H336  1  0.10723939  0.46464880  0.82536560  1
  H+  H337  1  0.60239491  0.70300021  0.71900619  1
  H+  H338  1  0.85540783  0.92168057  0.75901385  1
  H+  H339  1  0.17816640  0.58294600  0.57492100  1
  H+  H340  1  0.14450580  0.53125812  0.30490016  1
  H+  H341  1  0.05563800  0.37345091  0.74166226  1
  H+  H342  1  0.33027223  0.91776137  0.07021913  1
  H+  H343  1  0.16712074  0.59557776  0.21109529  1
  H+  H344  1  0.34087357  0.16101231  0.40518684  1
  H+  H345  1  0.14802646  0.31646428  0.59404708  1
  H+  H346  1  0.63483941  0.87366186  0.33752426  1
  H+  H347  1  0.02152192  0.63938909  0.84668040  1
  H+  H348  1  0.58026053  0.41341259  0.77391915  1
  H+  H349  1  0.06913355  0.91906221  0.75137028  1
  H+  H350  1  0.58187844  0.93163407  0.10746785  1
  H+  H351  1  0.42580096  0.58618587  0.56126312  1
  H+  H352  1  0.08363761  0.17373739  0.06888859  1
  H+  H353  1  0.40669158  0.32225300  0.92959462  1
  H+  H354  1  0.08061876  0.41788358  0.09261512  1
  H+  H355  1  0.67918182  0.34313377  0.94012510  1
  H+  H356  1  0.59221412  0.92972864  0.76588071  1
  H+  H357  1  0.97666857  0.11560936  0.99497680  1
  H+  H358  1  0.88963883  0.32156876  0.57790239  1
  H+  H359  1  0.89940511  0.82548180  0.25384847  1
  H+  H360  1  0.06796789  0.02903290  0.95396537  1
  H+  H361  1  0.92029908  0.08279360  0.89907062  1
  H+  H362  1  0.86040636  0.13958038  0.16146567  1
  H+  H363  1  0.13194541  0.54781418  0.57357480  1
  H+  H364  1  0.83211497  0.17315980  0.39437888  1
  H+  H365  1  0.37278910  0.14456607  0.83003566  1
  H+  H366  1  0.81861787  0.40648201  0.39498592  1
  H+  H367  1  0.59388796  0.18792508  0.09883973  1
  H+  H368  1  0.38433474  0.35539156  0.49480191  1
  H+  H369  1  0.38516765  0.27719856  0.66698412  1
  H+  H370  1  0.81841729  0.40356579  0.73759448  1
  H+  H371  1  0.83642671  0.67531557  0.10461363  1
  H+  H372  1  0.22551461  0.36018925  0.84032936  1
  H+  H373  1  0.85070512  0.43784290  0.11397667  1
  H+  H374  1  0.16956307  0.33355234  0.93603984  1
  H+  H375  1  0.58691012  0.42100365  0.42831066  1
  H+  H376  1  0.36102219  0.22089861  0.15267842  1
  H+  H377  1  0.97164836  0.11646634  0.67150716  1
  H+  H378  1  0.82771134  0.16783846  0.74545878  1
  H+  H379  1  0.86065264  0.13445182  0.83467531  1
  H+  H380  1  0.91445826  0.33459821  0.26287741  1
  H+  H381  1  0.08219177  0.17760629  0.39910893  1
  H+  H382  1  0.97991840  0.36432827  0.16973252  1
  H+  H383  1  0.42410888  0.55547351  0.92850160  1
  O2-  O384  1  0.08217620  0.17767739  0.14752351  1
  O2-  O385  1  0.08785718  0.17487444  0.46836786  1
  O2-  O386  1  0.08612665  0.17295204  0.81168355  1
  O2-  O387  1  0.08408374  0.42191589  0.13843465  1
  O2-  O388  1  0.10890768  0.43172317  0.45386673  1
  O2-  O389  1  0.07493192  0.40156962  0.81992206  1
  O2-  O390  1  0.08971019  0.67003582  0.10964196  1
  O2-  O391  1  0.10733148  0.68277357  0.47872285  1
  O2-  O392  1  0.07737638  0.66950278  0.82391919  1
  O2-  O393  1  0.09894411  0.92677912  0.14500496  1
  O2-  O394  1  0.07918016  0.91470826  0.48564370  1
  O2-  O395  1  0.06504833  0.93911600  0.79599066  1
  O2-  O396  1  0.32295279  0.16195238  0.13566155  1
  O2-  O397  1  0.33040944  0.16111390  0.47876695  1
  O2-  O398  1  0.34608701  0.17773064  0.81392081  1
  O2-  O399  1  0.35307650  0.41608505  0.13960563  1
  O2-  O400  1  0.33655324  0.41959620  0.48113882  1
  O2-  O401  1  0.32769355  0.41197962  0.81165853  1
  O2-  O402  1  0.34285808  0.67510320  0.14376873  1
  O2-  O403  1  0.36441526  0.67719634  0.46067084  1
  O2-  O404  1  0.33727477  0.67723132  0.81424862  1
  O2-  O405  1  0.32434423  0.90723420  0.14026855  1
  O2-  O406  1  0.31895745  0.89903030  0.47490686  1
  O2-  O407  1  0.33527518  0.92521579  0.81667649  1
  O2-  O408  1  0.59635911  0.19876029  0.14395922  1
  O2-  O409  1  0.62310039  0.20750276  0.47856552  1
  O2-  O410  1  0.57829292  0.17106337  0.82024548  1
  O2-  O411  1  0.58689045  0.38132078  0.16319057  1
  O2-  O412  1  0.58126869  0.42067424  0.47334759  1
  O2-  O413  1  0.57975846  0.40992505  0.81947245  1
  O2-  O414  1  0.58279185  0.68110228  0.13786837  1
  O2-  O415  1  0.58491716  0.68024315  0.46600010  1
  O2-  O416  1  0.55502196  0.60426041  0.81688360  1
  O2-  O417  1  0.58529540  0.93691586  0.15222605  1
  O2-  O418  1  0.59922915  0.93950302  0.48318270  1
  O2-  O419  1  0.58555018  0.93018478  0.81107264  1
  O2-  O420  1  0.83269333  0.17085091  0.14395098  1
  O2-  O421  1  0.81865058  0.16606791  0.46869430  1
  O2-  O422  1  0.83215939  0.16754849  0.82219651  1
  O2-  O423  1  0.86823431  0.45142875  0.15696188  1
  O2-  O424  1  0.82680084  0.41908905  0.47890560  1
  O2-  O425  1  0.86634401  0.43161034  0.81669266  1
  O2-  O426  1  0.83166149  0.68177568  0.14950135  1
  O2-  O427  1  0.83722709  0.66106741  0.46585711  1
  O2-  O428  1  0.82724675  0.65001501  0.82546082  1
  O2-  O429  1  0.83838709  0.92816797  0.13870323  1
  O2-  O430  1  0.83783414  0.90891627  0.47854683  1
  O2-  O431  1  0.85610702  0.92552529  0.80385387  1
  O2-  O432  1  0.16432553  0.09721995  0.18984765  1
  O2-  O433  1  0.15866707  0.09231474  0.51058674  1
  O2-  O434  1  0.17877525  0.09376577  0.84759889  1
  O2-  O435  1  0.18049043  0.34394161  0.17061893  1
  O2-  O436  1  0.16930313  0.33587562  0.51421360  1
  O2-  O437  1  0.16670594  0.33179385  0.85879568  1
  O2-  O438  1  0.16986162  0.59238551  0.16585792  1
  O2-  O439  1  0.19134022  0.59383634  0.45541632  1
  O2-  O440  1  0.16236561  0.58102227  0.81596865  1
  O2-  O441  1  0.15366185  0.80984121  0.18038103  1
  O2-  O442  1  0.16697280  0.83866371  0.52668943  1
  O2-  O443  1  0.17007998  0.83479409  0.86857045  1
  O2-  O444  1  0.38770039  0.05588950  0.18599978  1
  O2-  O445  1  0.45257673  0.06325734  0.47794222  1
  O2-  O446  1  0.41654442  0.08576245  0.86265803  1
  O2-  O447  1  0.42061000  0.32037276  0.18498238  1
  O2-  O448  1  0.41259380  0.32072137  0.50123771  1
  O2-  O449  1  0.41701242  0.33575388  0.86037182  1
  O2-  O450  1  0.41790968  0.58463443  0.18179508  1
  O2-  O451  1  0.42321816  0.58522034  0.51610767  1
  O2-  O452  1  0.39447146  0.57207929  0.85565131  1
  O2-  O453  1  0.41827289  0.83977950  0.18807826  1
  O2-  O454  1  0.37299771  0.80912022  0.53562439  1
  O2-  O455  1  0.42174192  0.84254788  0.85067477  1
  O2-  O456  1  0.67411752  0.10525842  0.18923952  1
  O2-  O457  1  0.62606459  0.07932873  0.54373462  1
  O2-  O458  1  0.66611184  0.09266460  0.85579363  1
  O2-  O459  1  0.64185652  0.34732867  0.18219394  1
  O2-  O460  1  0.67258568  0.35660949  0.52760542  1
  O2-  O461  1  0.66883850  0.33474963  0.85636108  1
  O2-  O462  1  0.65718329  0.60030776  0.17969497  1
  O2-  O463  1  0.69035121  0.57994326  0.52063798  1
  O2-  O464  1  0.66669380  0.56177915  0.87513749  1
  O2-  O465  1  0.67863636  0.84958055  0.17502569  1
  O2-  O466  1  0.67149754  0.84084280  0.51672659  1
  O2-  O467  1  0.71501326  0.92361164  0.86406241  1
  O2-  O468  1  0.91768116  0.08902777  0.18686023  1
  O2-  O469  1  0.91308996  0.08096181  0.47626157  1
  O2-  O470  1  0.92312504  0.08729287  0.85358289  1
  O2-  O471  1  0.92094637  0.33587321  0.18719339  1
  O2-  O472  1  0.89187342  0.32368869  0.53183396  1
  O2-  O473  1  0.91416738  0.32910594  0.86294808  1
  O2-  O474  1  0.84943016  0.56650360  0.21386158  1
  O2-  O475  1  0.93371798  0.58858279  0.46149102  1
  O2-  O476  1  0.92121177  0.58710630  0.87756348  1
  O2-  O477  1  0.91602862  0.83916888  0.18370193  1
  O2-  O478  1  0.91404216  0.82250409  0.52357704  1
  O2-  O479  1  0.91017496  0.81997872  0.85699764  1
  O2-  O480  1  0.18968526  0.09340977  0.30615222  1
  O2-  O481  1  0.17645224  0.08600367  0.66594536  1
  O2-  O482  1  0.12560834  0.06976306  0.96858873  1
  O2-  O483  1  0.11611899  0.25918422  0.32802298  1
  O2-  O484  1  0.14227133  0.30594143  0.63850077  1
  O2-  O485  1  0.17239048  0.33558146  0.98167516  1
  O2-  O486  1  0.17080565  0.59227873  0.29298483  1
  O2-  O487  1  0.16626317  0.54765290  0.70214947  1
  O2-  O488  1  0.15402988  0.58013847  0.99059611  1
  O2-  O489  1  0.15533830  0.82557881  0.30758634  1
  O2-  O490  1  0.17655580  0.84392782  0.65037822  1
  O2-  O491  1  0.19159546  0.78861540  0.97972850  1
  O2-  O492  1  0.39939474  0.05852920  0.30556726  1
  O2-  O493  1  0.42610190  0.10036487  0.64742946  1
  O2-  O494  1  0.39328322  0.06719572  0.97921391  1
  O2-  O495  1  0.36864063  0.31094733  0.29796021  1
  O2-  O496  1  0.41917351  0.34068325  0.65317484  1
  O2-  O497  1  0.39795992  0.31559349  0.97619378  1
  O2-  O498  1  0.42896099  0.59279081  0.30436422  1
  O2-  O499  1  0.43293759  0.58667534  0.64177852  1
  O2-  O500  1  0.44732782  0.53687212  0.96237950  1
  O2-  O501  1  0.42617663  0.84154038  0.31113466  1
  O2-  O502  1  0.43998639  0.87015274  0.64618195  1
  O2-  O503  1  0.42349021  0.85078590  0.97354730  1
  O2-  O504  1  0.66978243  0.08551034  0.31220651  1
  O2-  O505  1  0.66342794  0.09403882  0.66037361  1
  O2-  O506  1  0.67103223  0.08352595  0.97869937  1
  O2-  O507  1  0.66301786  0.34444288  0.30579924  1
  O2-  O508  1  0.65407678  0.33576242  0.65095531  1
  O2-  O509  1  0.67780110  0.34051105  0.98494741  1
  O2-  O510  1  0.65147095  0.58623925  0.30735578  1
  O2-  O511  1  0.65467545  0.57375675  0.64892853  1
  O2-  O512  1  0.67139645  0.57717210  0.99800111  1
  O2-  O513  1  0.66586511  0.83955561  0.32508014  1
  O2-  O514  1  0.68210348  0.85101346  0.64095253  1
  O2-  O515  1  0.67688768  0.84197567  0.97543084  1
  O2-  O516  1  0.90579476  0.07672775  0.31363527  1
  O2-  O517  1  0.90911238  0.08578755  0.66053038  1
  O2-  O518  1  0.91785712  0.08372526  0.97737039  1
  O2-  O519  1  0.91361273  0.33412351  0.30862699  1
  O2-  O520  1  0.89687783  0.32256315  0.65172055  1
  O2-  O521  1  0.91601304  0.33083073  0.98722777  1
  O2-  O522  1  0.91155609  0.60670702  0.26311686  1
  O2-  O523  1  0.89251853  0.56163798  0.65827523  1
  O2-  O524  1  0.92358700  0.58839518  1.00287250  1
  O2-  O525  1  0.89098406  0.81753051  0.30001390  1
  O2-  O526  1  0.90608787  0.80264164  0.65465813  1
  O2-  O527  1  0.92049353  0.83160494  0.97928194  1
  O2-  O528  1  0.08366577  0.17245649  0.02332833  1
  O2-  O529  1  0.06870519  0.17120290  0.35280534  1
  O2-  O530  1  0.07618115  0.15486950  0.68664976  1
  O2-  O531  1  0.08318005  0.41232459  0.01768658  1
  O2-  O532  1  0.09086142  0.41688753  0.33285632  1
  O2-  O533  1  0.05419474  0.37752311  0.69650061  1
  O2-  O534  1  0.08507954  0.66496015  0.04228778  1
  O2-  O535  1  0.08514038  0.66561861  0.36098935  1
  O2-  O536  1  0.03356936  0.70354346  0.71205128  1
  O2-  O537  1  0.08134279  0.90896037  0.02848335  1
  O2-  O538  1  0.10745404  0.92895423  0.36049744  1
  O2-  O539  1  0.06581370  0.88834937  0.68767614  1
  O2-  O540  1  0.31973108  0.15480293  0.01826071  1
  O2-  O541  1  0.34492650  0.16100989  0.35932033  1
  O2-  O542  1  0.34114759  0.18494365  0.68903571  1
  O2-  O543  1  0.33737821  0.40199912  0.01564806  1
  O2-  O544  1  0.34189891  0.42996984  0.35399322  1
  O2-  O545  1  0.35480790  0.42519444  0.68904340  1
  O2-  O546  1  0.42412076  0.71854314  0.03558476  1
  O2-  O547  1  0.34054868  0.67219481  0.33744529  1
  O2-  O548  1  0.33187049  0.64761469  0.68806021  1
  O2-  O549  1  0.33179335  0.92100070  0.02325079  1
  O2-  O550  1  0.31518852  0.89195287  0.35006841  1
  O2-  O551  1  0.33813278  0.93411721  0.69475861  1
  O2-  O552  1  0.58893431  0.17470637  0.02435375  1
  O2-  O553  1  0.60884504  0.18057111  0.35643412  1
  O2-  O554  1  0.57950909  0.17626642  0.69790640  1
  O2-  O555  1  0.59594014  0.40852870  0.04719221  1
  O2-  O556  1  0.58348799  0.42036545  0.34839716  1
  O2-  O557  1  0.57479622  0.41487217  0.69566825  1
  O2-  O558  1  0.55370528  0.68479466  0.02141052  1
  O2-  O559  1  0.58870992  0.68296878  0.35071444  1
  O2-  O560  1  0.59961998  0.69221966  0.67545542  1
  O2-  O561  1  0.56752003  0.88780928  0.03028059  1
  O2-  O562  1  0.59180632  0.92352460  0.35299277  1
  O2-  O563  1  0.60534620  0.93340287  0.68776666  1
  O2-  O564  1  0.83120461  0.16281637  0.02211570  1
  O2-  O565  1  0.83708223  0.17013733  0.34878153  1
  O2-  O566  1  0.82556396  0.16458142  0.69993927  1
  O2-  O567  1  0.83676271  0.41836982  0.03176081  1
  O2-  O568  1  0.82071239  0.41171834  0.35024292  1
  O2-  O569  1  0.81662784  0.40379334  0.69282299  1
  O2-  O570  1  0.84140892  0.67360950  0.02851509  1
  O2-  O571  1  0.81575779  0.64938700  0.34312549  1
  O2-  O572  1  0.80889925  0.64268265  0.70039471  1
  O2-  O573  1  0.84176647  0.91887419  0.01725761  1
  O2-  O574  1  0.82868542  0.91293978  0.35358540  1
  O2-  O575  1  0.84938964  0.93066657  0.67464169  1
