# generated using pymatgen
data_H2O
_symmetry_space_group_name_H-M   'P 1'
_cell_length_a   17.98965853
_cell_length_b   17.98983085
_cell_length_c   22.00305749
_cell_angle_alpha   89.99600533
_cell_angle_beta   89.99944761
_cell_angle_gamma   120.00911335
_symmetry_Int_Tables_number   1
_chemical_formula_structural   H2O
_chemical_formula_sum   'H384 O192'
_cell_volume   6166.28756105
_cell_formula_units_Z   192
loop_
 _symmetry_equiv_pos_site_id
 _symmetry_equiv_pos_as_xyz
  1  'x, y, z'
loop_
 _atom_type_symbol
 _atom_type_oxidation_number
  H+  1.0
  O2-  -2.0
loop_
 _atom_site_type_symbol
 _atom_site_label
 _atom_site_symmetry_multiplicity
 _atom_site_fract_x
 _atom_site_fract_y
 _atom_site_fract_z
 _atom_site_occupancy
  H+  H0  1  0.35625367  0.12678660  0.67346058  1
  H+  H1  1  0.61136001  0.72567886  0.34065967  1
  H+  H2  1  0.37950462  0.64195489  0.49659673  1
  H+  H3  1  0.86910710  0.98217727  0.17163863  1
  H+  H4  1  0.10805175  0.97461760  0.00712241  1
  H+  H5  1  0.39088822  0.47177112  0.56591010  1
  H+  H6  1  0.63888510  0.35891403  0.32960779  1
  H+  H7  1  0.53278461  0.12252301  0.83438629  1
  H+  H8  1  0.86101473  0.97532653  0.01457437  1
  H+  H9  1  0.60640128  0.20769130  0.48840780  1
  H+  H10  1  0.09675368  0.70657111  0.67629091  1
  H+  H11  1  0.96184593  0.59611386  0.69849503  1
  H+  H12  1  0.86417034  0.47587787  0.67637763  1
  H+  H13  1  0.56834904  0.27007509  0.54518452  1
  H+  H14  1  0.11692985  0.62866523  0.33761598  1
  H+  H15  1  0.40190255  0.02403929  0.84263571  1
  H+  H16  1  0.64958776  0.37632638  1.00757808  1
  H+  H17  1  0.85133446  0.88885390  0.82428780  1
  H+  H18  1  1.02707175  0.63537328  0.48135274  1
  H+  H19  1  0.25812812  0.35942527  0.67863151  1
  H+  H20  1  0.39262017  0.02184699  0.19697382  1
  H+  H21  1  0.13635794  0.86124394  0.99956253  1
  H+  H22  1  0.21416165  0.61448429  0.66289474  1
  H+  H23  1  0.61005243  0.47269347  0.34015906  1
  H+  H24  1  0.36816872  0.90311943  0.35825798  1
  H+  H25  1  0.86447209  0.47656947  0.17379931  1
  H+  H26  1  0.02133920  0.88887362  0.33919314  1
  H+  H27  1  0.98299892  1.11691552  0.49551853  1
  H+  H28  1  0.22242723  0.36633322  0.84668480  1
  H+  H29  1  0.88510110  0.51926318  0.47492169  1
  H+  H30  1  0.60939079  0.12006187  0.49146336  1
  H+  H31  1  0.65913184  -0.00165169  0.98299386  1
  H+  H32  1  0.21750664  0.10426826  1.00202772  1
  H+  H33  1  0.60001012  0.63804930  0.82672419  1
  H+  H34  1  0.35364505  0.98508379  0.50435348  1
  H+  H35  1  0.63804694  0.86068499  0.31723147  1
  H+  H36  1  0.63098055  0.54246403  0.83898502  1
  H+  H37  1  0.85417160  0.87327264  0.67504056  1
  H+  H38  1  0.63869159  0.77470003  0.99633357  1
  H+  H39  1  0.85117116  0.44037912  0.60865361  1
  H+  H40  1  0.22322408  0.36257812  0.17047472  1
  H+  H41  1  0.82619105  0.40157321  0.42830139  1
  H+  H42  1  0.61245722  0.88132683  1.02210572  1
  H+  H43  1  0.11705159  0.48148343  0.15503705  1
  H+  H44  1  0.12367848  0.23299351  0.67400533  1
  H+  H45  1  0.13795817  0.51927439  0.32387846  1
  H+  H46  1  0.12394151  0.60609505  0.84274009  1
  H+  H47  1  0.88901784  0.51882169  0.33404033  1
  H+  H48  1  0.38319068  0.37499384  0.84221151  1
  H+  H49  1  0.37770924  0.44601919  0.01703108  1
  H+  H50  1  0.38739063  0.86790276  0.27465789  1
  H+  H51  1  0.41336256  0.58165177  0.23117764  1
  H+  H52  1  0.35731107  0.88546593  1.00574440  1
  H+  H53  1  0.51490490  0.22705390  0.07218866  1
  H+  H54  1  0.36754221  0.09785865  1.00036386  1
  H+  H55  1  0.46052151  0.11348649  1.00702365  1
  H+  H56  1  0.35443380  0.97164384  0.00967871  1
  H+  H57  1  0.12958549  0.52083964  0.66362907  1
  H+  H58  1  0.35587053  0.48087356  0.82634147  1
  H+  H59  1  0.37246601  0.72450373  0.14979927  1
  H+  H60  1  0.71769280  0.60741232  -0.00751220  1
  H+  H61  1  0.11156080  0.96528099  0.66756767  1
  H+  H62  1  0.59683216  0.70581808  0.66819862  1
  H+  H63  1  0.98885960  0.09924722  0.84865183  1
  H+  H64  1  0.40010477  0.02790372  0.66979761  1
  H+  H65  1  0.89330063  0.87403332  0.18093340  1
  H+  H66  1  0.52690085  0.37992022  0.67006280  1
  H+  H67  1  0.51985217  0.65199018  0.49112250  1
  H+  H68  1  0.34307737  0.92511893  0.76115836  1
  H+  H69  1  0.39040803  0.78306862  0.99330360  1
  H+  H70  1  0.10459765  0.15707759  0.38101184  1
  H+  H71  1  0.37185762  0.87939667  0.18306424  1
  H+  H72  1  0.60050041  0.47330466  0.00488083  1
  H+  H73  1  0.38530832  0.51746374  0.17458794  1
  H+  H74  1  0.58736170  0.92062293  0.24781410  1
  H+  H75  1  0.60955562  0.96659295  0.67094972  1
  H+  H76  1  0.88781243  0.27186664  0.32850774  1
  H+  H77  1  0.36642709  0.65236462  -0.00353457  1
  H+  H78  1  0.56912970  0.41812393  0.06738515  1
  H+  H79  1  0.74940167  0.08143209  0.97403074  1
  H+  H80  1  0.11610977  0.90724391  0.32607766  1
  H+  H81  1  0.84765205  0.63043372  0.48642843  1
  H+  H82  1  0.61885826  0.38398500  0.67310371  1
  H+  H83  1  0.91290619  0.58384782  0.42048866  1
  H+  H84  1  0.82080394  0.66584357  0.77489058  1
  H+  H85  1  0.77653852  0.88844978  0.34278361  1
  H+  H86  1  0.13717531  0.61176704  0.00103073  1
  H+  H87  1  0.76593056  0.63566621  0.33982340  1
  H+  H88  1  0.77122778  0.37689873  0.48989905  1
  H+  H89  1  0.36850209  0.24447263  0.17767222  1
  H+  H90  1  0.41894092  0.08535601  0.27876399  1
  H+  H91  1  0.73406049  0.36240141  0.65965422  1
  H+  H92  1  0.65261529  0.87790000  0.17794014  1
  H+  H93  1  0.10386259  0.47113416  0.82729353  1
  H+  H94  1  0.38538354  0.34747545  0.52346721  1
  H+  H95  1  0.77065725  0.12528019  0.66501985  1
  H+  H96  1  0.60982446  0.63587578  0.00533446  1
  H+  H97  1  0.89082396  0.11045176  0.50060901  1
  H+  H98  1  0.88428542  0.26421562  0.17550969  1
  H+  H99  1  0.92393832  0.56145954  0.81763460  1
  H+  H100  1  0.35767341  0.35180876  0.01150823  1
  H+  H101  1  0.10709551  0.22636645  0.00600041  1
  H+  H102  1  0.61055521  0.88428401  0.49986182  1
  H+  H103  1  0.38381292  0.87845083  0.66086196  1
  H+  H104  1  0.62028648  0.10120719  1.01935608  1
  H+  H105  1  0.47105686  0.87727718  0.30781397  1
  H+  H106  1  0.70889218  0.06496658  0.16500659  1
  H+  H107  1  0.91725898  0.59501291  0.24153831  1
  H+  H108  1  0.12404112  0.72043150  0.33725607  1
  H+  H109  1  0.26467685  0.12231294  0.66553726  1
  H+  H110  1  0.09688175  0.66946924  0.43070174  1
  H+  H111  1  0.38685313  0.36160553  0.32360622  1
  H+  H112  1  0.24112169  0.86533372  0.33269334  1
  H+  H113  1  0.98069246  0.60923525  0.33496263  1
  H+  H114  1  0.71349827  0.60958115  0.18339883  1
  H+  H115  1  0.01958423  0.88479281  0.01061792  1
  H+  H116  1  0.21258609  0.83249574  0.67254397  1
  H+  H117  1  0.27306457  0.64222583  0.33401837  1
  H+  H118  1  0.85557272  0.63596133  0.34379282  1
  H+  H119  1  0.62810638  0.84877404  0.65922920  1
  H+  H120  1  0.90221601  0.63507465  -0.02193674  1
  H+  H121  1  0.52503660  0.64409907  1.00177963  1
  H+  H122  1  0.02607447  0.64454806  0.16607448  1
  H+  H123  1  0.19039941  0.22286910  0.70916235  1
  H+  H124  1  0.61541706  0.73170544  0.49393808  1
  H+  H125  1  0.72566652  0.87240449  0.84190526  1
  H+  H126  1  0.12253879  0.73034373  0.01203073  1
  H+  H127  1  0.10345468  0.61853642  0.67495171  1
  H+  H128  1  0.72694592  0.86442847  1.00142913  1
  H+  H129  1  0.85924458  0.71983542  0.67719877  1
  H+  H130  1  0.25174987  0.87800142  0.50713317  1
  H+  H131  1  0.48308858  0.11408890  0.33513745  1
  H+  H132  1  0.63892957  0.78156754  0.17070196  1
  H+  H133  1  0.26765169  0.63885109  0.82924287  1
  H+  H134  1  0.34719267  0.73347286  0.67241216  1
  H+  H135  1  0.68110660  0.33384724  0.84586980  1
  H+  H136  1  0.22827695  0.86356118  0.99972574  1
  H+  H137  1  0.28818925  0.89808667  0.82421448  1
  H+  H138  1  0.87785836  0.09208055  0.65324753  1
  H+  H139  1  0.78806192  0.38719336  0.00453580  1
  H+  H140  1  0.52130494  0.64054893  0.16006538  1
  H+  H141  1  0.62237043  0.60890338  0.50432166  1
  H+  H142  1  0.38343570  0.86809145  0.51303643  1
  H+  H143  1  0.23349853  0.80985063  0.27748447  1
  H+  H144  1  0.47903880  0.34908304  -0.00037041  1
  H+  H145  1  0.63543195  0.10434998  0.66039357  1
  H+  H146  1  0.37995304  0.54824471  0.97757880  1
  H+  H147  1  0.12731865  0.60265246  0.49549313  1
  H+  H148  1  0.11001150  1.03897846  0.33097297  1
  H+  H149  1  0.13878009  0.61680455  0.17118489  1
  H+  H150  1  0.12898490  0.27761050  0.16734580  1
  H+  H151  1  0.63788464  0.28612656  0.01962516  1
  H+  H152  1  0.12344263  -0.01382151  0.82626148  1
  H+  H153  1  0.83681112  0.61764627  0.82791344  1
  H+  H154  1  0.13300980  0.39500036  1.00747781  1
  H+  H155  1  0.01774278  0.13717200  0.00743050  1
  H+  H156  1  0.97443315  0.35196685  0.16979073  1
  H+  H157  1  0.13291740  0.04037633  0.17436556  1
  H+  H158  1  0.58956123  0.14997608  0.77312436  1
  H+  H159  1  0.62871319  0.09034096  0.83240387  1
  H+  H160  1  0.97721661  0.11880006  0.18167029  1
  H+  H161  1  0.21913253  0.35653032  0.50385031  1
  H+  H162  1  0.72841683  0.86372838  0.50905239  1
  H+  H163  1  0.59523086  0.92700005  0.07891114  1
  H+  H164  1  0.46766269  0.86595961  0.66031125  1
  H+  H165  1  0.76884917  0.63204957  0.67440400  1
  H+  H166  1  0.11399875  0.38799213  0.33482054  1
  H+  H167  1  0.62220657  0.22235941  0.67932751  1
  H+  H168  1  0.61060695  0.97495462  0.30695372  1
  H+  H169  1  0.88209609  0.86137266  0.00354832  1
  H+  H170  1  0.03417360  0.64387571  0.00684261  1
  H+  H171  1  0.65665230  0.32752732  0.91429623  1
  H+  H172  1  0.46947671  0.10167275  0.50281452  1
  H+  H173  1  0.13190048  0.50668501  0.48919965  1
  H+  H174  1  0.61271432  0.96844879  0.82380488  1
  H+  H175  1  -0.02706427  0.85320834  0.66401311  1
  H+  H176  1  0.86122763  0.21327544  0.66558124  1
  H+  H177  1  0.88574948  0.61960149  0.18150118  1
  H+  H178  1  0.76930668  0.11482887  0.81503123  1
  H+  H179  1  0.58792441  0.46958185  0.16193656  1
  H+  H180  1  0.38586594  0.26151089  0.66528259  1
  H+  H181  1  0.22425241  0.61315775  0.49212434  1
  H+  H182  1  0.04812763  0.68859116  0.82057185  1
  H+  H183  1  0.86437339  0.74396785  0.16844371  1
  H+  H184  1  0.38350460  0.25731982  0.50964717  1
  H+  H185  1  0.12965971  0.49039926  0.00810056  1
  H+  H186  1  0.60706015  0.62299366  0.66980712  1
  H+  H187  1  0.22780082  0.61590118  0.16788004  1
  H+  H188  1  0.86836414  0.45789661  0.97007265  1
  H+  H189  1  0.63034481  0.61088542  0.33415847  1
  H+  H190  1  0.38736864  0.62017504  0.32566557  1
  H+  H191  1  0.27996768  0.07804180  0.16145679  1
  H+  H192  1  0.88283834  0.85920355  0.51503131  1
  H+  H193  1  0.86224091  0.21934458  0.49230114  1
  H+  H194  1  0.36993304  0.14001216  0.35052753  1
  H+  H195  1  0.73218162  0.35348211  0.18569605  1
  H+  H196  1  0.11713003  0.14314392  0.83227337  1
  H+  H197  1  0.64974256  0.14748986  0.01087014  1
  H+  H198  1  0.86737235  0.97701426  0.49601841  1
  H+  H199  1  0.82838763  0.15355110  0.10915586  1
  H+  H200  1  0.34772866  0.73829469  0.49312747  1
  H+  H201  1  0.13561911  0.12322448  0.49366346  1
  H+  H202  1  0.86540305  0.88836782  0.34386416  1
  H+  H203  1  0.65860686  0.58504929  0.93314172  1
  H+  H204  1  0.63715772  0.51827485  0.65536100  1
  H+  H205  1  0.32117106  0.16958872  0.76543985  1
  H+  H206  1  0.47532421  0.61777346  0.32757203  1
  H+  H207  1  0.77615744  0.13673432  0.33517975  1
  H+  H208  1  0.80542109  0.42868419  0.81241678  1
  H+  H209  1  0.50194296  0.37786943  0.15836496  1
  H+  H210  1  0.38120305  0.61638578  0.83406626  1
  H+  H211  1  0.86639197  0.23122999  1.01487941  1
  H+  H212  1  0.10458283  0.38360811  0.82996778  1
  H+  H213  1  0.09961617  0.42621506  0.07498587  1
  H+  H214  1  0.61398979  0.35385708  0.50726745  1
  H+  H215  1  0.47511510  0.36004129  0.32570256  1
  H+  H216  1  -0.02058745  0.36031317  0.50063951  1
  H+  H217  1  0.28291400  0.88035417  0.18865636  1
  H+  H218  1  0.39365458  0.86668041  0.83591228  1
  H+  H219  1  0.10970885  0.89705349  0.49155978  1
  H+  H220  1  0.13101567  0.10262449  0.65505441  1
  H+  H221  1  0.13474965  0.85264788  0.66599618  1
  H+  H222  1  0.78071791  0.89151961  0.16837757  1
  H+  H223  1  0.66910792  0.08244208  0.25900999  1
  H+  H224  1  0.33614044  0.16555629  0.43724435  1
  H+  H225  1  0.86338346  0.72862916  0.00212177  1
  H+  H226  1  0.61865017  0.22508864  0.34014982  1
  H+  H227  1  0.86727588  0.39001882  0.17001622  1
  H+  H228  1  0.35807700  0.73539416  0.33336676  1
  H+  H229  1  0.47186025  0.57270235  0.64463780  1
  H+  H230  1  0.92065158  0.84962312  0.94152727  1
  H+  H231  1  0.11581592  0.90190186  0.15998989  1
  H+  H232  1  0.88968333  0.35610855  0.65331536  1
  H+  H233  1  0.97593329  0.11832801  0.35067567  1
  H+  H234  1  0.13571859  0.78151450  0.16894627  1
  H+  H235  1  0.89553551  0.35590042  0.99280966  1
  H+  H236  1  0.22554212  0.12230256  0.83964048  1
  H+  H237  1  0.22808376  0.35904110  0.99576142  1
  H+  H238  1  0.38346537  0.11088138  0.50698169  1
  H+  H239  1  0.13075494  0.36393219  0.65635139  1
  H+  H240  1  0.52421242  0.12159760  0.17691765  1
  H+  H241  1  0.94836586  0.34762182  0.82318461  1
  H+  H242  1  0.52240384  0.88488568  0.50225856  1
  H+  H243  1  0.86532635  0.13708388  0.34223629  1
  H+  H244  1  0.13141722  0.10981795  -0.00358199  1
  H+  H245  1  0.35684316  0.23318278  0.82230600  1
  H+  H246  1  0.34997532  0.20354394  0.02439926  1
  H+  H247  1  -0.00622668  0.90168771  0.84987404  1
  H+  H248  1  0.77176669  0.38197709  0.33906635  1
  H+  H249  1  0.27214062  0.13735814  0.49544783  1
  H+  H250  1  0.97820239  0.67691742  0.93209820  1
  H+  H251  1  0.86775598  0.25394511  0.82317785  1
  H+  H252  1  0.12005735  0.39160870  0.15490092  1
  H+  H253  1  0.14619636  0.03855089  0.49434141  1
  H+  H254  1  0.29756908  0.93651520  0.67124253  1
  H+  H255  1  0.52370262  0.41158639  0.80895963  1
  H+  H256  1  0.72283103  0.10577195  0.50480623  1
  H+  H257  1  0.36359820  0.48314813  0.33371773  1
  H+  H258  1  0.16497369  0.78730635  0.84979754  1
  H+  H259  1  0.88570743  0.77363430  0.33125829  1
  H+  H260  1  0.11954224  0.89548292  0.82996478  1
  H+  H261  1  0.98201003  0.35376325  1.00394302  1
  H+  H262  1  0.37883899  0.55411847  0.50441372  1
  H+  H263  1  0.76861392  0.17099662  0.03290550  1
  H+  H264  1  0.88070290  0.10877136  0.99222554  1
  H+  H265  1  0.12791063  0.26751051  0.49123256  1
  H+  H266  1  0.51576109  0.37912501  0.49389872  1
  H+  H267  1  0.14589433  0.76573372  0.51045019  1
  H+  H268  1  0.22016166  0.12891261  0.17737094  1
  H+  H269  1  0.47943893  0.87062557  0.99851171  1
  H+  H270  1  0.34355259  0.35253584  0.68437354  1
  H+  H271  1  0.71607278  0.84649667  0.66127199  1
  H+  H272  1  0.88921728  0.35705001  0.50244268  1
  H+  H273  1  0.11783602  0.38764825  0.48617609  1
  H+  H274  1  0.53044265  0.13726982  0.67667859  1
  H+  H275  1  0.87286821  0.59710125  0.70060936  1
  H+  H276  1  0.36730768  0.99169170  0.35416401  1
  H+  H277  1  0.02360316  0.38737630  0.33835906  1
  H+  H278  1  0.85757750  0.12489418  0.17015528  1
  H+  H279  1  0.63310285  0.01478472  0.50637618  1
  H+  H280  1  0.50288283  0.88007886  0.16710865  1
  H+  H281  1  0.22040355  0.36738107  0.31840856  1
  H+  H282  1  0.71013781  0.60622780  0.50293732  1
  H+  H283  1  0.31833847  0.40355009  0.77495444  1
  H+  H284  1  0.62549767  0.87266915  0.84005719  1
  H+  H285  1  0.35200872  0.36698982  0.16906511  1
  H+  H286  1  0.60226672  0.47227097  0.49290667  1
  H+  H287  1  0.64128484  0.11500608  0.31856724  1
  H+  H288  1  0.15521782  0.33134977  0.59488220  1
  H+  H289  1  0.90827380  0.60129164  0.58470517  1
  H+  H290  1  0.91891022  0.83566590  0.27274904  1
  H+  H291  1  0.42018102  0.60234460  0.91784957  1
  H+  H292  1  0.66475870  0.32705786  0.60775319  1
  H+  H293  1  0.91233992  0.82509771  0.60492860  1
  H+  H294  1  0.67087242  0.32486550  0.27197424  1
  H+  H295  1  0.33046944  0.39893935  0.10829820  1
  H+  H296  1  0.83391292  0.91448725  0.43920507  1
  H+  H297  1  0.92185184  0.32434453  0.59805869  1
  H+  H298  1  0.31798613  0.13912792  0.08307856  1
  H+  H299  1  0.95665792  0.95868490  0.87700610  1
  H+  H300  1  0.08988844  0.17599737  0.77394945  1
  H+  H301  1  0.98219691  0.87339907  0.17778690  1
  H+  H302  1  0.62845493  0.61536448  0.17816658  1
  H+  H303  1  0.32156318  0.67283138  0.73007562  1
  H+  H304  1  0.67008857  0.84919831  0.90772201  1
  H+  H305  1  0.16071730  0.84008947  0.22723626  1
  H+  H306  1  0.86214056  0.38172021  0.33787142  1
  H+  H307  1  0.91724749  0.07233655  0.93970496  1
  H+  H308  1  0.42272697  0.46767302  0.49971629  1
  H+  H309  1  0.56507680  0.64930629  0.76231395  1
  H+  H310  1  0.60110044  0.10417601  0.15956093  1
  H+  H311  1  0.16698695  0.57910883  0.26370370  1
  H+  H312  1  0.40663298  0.83365804  0.57286641  1
  H+  H313  1  0.08352083  0.66994042  0.10520585  1
  H+  H314  1  0.17566984  0.84183384  0.90870407  1
  H+  H315  1  0.42140443  0.83964979  0.89822209  1
  H+  H316  1  0.81545150  0.34748719  0.81053108  1
  H+  H317  1  0.13432534  0.27523217  0.84757945  1
  H+  H318  1  0.32562352  0.68544239  0.42802845  1
  H+  H319  1  0.11119309  0.93386583  0.42573033  1
  H+  H320  1  0.08149557  0.92725647  0.10172023  1
  H+  H321  1  0.82984172  0.16167822  0.43265531  1
  H+  H322  1  0.66106416  0.07347372  0.59916009  1
  H+  H323  1  0.84697937  0.66222591  0.05573469  1
  H+  H324  1  0.16628711  0.08576950  0.90045035  1
  H+  H325  1  0.81700036  0.66705920  0.43438415  1
  H+  H326  1  0.35799052  0.72758109  0.82932600  1
  H+  H327  1  0.15839682  0.33931950  0.26140726  1
  H+  H328  1  0.32217414  0.92441257  0.44150402  1
  H+  H329  1  0.81634179  0.90657948  0.76185871  1
  H+  H330  1  0.83172835  0.14777700  0.75896052  1
  H+  H331  1  0.22903071  0.61646507  0.99554522  1
  H+  H332  1  0.89256520  1.02682872  0.33938863  1
  H+  H333  1  0.02105404  0.38019277  0.67325365  1
  H+  H334  1  0.41265555  0.58351628  0.59826001  1
  H+  H335  1  0.58909037  0.44712612  0.75421825  1
  H+  H336  1  0.17126567  0.82073092  0.57415417  1
  H+  H337  1  0.16735745  0.33856793  0.93592786  1
  H+  H338  1  0.40177640  0.30936555  0.23453518  1
  H+  H339  1  0.67606277  0.82858151  0.26783380  1
  H+  H340  1  0.33450462  0.66956055  0.06070370  1
  H+  H341  1  0.56065886  0.17588574  0.09103183  1
  H+  H342  1  0.36239121  0.63155330  0.15511249  1
  H+  H343  1  0.58108802  0.66969772  0.10100355  1
  H+  H344  1  0.15240959  0.07539772  0.59117412  1
  H+  H345  1  0.57911762  0.90493427  0.72919098  1
  H+  H346  1  0.32689113  0.41712620  0.38860398  1
  H+  H347  1  0.42509771  0.07936732  0.90326540  1
  H+  H348  1  0.45555064  0.38238840  0.88660818  1
  H+  H349  1  0.41056763  0.29071143  0.94710692  1
  H+  H350  1  0.47201188  0.61435980  0.83136708  1
  H+  H351  1  0.83510216  0.91929523  0.07553125  1
  H+  H352  1  0.79364132  0.69699706  0.11903817  1
  H+  H353  1  0.06561678  0.64531884  0.76337106  1
  H+  H354  1  0.42307990  0.08530478  0.60821181  1
  H+  H355  1  0.36478483  0.22569210  0.34827966  1
  H+  H356  1  0.41900776  0.31967973  0.60653488  1
  H+  H357  1  0.57848334  0.66876520  0.40132308  1
  H+  H358  1  0.72302384  0.62612891  0.84674240  1
  H+  H359  1  0.89662564  0.55723274  0.88590551  1
  H+  H360  1  0.52089605  0.87336712  0.82773688  1
  H+  H361  1  0.65623900  0.58082056  0.27348605  1
  H+  H362  1  0.08676127  0.41749396  0.42518192  1
  H+  H363  1  0.87480096  0.76773765  0.51423460  1
  H+  H364  1  0.92517271  0.08869620  0.24513767  1
  H+  H365  1  0.08977455  0.91605026  0.73169717  1
  H+  H366  1  0.39145360  0.11025599  0.18121445  1
  H+  H367  1  0.91820284  0.33005736  0.26862029  1
  H+  H368  1  0.85172603  0.96116935  0.66842823  1
  H+  H369  1  0.57792277  0.41085850  0.39780882  1
  H+  H370  1  0.44456215  0.81575185  0.21711942  1
  H+  H371  1  0.07995899  0.41115129  0.73307372  1
  H+  H372  1  0.13589070  0.10727383  0.27909367  1
  H+  H373  1  0.89212750  0.01961756  0.84327632  1
  H+  H374  1  0.07296417  0.17124141  0.10012542  1
  H+  H375  1  0.66231228  0.57997527  0.59760750  1
  H+  H376  1  0.91144405  0.06385020  0.59628179  1
  H+  H377  1  0.67214956  0.05361858  0.88490543  1
  H+  H378  1  0.94979815  0.64324650  0.58641477  1
  H+  H379  1  0.66552181  0.82712726  0.56728953  1
  H+  H380  1  0.15893165  0.58072503  0.90134467  1
  H+  H381  1  0.10755567  0.14790129  0.16020904  1
  H+  H382  1  0.64931214  0.25875069  0.18756934  1
  H+  H383  1  0.58886289  0.15787822  0.39600379  1
  O2-  O384  1  0.07427663  0.17578252  0.14556446  1
  O2-  O385  1  0.08339914  0.17788528  0.46672311  1
  O2-  O386  1  0.08497545  0.17309537  0.81921175  1
  O2-  O387  1  0.08968997  0.42212072  0.13683866  1
  O2-  O388  1  0.08910261  0.42092097  0.47158191  1
  O2-  O389  1  0.07530114  0.41193174  0.81072817  1
  O2-  O390  1  0.08637090  0.67347514  0.15066215  1
  O2-  O391  1  0.09095839  0.66511547  0.47637876  1
  O2-  O392  1  0.05766026  0.64157348  0.80986367  1
  O2-  O393  1  0.08361036  0.93107736  0.14742439  1
  O2-  O394  1  0.13812845  0.94862764  0.46672347  1
  O2-  O395  1  0.09061421  0.92482024  0.81191621  1
  O2-  O396  1  0.32523251  0.13585614  0.15112064  1
  O2-  O397  1  0.33427971  0.16224438  0.48411680  1
  O2-  O398  1  0.31682383  0.17390480  0.81006279  1
  O2-  O399  1  0.32942645  0.40459159  0.15297375  1
  O2-  O400  1  0.37118474  0.44103947  0.52483983  1
  O2-  O401  1  0.32441569  0.41708691  0.81964539  1
  O2-  O402  1  0.33413349  0.66338766  0.13868040  1
  O2-  O403  1  0.31685245  0.67944027  0.47312520  1
  O2-  O404  1  0.32752087  0.66736892  0.81358202  1
  O2-  O405  1  0.34062283  0.90194528  0.20708040  1
  O2-  O406  1  0.31904517  0.92169779  0.48829616  1
  O2-  O407  1  0.34625429  0.91984474  0.80766907  1
  O2-  O408  1  0.58211460  0.14705971  0.15698491  1
  O2-  O409  1  0.57617303  0.14764914  0.47410311  1
  O2-  O410  1  0.59180782  0.14188916  0.81732515  1
  O2-  O411  1  0.55867066  0.41502084  0.13932787  1
  O2-  O412  1  0.57593387  0.41153367  0.47752081  1
  O2-  O413  1  0.57667179  0.46183440  0.79506387  1
  O2-  O414  1  0.58245249  0.67266197  0.14646410  1
  O2-  O415  1  0.57989042  0.67092030  0.47804729  1
  O2-  O416  1  0.56188797  0.65625038  0.80697008  1
  O2-  O417  1  0.60773736  0.94278719  0.16629462  1
  O2-  O418  1  0.58163676  0.91635958  0.48637158  1
  O2-  O419  1  0.58173636  0.90080572  0.81225141  1
  O2-  O420  1  0.82155853  0.14871990  0.15417896  1
  O2-  O421  1  0.82935087  0.15877771  0.47808516  1
  O2-  O422  1  0.83101122  0.14750679  0.80412146  1
  O2-  O423  1  0.83249980  0.41672564  0.15983886  1
  O2-  O424  1  0.83003437  0.40582323  0.47455021  1
  O2-  O425  1  0.77640643  0.36917459  0.79768758  1
  O2-  O426  1  0.82574322  0.68514031  0.14955233  1
  O2-  O427  1  0.81436305  0.65976680  0.47953588  1
  O2-  O428  1  0.82092015  0.66220185  0.81999417  1
  O2-  O429  1  0.84190962  0.92261688  0.15420845  1
  O2-  O430  1  0.83278865  0.91464306  0.48445772  1
  O2-  O431  1  0.81502263  0.91100299  0.80782449  1
  O2-  O432  1  0.15871967  0.10064830  0.18935498  1
  O2-  O433  1  0.16602044  0.09596310  0.51386045  1
  O2-  O434  1  0.16388226  0.08702122  0.85523263  1
  O2-  O435  1  0.16118743  0.33957753  0.18089672  1
  O2-  O436  1  0.15749797  0.32952268  0.51131440  1
  O2-  O437  1  0.16259487  0.33549756  0.86395873  1
  O2-  O438  1  0.16749355  0.58353637  0.18330453  1
  O2-  O439  1  0.16144794  0.57275285  0.50480698  1
  O2-  O440  1  0.15931737  0.58088172  0.85633756  1
  O2-  O441  1  0.16672589  0.84306521  0.18267504  1
  O2-  O442  1  0.17602905  0.82481618  0.52848556  1
  O2-  O443  1  0.17793474  0.84438643  0.86265344  1
  O2-  O444  1  0.42435423  0.08476467  0.20323914  1
  O2-  O445  1  0.41102001  0.07660955  0.52145226  1
  O2-  O446  1  0.43510799  0.08312541  0.85897847  1
  O2-  O447  1  0.39485418  0.30619483  0.18931989  1
  O2-  O448  1  0.41884968  0.31771646  0.52738756  1
  O2-  O449  1  0.41754785  0.34671648  0.85425874  1
  O2-  O450  1  0.41317749  0.57940034  0.18573745  1
  O2-  O451  1  0.41418998  0.61604949  0.51135052  1
  O2-  O452  1  0.41067864  0.58564596  0.85044658  1
  O2-  O453  1  0.44065150  0.83382900  0.17593814  1
  O2-  O454  1  0.40601301  0.83099577  0.52620297  1
  O2-  O455  1  0.42030214  0.83340974  0.85308067  1
  O2-  O456  1  0.64769953  0.03825499  0.17870112  1
  O2-  O457  1  0.66227747  0.07755904  0.51976419  1
  O2-  O458  1  0.65960299  0.05398116  0.84073397  1
  O2-  O459  1  0.67334093  0.31752991  0.20347973  1
  O2-  O460  1  0.62453572  0.30906557  0.52755449  1
  O2-  O461  1  0.63558434  0.32974399  0.87363834  1
  O2-  O462  1  0.65280385  0.58089211  0.19611458  1
  O2-  O463  1  0.64934457  0.57462060  0.51792564  1
  O2-  O464  1  0.66191686  0.59814480  0.86249115  1
  O2-  O465  1  0.67581775  0.83932783  0.18926217  1
  O2-  O466  1  0.66655773  0.83051749  0.52170670  1
  O2-  O467  1  0.66675938  0.84785636  0.86197586  1
  O2-  O468  1  0.91858761  0.08438532  0.19999064  1
  O2-  O469  1  0.92365162  0.08208124  0.51347916  1
  O2-  O470  1  0.94056745  0.05114511  0.87166956  1
  O2-  O471  1  0.91777487  0.32482077  0.18973420  1
  O2-  O472  1  0.92030567  0.32799898  0.51744706  1
  O2-  O473  1  0.88707657  0.31517943  0.83334641  1
  O2-  O474  1  0.92122888  0.59619985  0.19659585  1
  O2-  O475  1  0.91655474  0.58179380  0.46507038  1
  O2-  O476  1  0.87388953  0.54312820  0.84429322  1
  O2-  O477  1  0.92225322  0.84117200  0.19466855  1
  O2-  O478  1  0.90941807  0.82615617  0.53115236  1
  O2-  O479  1  0.94406691  0.89839515  0.87247831  1
  O2-  O480  1  0.11637220  0.09539664  0.32147504  1
  O2-  O481  1  0.15283806  0.06704570  0.63623013  1
  O2-  O482  1  0.15965291  0.07785409  0.98142387  1
  O2-  O483  1  0.15967051  0.34202992  0.30643845  1
  O2-  O484  1  0.15965265  0.33263109  0.63976542  1
  O2-  O485  1  0.16832942  0.34026158  0.98264076  1
  O2-  O486  1  0.16851827  0.58075858  0.30908141  1
  O2-  O487  1  0.15244213  0.58082451  0.64925774  1
  O2-  O488  1  0.16597002  0.57996115  0.98498953  1
  O2-  O489  1  0.19703550  0.82091333  0.30473086  1
  O2-  O490  1  0.15930175  0.81608943  0.65012039  1
  O2-  O491  1  0.16565787  0.83040598  0.98399427  1
  O2-  O492  1  0.42027744  0.08364248  0.32454449  1
  O2-  O493  1  0.42561982  0.09039108  0.65290471  1
  O2-  O494  1  0.40568015  0.07572043  0.98583327  1
  O2-  O495  1  0.41399382  0.32752672  0.31173030  1
  O2-  O496  1  0.41904502  0.32290333  0.65174732  1
  O2-  O497  1  0.41508129  0.30845357  0.98956745  1
  O2-  O498  1  0.41503459  0.58742628  0.31100691  1
  O2-  O499  1  0.41669305  0.53935110  0.62190877  1
  O2-  O500  1  0.42094109  0.60667785  0.96544918  1
  O2-  O501  1  0.40655876  0.84978266  0.31096565  1
  O2-  O502  1  0.40812972  0.84174796  0.64431216  1
  O2-  O503  1  0.42248970  0.84320965  0.97811147  1
  O2-  O504  1  0.67250707  0.08511304  0.30392142  1
  O2-  O505  1  0.66252002  0.07104709  0.64448248  1
  O2-  O506  1  0.70357675  0.03233979  0.95227298  1
  O2-  O507  1  0.67104060  0.32893539  0.31906078  1
  O2-  O508  1  0.67039034  0.32937179  0.65240436  1
  O2-  O509  1  0.67911327  0.34272984  1.00203602  1
  O2-  O510  1  0.66130994  0.58122042  0.31887899  1
  O2-  O511  1  0.66630791  0.58021532  0.64274415  1
  O2-  O512  1  0.65703436  0.58074131  0.97985193  1
  O2-  O513  1  0.67078899  0.83002973  0.31301866  1
  O2-  O514  1  0.65613634  0.81614365  0.64452697  1
  O2-  O515  1  0.66756739  0.83655660  0.98412588  1
  O2-  O516  1  0.92277727  0.08836146  0.32603571  1
  O2-  O517  1  0.90282406  0.05593995  0.64071677  1
  O2-  O518  1  0.91300707  0.07892852  0.98497092  1
  O2-  O519  1  0.91770431  0.33311572  0.31399381  1
  O2-  O520  1  0.91915159  0.32325335  0.64325807  1
  O2-  O521  1  0.92301061  0.31887166  0.98965469  1
  O2-  O522  1  0.91744666  0.58281890  0.32804749  1
  O2-  O523  1  0.89991447  0.56139727  0.70918982  1
  O2-  O524  1  0.94684818  0.62578837  0.95725875  1
  O2-  O525  1  0.91867733  0.83507658  0.31824580  1
  O2-  O526  1  0.91199491  0.82360292  0.65113132  1
  O2-  O527  1  0.91203553  0.83206650  0.98560417  1
  O2-  O528  1  0.07860470  0.16708959  0.02233274  1
  O2-  O529  1  0.07386102  0.18427413  0.40012042  1
  O2-  O530  1  0.12906449  0.18891431  0.69860515  1
  O2-  O531  1  0.10345328  0.42769301  0.02514681  1
  O2-  O532  1  0.08471595  0.41983471  0.35256551  1
  O2-  O533  1  0.08194765  0.41283642  0.68753385  1
  O2-  O534  1  0.09133944  0.66863967  0.02674754  1
  O2-  O535  1  0.08956458  0.66156505  0.35448300  1
  O2-  O536  1  0.07042833  0.64796202  0.69328264  1
  O2-  O537  1  0.08042319  0.91512798  0.02491140  1
  O2-  O538  1  0.08378079  0.92687861  0.34997523  1
  O2-  O539  1  0.08771420  0.90719293  0.68672831  1
  O2-  O540  1  0.31345945  0.14247968  0.03541472  1
  O2-  O541  1  0.33889038  0.16801495  0.36733718  1
  O2-  O542  1  0.32237562  0.15522623  0.68459261  1
  O2-  O543  1  0.33182901  0.38776360  0.02546897  1
  O2-  O544  1  0.33283634  0.42031932  0.34456008  1
  O2-  O545  1  0.29549238  0.35088142  0.70764453  1
  O2-  O546  1  0.33101410  0.67483920  0.01558390  1
  O2-  O547  1  0.33295169  0.67668205  0.35043018  1
  O2-  O548  1  0.31553168  0.67250003  0.68538947  1
  O2-  O549  1  0.32246756  0.90975743  0.02197915  1
  O2-  O550  1  0.33448245  0.93052228  0.37172807  1
  O2-  O551  1  0.34497077  0.93355153  0.68988793  1
  O2-  O552  1  0.54329185  0.19798248  0.05471640  1
  O2-  O553  1  0.58901457  0.16204914  0.35067271  1
  O2-  O554  1  0.59123570  0.16037433  0.69008183  1
  O2-  O555  1  0.57254557  0.41367160  0.02141690  1
  O2-  O556  1  0.57996540  0.41095227  0.35250217  1
  O2-  O557  1  0.58896178  0.41732554  0.68034124  1
  O2-  O558  1  0.58230495  0.66896716  0.02132101  1
  O2-  O559  1  0.57735054  0.66510151  0.35558932  1
  O2-  O560  1  0.56794291  0.64495857  0.68223878  1
  O2-  O561  1  0.58468865  0.91500519  0.03476085  1
  O2-  O562  1  0.57639649  0.91388189  0.29271827  1
  O2-  O563  1  0.57658007  0.90495492  0.68411929  1
  O2-  O564  1  0.82216106  0.16951340  0.03045909  1
  O2-  O565  1  0.83431696  0.16841701  0.35401785  1
  O2-  O566  1  0.83183116  0.15197519  0.67809814  1
  O2-  O567  1  0.85210319  0.41592759  0.00245095  1
  O2-  O568  1  0.83325754  0.41282665  0.35477382  1
  O2-  O569  1  0.84179520  0.42033253  0.65056803  1
  O2-  O570  1  0.83744516  0.66532262  0.01223380  1
  O2-  O571  1  0.82650131  0.66814764  0.35581255  1
  O2-  O572  1  0.82636366  0.66038244  0.69433300  1
  O2-  O573  1  0.83157117  0.91497526  0.03012505  1
  O2-  O574  1  0.83628116  0.91962571  0.35900943  1
  O2-  O575  1  0.82066728  0.90135183  0.68758427  1
