# generated using pymatgen
data_H2O
_symmetry_space_group_name_H-M   'P 1'
_cell_length_a   17.99210338
_cell_length_b   17.99146050
_cell_length_c   22.00261725
_cell_angle_alpha   90.02466411
_cell_angle_beta   89.96133477
_cell_angle_gamma   120.01964359
_symmetry_Int_Tables_number   1
_chemical_formula_structural   H2O
_chemical_formula_sum   'H384 O192'
_cell_volume   6166.90463558
_cell_formula_units_Z   192
loop_
 _symmetry_equiv_pos_site_id
 _symmetry_equiv_pos_as_xyz
  1  'x, y, z'
loop_
 _atom_type_symbol
 _atom_type_oxidation_number
  H+  1.0
  O2-  -2.0
loop_
 _atom_site_type_symbol
 _atom_site_label
 _atom_site_symmetry_multiplicity
 _atom_site_fract_x
 _atom_site_fract_y
 _atom_site_fract_z
 _atom_site_occupancy
  H+  H0  1  0.12429578  0.22635126  1.00633823  1
  H+  H1  1  0.11294219  0.22170718  0.34396190  1
  H+  H2  1  0.08478674  0.91130832  0.40080679  1
  H+  H3  1  0.64422424  0.85749323  0.33270938  1
  H+  H4  1  0.40165935  0.02930102  0.98630175  1
  H+  H5  1  0.27317747  0.13165918  0.33952264  1
  H+  H6  1  0.61084685  0.37901774  0.66362819  1
  H+  H7  1  0.13382299  0.01670715  0.65752660  1
  H+  H8  1  0.09780922  0.74895630  0.81635809  1
  H+  H9  1  0.39141942  0.37347492  0.99570218  1
  H+  H10  1  0.60922935  1.01710395  0.17625626  1
  H+  H11  1  0.76575766  0.64414443  0.98705031  1
  H+  H12  1  0.12053834  0.72252367  0.00392305  1
  H+  H13  1  0.13476327  0.07041507  0.16983824  1
  H+  H14  1  0.61040819  0.13038929  0.34001742  1
  H+  H15  1  0.36743380  0.13949166  0.49148072  1
  H+  H16  1  0.61972102  0.74880824  1.00844930  1
  H+  H17  1  0.98240457  0.35611709  1.00417967  1
  H+  H18  1  0.40463719  0.32804295  0.27251534  1
  H+  H19  1  0.89762706  0.77899253  0.50456751  1
  H+  H20  1  0.72829014  0.36804669  0.13749965  1
  H+  H21  1  0.63712727  0.27877060  0.13604750  1
  H+  H22  1  0.02133034  0.65181677  0.82325217  1
  H+  H23  1  0.06693483  0.83180134  0.87345590  1
  H+  H24  1  0.86692631  0.39050704  0.15882223  1
  H+  H25  1  0.51894474  0.90009618  0.48942375  1
  H+  H26  1  0.86796039  0.39094789  1.00747934  1
  H+  H27  1  0.65861342  0.61221650  0.17428646  1
  H+  H28  1  0.07942563  0.11928703  0.08702083  1
  H+  H29  1  0.36549199  0.62926315  0.33473938  1
  H+  H30  1  0.11377393  0.11672455  0.49114254  1
  H+  H31  1  0.73599966  0.36099333  0.83333093  1
  H+  H32  1  0.62977453  0.12912223  0.81298945  1
  H+  H33  1  0.13574879  0.86421981  0.65865602  1
  H+  H34  1  0.77283689  0.62700130  0.33981333  1
  H+  H35  1  0.62446832  0.14009968  1.00378708  1
  H+  H36  1  0.27861402  0.39212534  0.82334596  1
  H+  H37  1  0.79291453  0.88171050  0.48787035  1
  H+  H38  1  0.72769396  0.11285396  0.66009461  1
  H+  H39  1  0.87884789  0.50863948  0.32452967  1
  H+  H40  1  0.38251762  0.76576265  0.32786806  1
  H+  H41  1  0.37939734  0.26445446  0.32902249  1
  H+  H42  1  0.88415839  1.01668665  0.65790762  1
  H+  H43  1  0.67537692  0.32639367  0.90083519  1
  H+  H44  1  0.14674973  0.33780115  0.49719687  1
  H+  H45  1  0.48470801  0.36607805  0.99138261  1
  H+  H46  1  0.22735892  0.60530260  0.32959434  1
  H+  H47  1  0.13891786  0.86731771  0.50799849  1
  H+  H48  1  0.36293301  0.47286913  0.34191221  1
  H+  H49  1  0.60348301  0.98015923  0.79761401  1
  H+  H50  1  0.78216916  0.88338976  0.34663678  1
  H+  H51  1  0.60578004  0.59344647  0.97737298  1
  H+  H52  1  0.78699873  0.64348335  0.49448621  1
  H+  H53  1  0.76383954  0.14332187  0.81960255  1
  H+  H54  1  0.26896199  0.12241963  0.17018726  1
  H+  H55  1  0.35470899  0.44330106  0.77218489  1
  H+  H56  1  0.85953153  0.13417487  0.66993853  1
  H+  H57  1  0.13548090  0.54535136  0.82416310  1
  H+  H58  1  0.33794991  0.91340848  0.06143657  1
  H+  H59  1  0.06220371  0.99757745  0.06134765  1
  H+  H60  1  0.64317689  0.76904744  0.33440496  1
  H+  H61  1  0.88740674  0.61023200  0.17275037  1
  H+  H62  1  0.39048040  0.11514443  0.32430964  1
  H+  H63  1  0.08044999  0.39998163  0.06389650  1
  H+  H64  1  0.89989298  0.53563091  0.50986525  1
  H+  H65  1  0.73152326  0.10822215  0.50433912  1
  H+  H66  1  0.01016141  0.37594976  0.66264814  1
  H+  H67  1  0.22385260  0.35808950  0.17848584  1
  H+  H68  1  0.86688820  0.23122461  0.81653643  1
  H+  H69  1  0.87492579  0.99017684  0.15876873  1
  H+  H70  1  0.13244020  0.53606402  0.50491633  1
  H+  H71  1  0.73525726  0.62031830  0.83663438  1
  H+  H72  1  0.99443750  0.86571416  0.16295788  1
  H+  H73  1  0.11077679  0.38339499  0.35052173  1
  H+  H74  1  0.63589713  0.26916321  0.83232537  1
  H+  H75  1  0.38348659  0.01974802  0.66120591  1
  H+  H76  1  0.52306866  0.87651446  0.16255521  1
  H+  H77  1  0.25532013  0.63273864  0.16909932  1
  H+  H78  1  0.38277749  0.13101365  0.17484206  1
  H+  H79  1  0.87499605  0.22425679  0.02832217  1
  H+  H80  1  0.53097731  0.88388486  0.65815615  1
  H+  H81  1  0.78379507  0.39163890  0.35116431  1
  H+  H82  1  0.09274208  0.40884673  0.51517549  1
  H+  H83  1  1.01645897  0.62715787  0.15972606  1
  H+  H84  1  0.03606737  0.65053381  0.49767756  1
  H+  H85  1  0.14619853  0.86764314  -0.01131762  1
  H+  H86  1  0.14183483  0.86592017  0.32442352  1
  H+  H87  1  0.53036765  0.64048021  0.83479239  1
  H+  H88  1  0.60793975  0.63760319  0.49905597  1
  H+  H89  1  0.98286508  0.89435173  0.99030015  1
  H+  H90  1  0.86094357  0.88072739  0.00585392  1
  H+  H91  1  0.28092795  0.63935270  0.81541818  1
  H+  H92  1  0.85922256  0.22216177  0.67000973  1
  H+  H93  1  0.52316352  0.88677441  0.80710335  1
  H+  H94  1  0.73840541  0.37408700  0.50291631  1
  H+  H95  1  0.36924974  0.47820796  0.00986088  1
  H+  H96  1  0.86369029  0.10493522  0.48863149  1
  H+  H97  1  0.64483118  0.86246417  0.14924417  1
  H+  H98  1  0.62618509  0.48509660  0.81057344  1
  H+  H99  1  0.53130874  0.14414130  0.49613881  1
  H+  H100  1  0.88009070  0.19891747  0.48443620  1
  H+  H101  1  0.12966814  0.64929510  0.34423735  1
  H+  H102  1  0.41615624  0.82473053  0.23675409  1
  H+  H103  1  0.77270510  0.87663942  0.67665988  1
  H+  H104  1  0.48056455  0.11548263  0.32454761  1
  H+  H105  1  0.41640305  0.59021821  0.94016248  1
  H+  H106  1  0.87385913  0.13342555  1.02814799  1
  H+  H107  1  1.01517902  0.07755901  0.14315419  1
  H+  H108  1  0.53641312  0.40251923  0.81745236  1
  H+  H109  1  0.27204269  0.89935749  0.49116357  1
  H+  H110  1  0.78096342  0.88619737  0.83032169  1
  H+  H111  1  0.62059977  0.86163148  0.49870677  1
  H+  H112  1  0.74948593  0.65287586  0.01615757  1
  H+  H113  1  0.61148674  0.62589884  0.34059476  1
  H+  H114  1  0.38689626  0.85501443  0.82730388  1
  H+  H115  1  0.73810384  0.86944770  0.14933701  1
  H+  H116  1  0.02480518  0.88432472  0.49495937  1
  H+  H117  1  0.37904692  0.60883037  0.00183585  1
  H+  H118  1  0.13017851  0.76088619  0.17737617  1
  H+  H119  1  0.14769510  0.43846337  0.79781254  1
  H+  H120  1  0.89401535  0.86873917  0.50209859  1
  H+  H121  1  0.91611246  0.79606867  -0.00669539  1
  H+  H122  1  0.36640686  0.62931633  0.49472599  1
  H+  H123  1  0.82413683  0.42064309  0.75784525  1
  H+  H124  1  0.87466191  0.60413535  0.32135574  1
  H+  H125  1  0.35256792  0.22141493  0.68622711  1
  H+  H126  1  0.22141579  0.10695432  0.65884866  1
  H+  H127  1  0.88874823  0.53014128  0.83597756  1
  H+  H128  1  0.87438376  0.73620090  0.82486923  1
  H+  H129  1  0.44244415  0.60263993  0.15839813  1
  H+  H130  1  0.86376489  0.71638214  0.33837271  1
  H+  H131  1  0.99112566  0.36960032  0.80401244  1
  H+  H132  1  0.14271430  0.35817181  0.99394171  1
  H+  H133  1  0.13660165  0.52228822  0.65633464  1
  H+  H134  1  0.11638118  -0.02819851  0.49215733  1
  H+  H135  1  0.29882543  0.15648956  0.84194124  1
  H+  H136  1  0.38632116  0.84989380  0.17514166  1
  H+  H137  1  0.61130731  0.13307464  0.66769203  1
  H+  H138  1  0.63868249  0.86100453  0.00187072  1
  H+  H139  1  0.63755585  0.73777275  0.14451561  1
  H+  H140  1  0.60660849  0.37744498  0.99533707  1
  H+  H141  1  0.58702484  0.41949912  0.40009233  1
  H+  H142  1  0.61839643  0.63715959  0.82775929  1
  H+  H143  1  0.20792835  0.58855388  0.99086590  1
  H+  H144  1  0.87766804  0.30323384  0.50966835  1
  H+  H145  1  0.15122348  -0.00349718  0.82531864  1
  H+  H146  1  0.01154598  0.64444875  0.66975289  1
  H+  H147  1  0.12589754  0.65186738  0.49743702  1
  H+  H148  1  0.84177066  0.67343017  0.76709101  1
  H+  H149  1  0.88617479  0.99775219  0.50018459  1
  H+  H150  1  0.41833313  0.80694712  0.98502073  1
  H+  H151  1  0.52158393  0.88001371  0.33590986  1
  H+  H152  1  0.14855488  0.77988260  0.32625881  1
  H+  H153  1  0.40625821  0.88804750  0.98634557  1
  H+  H154  1  0.13627080  0.01817306  0.33134927  1
  H+  H155  1  0.57704270  0.41017727  0.05510099  1
  H+  H156  1  0.35369306  0.71919108  0.16373364  1
  H+  H157  1  0.86343202  0.72542904  0.67098475  1
  H+  H158  1  0.33144900  0.77960700  0.52656940  1
  H+  H159  1  0.28674310  0.89661204  -0.00002330  1
  H+  H160  1  0.59802482  0.50182757  0.97404451  1
  H+  H161  1  0.13396202  0.61363403  0.17998224  1
  H+  H162  1  1.02308549  0.88102282  0.34294861  1
  H+  H163  1  0.34378491  0.46851366  0.16482103  1
  H+  H164  1  0.83155433  0.15230297  0.39135331  1
  H+  H165  1  0.72249983  0.10645711  0.32239383  1
  H+  H166  1  0.39071735  0.53121173  0.84985265  1
  H+  H167  1  0.64933400  0.28286080  0.49971149  1
  H+  H168  1  0.10527307  0.46091272  0.00250238  1
  H+  H169  1  0.02244089  0.88109188  0.67168076  1
  H+  H170  1  0.88754513  0.27192498  0.32490930  1
  H+  H171  1  1.02595569  0.14676932  0.80194690  1
  H+  H172  1  0.25513484  0.85471152  0.15410609  1
  H+  H173  1  0.35979166  0.38262815  0.34633282  1
  H+  H174  1  0.93090610  0.84799502  0.89219312  1
  H+  H175  1  0.74621397  0.61598478  0.18174715  1
  H+  H176  1  0.28169363  0.38690829  0.00741376  1
  H+  H177  1  0.14417986  0.63616655  0.83496873  1
  H+  H178  1  0.09901897  0.37157415  0.66092808  1
  H+  H179  1  0.63647965  0.85001421  0.65989102  1
  H+  H180  1  0.63638199  0.07794644  0.23471038  1
  H+  H181  1  0.88753758  0.85944467  0.65931013  1
  H+  H182  1  0.14106699  0.26496274  0.83238245  1
  H+  H183  1  0.11365758  0.62990390  1.00261029  1
  H+  H184  1  0.39659848  0.77145886  0.65257143  1
  H+  H185  1  0.56665531  0.64903115  0.17449917  1
  H+  H186  1  0.29028281  0.06799983  0.04645990  1
  H+  H187  1  0.39168254  0.61936906  0.84323423  1
  H+  H188  1  0.64922339  0.27479514  0.34688036  1
  H+  H189  1  0.31885379  0.69527355  0.01704153  1
  H+  H190  1  0.35936645  0.60677273  0.17359764  1
  H+  H191  1  0.99062000  0.87549233  0.83137635  1
  H+  H192  1  1.03543588  0.13655927  1.00325003  1
  H+  H193  1  0.73053124  0.36490971  0.98834826  1
  H+  H194  1  0.17167143  0.07537853  0.56244550  1
  H+  H195  1  0.63642885  0.59836306  0.66995267  1
  H+  H196  1  0.88323450  0.36242062  0.66095079  1
  H+  H197  1  0.47694696  0.60450952  0.32361542  1
  H+  H198  1  0.52122964  0.13329960  0.66623713  1
  H+  H199  1  0.46602466  0.52289508  0.70565288  1
  H+  H200  1  0.38296600  0.85623161  0.32800819  1
  H+  H201  1  0.64030492  1.02163449  0.65406317  1
  H+  H202  1  0.08522815  0.90813508  0.73043759  1
  H+  H203  1  0.40520557  0.30165458  0.83725043  1
  H+  H204  1  0.54325768  0.90368394  1.00065188  1
  H+  H205  1  0.97725574  0.35991398  0.33038363  1
  H+  H206  1  0.87698803  0.01656197  0.81661357  1
  H+  H207  1  0.33488532  0.16466817  0.39809636  1
  H+  H208  1  0.61964750  0.14241365  0.49417653  1
  H+  H209  1  0.13463783  0.52023986  0.33307796  1
  H+  H210  1  0.63922110  0.27158891  0.65140179  1
  H+  H211  1  0.86232190  0.12795459  0.33175316  1
  H+  H212  1  1.01753466  0.37484565  0.15410680  1
  H+  H213  1  0.47316070  0.35543794  0.66495418  1
  H+  H214  1  0.15332492  0.12506462  -0.03018889  1
  H+  H215  1  0.11021694  0.74313469  0.66742191  1
  H+  H216  1  0.92127195  0.67262887  0.01890408  1
  H+  H217  1  0.59602171  0.71804334  0.48960192  1
  H+  H218  1  0.17817625  0.84392066  0.93033077  1
  H+  H219  1  0.14503124  0.78118032  0.50825928  1
  H+  H220  1  0.87673229  0.89795658  0.82499588  1
  H+  H221  1  0.63875497  0.51853073  0.32988985  1
  H+  H222  1  0.27651303  0.89066273  0.33508520  1
  H+  H223  1  0.88354467  0.27973492  0.17844035  1
  H+  H224  1  0.13691247  0.10797383  0.32881158  1
  H+  H225  1  0.85115865  0.43741833  0.43894773  1
  H+  H226  1  0.28116587  0.80013053  0.11441784  1
  H+  H227  1  0.36225831  0.88191662  0.67080026  1
  H+  H228  1  0.77535774  0.63348427  0.67528444  1
  H+  H229  1  0.10250023  0.36714097  0.15591067  1
  H+  H230  1  0.58057786  0.16011210  0.39985583  1
  H+  H231  1  0.11657274  0.20591439  0.49434324  1
  H+  H232  1  0.88982446  0.01313949  0.32920579  1
  H+  H233  1  0.64369709  0.27239980  -0.01190072  1
  H+  H234  1  0.88515627  0.85721652  0.33415698  1
  H+  H235  1  0.28578942  0.38602180  0.49795884  1
  H+  H236  1  0.36379195  0.95968154  0.82371479  1
  H+  H237  1  0.67386301  0.08651031  0.56495764  1
  H+  H238  1  0.38551197  0.35754268  0.51397788  1
  H+  H239  1  0.39770323  0.11400705  0.98598229  1
  H+  H240  1  0.63978927  0.51233488  0.65751883  1
  H+  H241  1  0.38269684  0.52278651  0.51671210  1
  H+  H242  1  0.74854121  0.11980821  1.01268560  1
  H+  H243  1  0.53416141  0.13794881  -0.00516383  1
  H+  H244  1  0.63687531  -0.01689417  1.01073112  1
  H+  H245  1  0.85517995  0.12896176  0.81905002  1
  H+  H246  1  0.59041850  0.68817757  0.67677807  1
  H+  H247  1  0.36575269  0.08248468  0.83336787  1
  H+  H248  1  0.39227621  0.03289899  0.50545380  1
  H+  H249  1  0.39384753  0.38377152  0.84048902  1
  H+  H250  1  0.87507380  0.39448290  0.34136461  1
  H+  H251  1  0.23243060  0.10671599  0.50247258  1
  H+  H252  1  0.88076114  0.73258164  0.17532382  1
  H+  H253  1  0.58556109  0.41299141  0.72407405  1
  H+  H254  1  0.64826138  0.36350270  0.34727663  1
  H+  H255  1  0.86325958  0.39117860  0.81051806  1
  H+  H256  1  0.63680763  0.48939202  0.48574304  1
  H+  H257  1  0.22574358  0.36160207  0.33640623  1
  H+  H258  1  0.77036954  0.38983076  0.66682498  1
  H+  H259  1  0.10502013  0.68640207  0.40183921  1
  H+  H260  1  0.88749560  0.61690908  0.66036323  1
  H+  H261  1  0.22929300  0.61488239  0.50236756  1
  H+  H262  1  0.14180089  0.26592535  0.18592812  1
  H+  H263  1  0.11740299  0.00707031  1.00281025  1
  H+  H264  1  0.51448687  0.64401079  0.00912611  1
  H+  H265  1  0.48177107  0.13135082  0.16785627  1
  H+  H266  1  0.47060754  0.61052916  0.51489449  1
  H+  H267  1  -0.00252081  0.39560221  0.50302307  1
  H+  H268  1  0.86801934  0.48063194  0.00192597  1
  H+  H269  1  0.09720034  0.84191658  0.13964436  1
  H+  H270  1  1.01859868  0.12720231  0.66110005  1
  H+  H271  1  0.87584823  0.40779370  0.50228838  1
  H+  H272  1  0.39620434  0.37267319  0.67185163  1
  H+  H273  1  0.97268541  0.09339389  0.50473425  1
  H+  H274  1  0.65211047  0.77376589  0.84172435  1
  H+  H275  1  0.12714597  0.25556372  0.65244589  1
  H+  H276  1  0.72655987  0.69483626  0.54791011  1
  H+  H277  1  0.35709938  0.22266379  0.49438937  1
  H+  H278  1  -0.02179751  0.10485602  0.33106548  1
  H+  H279  1  0.90159015  0.62486675  0.50932206  1
  H+  H280  1  0.37136338  0.87324663  0.50257924  1
  H+  H281  1  0.52535344  0.38334671  0.34129950  1
  H+  H282  1  0.10946507  0.12736961  0.66019584  1
  H+  H283  1  0.27371670  0.12336279  0.00081792  1
  H+  H284  1  0.86063581  0.47994579  0.66962106  1
  H+  H285  1  0.88459785  0.01028669  1.00947304  1
  H+  H286  1  0.98448870  0.61126229  0.98980388  1
  H+  H287  1  0.63317526  1.01752095  0.32534219  1
  H+  H288  1  0.65590621  0.57475590  0.88581378  1
  H+  H289  1  0.68192357  0.60502693  0.57984254  1
  H+  H290  1  0.38236446  0.10818249  0.66427631  1
  H+  H291  1  0.70867934  0.09438846  0.94762708  1
  H+  H292  1  0.90695677  0.30777878  0.95541190  1
  H+  H293  1  0.30805495  0.64511585  0.07805788  1
  H+  H294  1  0.91110119  0.06986915  0.59589369  1
  H+  H295  1  0.58122749  0.66600757  0.06809651  1
  H+  H296  1  0.16643885  0.58627002  0.24001281  1
  H+  H297  1  0.42101441  0.34725613  0.93000541  1
  H+  H298  1  0.33567181  0.65599527  0.39521224  1
  H+  H299  1  0.83978189  0.66154581  0.43213278  1
  H+  H300  1  0.63014105  0.39862415  0.48965317  1
  H+  H301  1  0.42968430  0.83627217  0.88417417  1
  H+  H302  1  0.90556726  0.57129485  0.25744815  1
  H+  H303  1  0.15759237  0.57590522  0.92765374  1
  H+  H304  1  0.38426584  0.51824684  0.68322001  1
  H+  H305  1  0.67512752  0.58267307  0.27218150  1
  H+  H306  1  0.07510966  0.41472262  0.40681965  1
  H+  H307  1  0.16673640  0.83429136  0.59858185  1
  H+  H308  1  0.16971018  0.31846811  0.56350201  1
  H+  H309  1  0.67576340  0.81980973  0.60784980  1
  H+  H310  1  0.34453251  0.42458939  0.43974637  1
  H+  H311  1  0.17499240  0.59376701  0.60792678  1
  H+  H312  1  0.59127743  0.31614185  0.23782907  1
  H+  H313  1  0.37143942  0.72390679  0.81494455  1
  H+  H314  1  0.93169766  0.08598031  0.24226860  1
  H+  H315  1  1.00822004  0.93256616  0.21289819  1
  H+  H316  1  0.58749897  0.91231707  0.71791636  1
  H+  H317  1  0.41956057  0.08822084  0.56666637  1
  H+  H318  1  0.83210799  0.16644862  0.12001969  1
  H+  H319  1  0.92326373  0.59098717  0.60057175  1
  H+  H320  1  0.84328350  0.42333392  0.09681764  1
  H+  H321  1  0.21246610  0.34782321  0.65835263  1
  H+  H322  1  0.88853469  0.61908660  0.83826318  1
  H+  H323  1  0.39807583  0.31677062  0.57444776  1
  H+  H324  1  0.86929826  0.69256368  0.10928584  1
  H+  H325  1  0.60360191  0.36224772  0.24310863  1
  H+  H326  1  0.97676854  0.15916241  0.19198423  1
  H+  H327  1  0.37609326  0.72096082  0.48172860  1
  H+  H328  1  0.16452691  0.83158254  0.23147016  1
  H+  H329  1  0.88220962  0.51664978  0.16898190  1
  H+  H330  1  0.68193482  0.82804834  0.90251789  1
  H+  H331  1  0.58104974  0.64970180  0.74240915  1
  H+  H332  1  0.39956253  0.61337141  0.60859506  1
  H+  H333  1  0.13176883  0.34366681  0.85267819  1
  H+  H334  1  0.91908387  0.83249205  0.59875123  1
  H+  H335  1  0.41471503  0.83729438  0.59853718  1
  H+  H336  1  0.33121697  0.16765752  0.11242807  1
  H+  H337  1  0.97785103  0.75600325  0.06230578  1
  H+  H338  1  0.85010222  0.14049385  0.18399057  1
  H+  H339  1  0.57188516  0.16061011  0.09519672  1
  H+  H340  1  0.51712639  0.14448835  0.81409881  1
  H+  H341  1  0.91838450  0.83170472  0.27458718  1
  H+  H342  1  0.59335693  0.13161973  0.16001079  1
  H+  H343  1  0.91197958  0.33996958  0.59781750  1
  H+  H344  1  0.18128824  0.08233295  0.91450447  1
  H+  H345  1  0.16559562  0.33219764  0.27741312  1
  H+  H346  1  0.94210075  0.35670053  0.86381568  1
  H+  H347  1  0.42506927  0.09900724  0.23475621  1
  H+  H348  1  0.67192575  0.33418166  0.59297954  1
  H+  H349  1  0.08903163  0.42992325  0.74148414  1
  H+  H350  1  0.09433366  0.17639112  0.75090130  1
  H+  H351  1  0.58058496  0.79917758  0.55167772  1
  H+  H352  1  0.83667717  0.91325768  0.73286123  1
  H+  H353  1  0.07960500  0.65888006  0.10161440  1
  H+  H354  1  0.61126517  0.98531680  0.49173903  1
  H+  H355  1  0.41956769  0.07982458  0.88968787  1
  H+  H356  1  0.16989860  0.06796751  0.23686120  1
  H+  H357  1  0.08360411  0.15658016  0.40066218  1
  H+  H358  1  0.33162499  0.92624295  0.43030928  1
  H+  H359  1  0.57386054  0.65048847  0.39832301  1
  H+  H360  1  0.07664433  0.89172427  0.08600088  1
  H+  H361  1  0.34971892  0.65399289  0.71465517  1
  H+  H362  1  0.27280939  0.88152775  0.67041262  1
  H+  H363  1  0.07523621  0.68336557  0.73332403  1
  H+  H364  1  0.88886701  0.91000235  0.16350327  1
  H+  H365  1  0.57764966  0.17700060  0.75321886  1
  H+  H366  1  0.41329205  0.57603367  0.26531681  1
  H+  H367  1  0.49134462  0.32511584  0.17955398  1
  H+  H368  1  0.61552255  0.38184570  0.12998079  1
  H+  H369  1  0.92087608  0.34518244  0.23320226  1
  H+  H370  1  0.32492236  0.40704807  0.10855717  1
  H+  H371  1  0.84809344  0.91516981  0.40484569  1
  H+  H372  1  0.92051026  0.59006665  0.93356621  1
  H+  H373  1  0.17731999  0.32701879  0.93742760  1
  H+  H374  1  0.57968061  0.91622430  0.39496415  1
  H+  H375  1  0.30741574  0.14682116  0.73707435  1
  H+  H376  1  0.90465699  0.07122382  0.95412413  1
  H+  H377  1  0.36759366  0.97714550  0.33487011  1
  H+  H378  1  0.83631981  0.90979460  0.06958492  1
  H+  H379  1  0.72560972  0.85242688  1.00634234  1
  H+  H380  1  0.93022307  0.09474872  0.86243172  1
  H+  H381  1  0.33015210  0.90282227  0.76488018  1
  H+  H382  1  0.58134590  0.91550977  0.10300265  1
  H+  H383  1  0.63790779  0.07390784  0.86494099  1
  O2-  O384  1  0.05996151  0.07440360  0.11931046  1
  O2-  O385  1  0.08253269  0.14722428  0.47739413  1
  O2-  O386  1  0.08832873  0.17982960  0.79580940  1
  O2-  O387  1  0.07197716  0.39035363  0.13231159  1
  O2-  O388  1  0.06460986  0.42703493  0.48581163  1
  O2-  O389  1  0.09572045  0.44034537  0.78841095  1
  O2-  O390  1  0.07806670  0.66051041  0.14666685  1
  O2-  O391  1  0.09655160  0.68361449  0.48267788  1
  O2-  O392  1  0.08031894  0.68877217  0.80551557  1
  O2-  O393  1  0.05077673  0.84164914  0.11387660  1
  O2-  O394  1  0.08498399  0.91057445  0.47796272  1
  O2-  O395  1  0.09082464  0.91198552  0.80854187  1
  O2-  O396  1  0.33089913  0.16327148  0.15704286  1
  O2-  O397  1  0.33232854  0.16367664  0.47487430  1
  O2-  O398  1  0.27594349  0.10354913  0.81796648  1
  O2-  O399  1  0.31704175  0.40725032  0.15287636  1
  O2-  O400  1  0.34592732  0.42562669  0.48528460  1
  O2-  O401  1  0.34139798  0.42878493  0.81640854  1
  O2-  O402  1  0.31667054  0.65926862  0.14808880  1
  O2-  O403  1  0.33859056  0.65966041  0.47353601  1
  O2-  O404  1  0.34090314  0.66202119  0.80187495  1
  O2-  O405  1  0.30519114  0.85873148  0.12963729  1
  O2-  O406  1  0.33311368  0.92948475  0.47590958  1
  O2-  O407  1  0.33356700  0.89940961  0.80993803  1
  O2-  O408  1  0.57010568  0.16786827  0.13983085  1
  O2-  O409  1  0.59046965  0.17311976  0.47840197  1
  O2-  O410  1  0.57821623  0.17899991  0.79969011  1
  O2-  O411  1  0.57592603  0.40934512  0.12611333  1
  O2-  O412  1  0.60189268  0.42996322  0.47292671  1
  O2-  O413  1  0.59208617  0.42390552  0.79723804  1
  O2-  O414  1  0.60579105  0.67102327  0.14004827  1
  O2-  O415  1  0.56988400  0.65584999  0.47944520  1
  O2-  O416  1  0.58818086  0.66936993  0.81571146  1
  O2-  O417  1  0.58337588  0.91218316  0.14782711  1
  O2-  O418  1  0.57825392  0.92485561  0.47514265  1
  O2-  O419  1  0.58181243  0.91936079  0.78906118  1
  O2-  O420  1  0.83016014  0.17597482  0.16420925  1
  O2-  O421  1  0.83724408  0.14077547  0.47253550  1
  O2-  O422  1  0.82839629  0.16837307  0.82644877  1
  O2-  O423  1  0.83813082  0.42208264  0.14198185  1
  O2-  O424  1  0.84469927  0.43811264  0.48369013  1
  O2-  O425  1  0.82680292  0.41714093  0.80434767  1
  O2-  O426  1  0.85263084  0.67832361  0.15319592  1
  O2-  O427  1  0.84541380  0.66824032  0.47724802  1
  O2-  O428  1  0.84325246  0.67444698  0.81264174  1
  O2-  O429  1  0.85213903  0.93066973  0.14462094  1
  O2-  O430  1  0.85257838  0.91357481  0.47481872  1
  O2-  O431  1  0.84053855  0.92281796  0.81098992  1
  O2-  O432  1  0.17378399  0.05683390  0.19277719  1
  O2-  O433  1  0.17105018  0.07384199  0.51703374  1
  O2-  O434  1  0.18634185  0.06310013  0.84065785  1
  O2-  O435  1  0.16313102  0.32563237  0.19693640  1
  O2-  O436  1  0.17808295  0.31449333  0.51843872  1
  O2-  O437  1  0.17226730  0.32273847  0.85534252  1
  O2-  O438  1  0.17043071  0.59042384  0.19459012  1
  O2-  O439  1  0.17153320  0.59588887  0.51944482  1
  O2-  O440  1  0.16751144  0.59914296  0.84796123  1
  O2-  O441  1  0.16204063  0.82428498  0.18564839  1
  O2-  O442  1  0.17434876  0.84235200  0.52420096  1
  O2-  O443  1  0.11373316  0.85457745  0.84370559  1
  O2-  O444  1  0.42149100  0.10270083  0.18833351  1
  O2-  O445  1  0.42483827  0.09280486  0.52147119  1
  O2-  O446  1  0.41582290  0.07647626  0.84431844  1
  O2-  O447  1  0.48951575  0.33627432  0.13616282  1
  O2-  O448  1  0.39684024  0.31268315  0.52971194  1
  O2-  O449  1  0.42764480  0.35689487  0.85750387  1
  O2-  O450  1  0.39311092  0.57718675  0.18558835  1
  O2-  O451  1  0.41057449  0.58429547  0.53075139  1
  O2-  O452  1  0.42083804  0.59154691  0.86484606  1
  O2-  O453  1  0.41800227  0.82213113  0.19087920  1
  O2-  O454  1  0.38766410  0.83064668  0.52036957  1
  O2-  O455  1  0.42221193  0.82720491  0.84002546  1
  O2-  O456  1  0.61669424  0.07195924  0.19187899  1
  O2-  O457  1  0.67174181  0.08522632  0.51920439  1
  O2-  O458  1  0.66172021  0.09787561  0.82513039  1
  O2-  O459  1  0.66737463  0.34031305  0.12408983  1
  O2-  O460  1  0.67721586  0.34195383  0.51717912  1
  O2-  O461  1  0.67616592  0.32641194  0.85326852  1
  O2-  O462  1  0.68699266  0.58692777  0.19766092  1
  O2-  O463  1  0.69463058  0.63379616  0.53796588  1
  O2-  O464  1  0.67177935  0.58593645  0.84167774  1
  O2-  O465  1  0.67708082  0.83250466  0.13830908  1
  O2-  O466  1  0.62739104  0.81780769  0.52244179  1
  O2-  O467  1  0.68936572  0.83269199  0.85835796  1
  O2-  O468  1  0.93887236  0.09732217  0.19605576  1
  O2-  O469  1  0.91161883  0.06181469  0.51785298  1
  O2-  O470  1  0.90563000  0.08384028  0.82174271  1
  O2-  O471  1  0.91792365  0.34311888  0.18788708  1
  O2-  O472  1  0.91661507  0.35837584  0.52801161  1
  O2-  O473  1  0.93121764  0.33850082  0.82138121  1
  O2-  O474  1  0.91457225  0.57671986  0.18748566  1
  O2-  O475  1  0.93211807  0.59618620  0.52679554  1
  O2-  O476  1  0.92014398  0.58912551  0.85280301  1
  O2-  O477  1  0.96221621  0.88106936  0.19352919  1
  O2-  O478  1  0.92493822  0.83756743  0.52200412  1
  O2-  O479  1  0.92899179  0.84572088  0.84699891  1
  O2-  O480  1  0.16831841  0.07825407  0.31484286  1
  O2-  O481  1  0.16263436  0.07636261  0.64063731  1
  O2-  O482  1  0.18224753  0.09168221  0.95987726  1
  O2-  O483  1  0.16434522  0.33054333  0.32274727  1
  O2-  O484  1  0.15686031  0.31861331  0.63808712  1
  O2-  O485  1  0.17751388  0.33052402  0.98256610  1
  O2-  O486  1  0.16618023  0.57986896  0.31672373  1
  O2-  O487  1  0.16990369  0.58489170  0.65211610  1
  O2-  O488  1  0.15003243  0.56634774  0.97262105  1
  O2-  O489  1  0.17471340  0.83969830  0.30705018  1
  O2-  O490  1  0.16416938  0.83080332  0.64464600  1
  O2-  O491  1  0.17747596  0.83932334  0.97478225  1
  O2-  O492  1  0.42100857  0.08659798  0.30623770  1
  O2-  O493  1  0.41408672  0.08099648  0.64704907  1
  O2-  O494  1  0.43046106  0.08798023  0.96811236  1
  O2-  O495  1  0.40907821  0.32726698  0.31661050  1
  O2-  O496  1  0.40918099  0.32785117  0.65923601  1
  O2-  O497  1  0.42021029  0.34161777  0.97615079  1
  O2-  O498  1  0.41500885  0.57454406  0.31037328  1
  O2-  O499  1  0.40786777  0.62294445  0.65339658  1
  O2-  O500  1  0.41738013  0.58793410  0.98625836  1
  O2-  O501  1  0.41325713  0.82626780  0.31236982  1
  O2-  O502  1  0.42041240  0.83361427  0.64315387  1
  O2-  O503  1  0.44297368  0.86506606  0.96931563  1
  O2-  O504  1  0.66046138  0.07881426  0.31188719  1
  O2-  O505  1  0.66751980  0.08386240  0.64279925  1
  O2-  O506  1  0.69145390  0.09082653  0.98998875  1
  O2-  O507  1  0.68620669  0.33820961  0.34768392  1
  O2-  O508  1  0.67000055  0.33303844  0.63881335  1
  O2-  O509  1  0.67192919  0.33156381  0.96948124  1
  O2-  O510  1  0.67192099  0.58100463  0.31808644  1
  O2-  O511  1  0.67165451  0.57620859  0.64927966  1
  O2-  O512  1  0.59717419  0.54755253  0.94943558  1
  O2-  O513  1  0.67909051  0.83036226  0.32351110  1
  O2-  O514  1  0.66501643  0.81469937  0.65172351  1
  O2-  O515  1  0.66403304  0.82301621  0.99086911  1
  O2-  O516  1  0.91922838  0.07408933  0.31269816  1
  O2-  O517  1  0.91448129  0.07642828  0.64138206  1
  O2-  O518  1  0.91719045  0.07322864  0.99730048  1
  O2-  O519  1  0.91773357  0.33380610  0.31335569  1
  O2-  O520  1  0.91138612  0.33142403  0.64424242  1
  O2-  O521  1  0.91658644  0.32458716  0.99796464  1
  O2-  O522  1  0.90269364  0.57065860  0.30422825  1
  O2-  O523  1  0.92107155  0.58873005  0.64678070  1
  O2-  O524  1  0.92289969  0.58820900  0.97890411  1
  O2-  O525  1  0.91405934  0.82397983  0.31890357  1
  O2-  O526  1  0.91763786  0.82868337  0.64454959  1
  O2-  O527  1  0.92593620  0.85031451  0.97353510  1
  O2-  O528  1  0.09683016  0.16310146  0.01423235  1
  O2-  O529  1  0.08288708  0.15946178  0.35503153  1
  O2-  O530  1  0.08106632  0.16077106  0.67353630  1
  O2-  O531  1  0.08032076  0.40051212  0.01667793  1
  O2-  O532  1  0.07850158  0.41328039  0.36159098  1
  O2-  O533  1  0.07281283  0.40510547  0.67604116  1
  O2-  O534  1  0.08744153  0.66338761  0.01967872  1
  O2-  O535  1  0.10776768  0.68783275  0.35677183  1
  O2-  O536  1  0.07352296  0.68160574  0.68688639  1
  O2-  O537  1  0.07413349  0.96327837  0.03182333  1
  O2-  O538  1  0.08473128  0.91345215  0.35509801  1
  O2-  O539  1  0.08410120  0.91152251  0.68484374  1
  O2-  O540  1  0.31915885  0.12526021  0.02841412  1
  O2-  O541  1  0.33500086  0.16436308  0.35226300  1
  O2-  O542  1  0.32161654  0.15801081  0.69351138  1
  O2-  O543  1  0.34267554  0.41672114  0.02217227  1
  O2-  O544  1  0.33171154  0.41485530  0.36151412  1
  O2-  O545  1  0.40379002  0.48125861  0.70289429  1
  O2-  O546  1  0.30604345  0.63890566  0.03128328  1
  O2-  O547  1  0.33481846  0.65928909  0.34997236  1
  O2-  O548  1  0.35591433  0.66182128  0.66955142  1
  O2-  O549  1  0.34600236  0.92624652  0.01679693  1
  O2-  O550  1  0.33644271  0.91815545  0.35231481  1
  O2-  O551  1  0.33307747  0.91340951  0.68540011  1
  O2-  O552  1  0.59247990  0.17003319  0.01387324  1
  O2-  O553  1  0.57935500  0.16053442  0.35441157  1
  O2-  O554  1  0.58223207  0.16577169  0.68089416  1
  O2-  O555  1  0.57312976  0.40490265  0.00854183  1
  O2-  O556  1  0.58607616  0.41616768  0.35411871  1
  O2-  O557  1  0.58053989  0.40965065  0.67801828  1
  O2-  O558  1  0.57739112  0.67434597  0.02279989  1
  O2-  O559  1  0.57695410  0.65316813  0.35318828  1
  O2-  O560  1  0.57456060  0.63392340  0.69791975  1
  O2-  O561  1  0.59931829  0.92107861  0.02081956  1
  O2-  O562  1  0.58238970  0.91232403  0.35007755  1
  O2-  O563  1  0.59201804  0.91177840  0.67165135  1
  O2-  O564  1  0.84221335  0.16281336  0.04169162  1
  O2-  O565  1  0.83238807  0.15866820  0.34641947  1
  O2-  O566  1  0.82942984  0.16299378  0.68719148  1
  O2-  O567  1  0.83492846  0.42007260  0.01711163  1
  O2-  O568  1  0.84941887  0.42970221  0.35580343  1
  O2-  O569  1  0.82909019  0.42026870  0.68609906  1
  O2-  O570  1  0.92184257  0.72115118  0.04159554  1
  O2-  O571  1  0.83566122  0.65493297  0.35192809  1
  O2-  O572  1  0.83688116  0.66599343  0.68869154  1
  O2-  O573  1  0.82802486  0.90721896  0.02427438  1
  O2-  O574  1  0.84498385  0.91470269  0.35758558  1
  O2-  O575  1  0.83481848  0.91108100  0.68749448  1
