# generated using pymatgen
data_H2O
_symmetry_space_group_name_H-M   'P 1'
_cell_length_a   17.98440136
_cell_length_b   17.99284761
_cell_length_c   22.00904312
_cell_angle_alpha   89.99755659
_cell_angle_beta   89.99973847
_cell_angle_gamma   120.00556660
_symmetry_Int_Tables_number   1
_chemical_formula_structural   H2O
_chemical_formula_sum   'H384 O192'
_cell_volume   6167.41704901
_cell_formula_units_Z   192
loop_
 _symmetry_equiv_pos_site_id
 _symmetry_equiv_pos_as_xyz
  1  'x, y, z'
loop_
 _atom_type_symbol
 _atom_type_oxidation_number
  H+  1.0
  O2-  -2.0
loop_
 _atom_site_type_symbol
 _atom_site_label
 _atom_site_symmetry_multiplicity
 _atom_site_fract_x
 _atom_site_fract_y
 _atom_site_fract_z
 _atom_site_occupancy
  H+  H0  1  0.42538037  0.83903830  0.88737756  1
  H+  H1  1  0.24026033  0.82555621  0.46518696  1
  H+  H2  1  0.52213638  0.37765256  0.34431254  1
  H+  H3  1  0.57576535  0.91900976  0.10169311  1
  H+  H4  1  0.88377715  1.03237241  0.17493918  1
  H+  H5  1  0.39404605  0.11773552  0.17423698  1
  H+  H6  1  0.51739751  0.88734399  0.16244327  1
  H+  H7  1  0.21827664  0.61562503  1.00058800  1
  H+  H8  1  0.71060942  0.63481507  0.52760931  1
  H+  H9  1  0.98120196  0.37126469  0.65932771  1
  H+  H10  1  0.47030574  0.11283367  0.99355124  1
  H+  H11  1  0.15552757  0.88200792  -0.00762572  1
  H+  H12  1  0.37178305  0.73055228  0.81688385  1
  H+  H13  1  0.27926570  0.12764858  0.49090627  1
  H+  H14  1  0.02884669  0.13825538  0.01378229  1
  H+  H15  1  0.61296518  0.88979970  0.00869484  1
  H+  H16  1  0.13246565  0.55171526  0.50496397  1
  H+  H17  1  0.77664155  0.88749599  0.33745633  1
  H+  H18  1  0.86823549  0.23384166  0.34251641  1
  H+  H19  1  0.12274833  0.14612032  0.01439442  1
  H+  H20  1  0.33069453  0.83644961  0.46995690  1
  H+  H21  1  0.62854515  0.02105313  0.17592579  1
  H+  H22  1  0.97283502  0.12125604  0.17597143  1
  H+  H23  1  0.38501503  0.10358599  0.84041820  1
  H+  H24  1  0.36278816  0.96800377  0.81826463  1
  H+  H25  1  0.60369257  0.46170811  0.84422292  1
  H+  H26  1  0.89467002  0.37483330  0.64803514  1
  H+  H27  1  0.13841741  1.00361810  0.01416196  1
  H+  H28  1  0.62891918  0.35364013  0.33723202  1
  H+  H29  1  0.91734147  0.84310442  0.58983222  1
  H+  H30  1  0.58107374  0.86022736  0.49808494  1
  H+  H31  1  0.03192027  0.15411575  0.83906422  1
  H+  H32  1  0.02218491  0.13990748  0.34447203  1
  H+  H33  1  0.49731247  0.60501030  0.83112246  1
  H+  H34  1  0.13493543  0.28229643  0.84891364  1
  H+  H35  1  0.52226004  0.13031265  0.33916610  1
  H+  H36  1  0.36402386  0.22273480  0.49469423  1
  H+  H37  1  0.88413961  0.86899353  0.64950478  1
  H+  H38  1  0.42596793  0.60598441  0.56053996  1
  H+  H39  1  0.95121451  0.79889802  0.97796820  1
  H+  H40  1  0.53161212  0.38228954  0.67115185  1
  H+  H41  1  0.36638025  0.60048446  0.18156503  1
  H+  H42  1  0.26731594  0.37878896  0.67872668  1
  H+  H43  1  0.63167709  0.25764629  0.33529824  1
  H+  H44  1  1.02210986  0.63304021  0.82686271  1
  H+  H45  1  0.66850854  0.58702169  0.61495193  1
  H+  H46  1  0.84143897  0.76946545  0.83032229  1
  H+  H47  1  0.51850154  0.12648432  0.82743850  1
  H+  H48  1  0.63819255  0.87523056  0.17126999  1
  H+  H49  1  0.87649822  0.12071580  0.65634209  1
  H+  H50  1  0.27006517  0.13574420  0.34224596  1
  H+  H51  1  0.61042282  0.13522812  0.17169482  1
  H+  H52  1  0.72927020  0.11467293  0.33031813  1
  H+  H53  1  0.23310223  0.85644421  0.16534648  1
  H+  H54  1  0.60065605  0.75077902  0.46854607  1
  H+  H55  1  0.62355256  0.07795851  0.67375137  1
  H+  H56  1  1.04814473  0.61783855  0.33157321  1
  H+  H57  1  0.72923889  0.86577116  0.00091410  1
  H+  H58  1  0.61533756  0.97918813  0.00437258  1
  H+  H59  1  0.63662152  0.22278987  0.48811596  1
  H+  H60  1  0.22191549  0.36612299  0.32508885  1
  H+  H61  1  0.23590775  0.62003479  0.81780707  1
  H+  H62  1  0.85931358  0.38293357  0.33929218  1
  H+  H63  1  0.25806324  0.88057988  0.33055441  1
  H+  H64  1  0.76852006  0.37101118  0.84885055  1
  H+  H65  1  0.88990327  0.54210439  0.62970323  1
  H+  H66  1  0.58006157  0.15659604  0.76972049  1
  H+  H67  1  0.39256937  0.54152658  0.50555781  1
  H+  H68  1  0.36641382  0.65814920  0.49183304  1
  H+  H69  1  0.62224698  0.47397794  0.18790294  1
  H+  H70  1  0.36539366  0.63620974  0.66203345  1
  H+  H71  1  1.04051975  0.89304090  0.15939085  1
  H+  H72  1  0.38215292  0.52188373  -0.00877506  1
  H+  H73  1  0.37928679  0.36158123  0.99471330  1
  H+  H74  1  0.49389478  0.86411867  0.32802370  1
  H+  H75  1  0.86565158  0.38447293  0.00550821  1
  H+  H76  1  0.95654137  0.94762671  0.86052713  1
  H+  H77  1  0.86798856  0.53603252  0.47693924  1
  H+  H78  1  0.38310216  0.02388552  0.99275185  1
  H+  H79  1  0.57587581  0.41163450  0.06458484  1
  H+  H80  1  0.88904508  0.25913379  0.83099303  1
  H+  H81  1  0.11226621  0.47555134  0.82031249  1
  H+  H82  1  0.72663528  0.35691041  0.33435581  1
  H+  H83  1  0.11467140  0.38806462  0.82854966  1
  H+  H84  1  0.60633929  0.63607509  1.00306633  1
  H+  H85  1  0.39122015  0.36521339  0.34166155  1
  H+  H86  1  0.73544742  0.11414460  0.99264645  1
  H+  H87  1  0.64723422  0.77000249  0.31767688  1
  H+  H88  1  0.11832076  0.48563928  0.67010693  1
  H+  H89  1  0.79728343  0.91247821  0.82876755  1
  H+  H90  1  0.36883056  0.89387673  1.00181603  1
  H+  H91  1  0.61574861  0.46384272  0.34518293  1
  H+  H92  1  0.46029727  0.62088522  0.16653232  1
  H+  H93  1  0.37354280  0.01539085  0.66200704  1
  H+  H94  1  0.38295994  0.77722515  0.18673348  1
  H+  H95  1  0.62399634  0.27024800  0.16658182  1
  H+  H96  1  0.67758509  0.81402491  0.84028247  1
  H+  H97  1  0.86690129  0.14404425  0.34137376  1
  H+  H98  1  0.12499261  0.54934291  0.33656472  1
  H+  H99  1  0.10594375  0.10343367  0.67204128  1
  H+  H100  1  0.40486885  0.78817766  0.65712190  1
  H+  H101  1  0.91572633  0.61398932  0.32128139  1
  H+  H102  1  0.50964030  0.93936010  0.68579929  1
  H+  H103  1  0.82073225  0.28188968  0.21955814  1
  H+  H104  1  0.38201124  0.35587454  0.84009345  1
  H+  H105  1  0.14311672  0.37609776  0.65266407  1
  H+  H106  1  0.92012036  0.09916776  0.59959250  1
  H+  H107  1  0.11669684  0.40585964  0.33918601  1
  H+  H108  1  0.62369463  0.46667677  0.67535011  1
  H+  H109  1  1.02764527  0.40132569  0.49514573  1
  H+  H110  1  0.14733948  0.68356936  0.49230920  1
  H+  H111  1  0.89404603  0.02410399  0.99751648  1
  H+  H112  1  0.15795804  0.25194236  0.50809392  1
  H+  H113  1  0.66219426  0.03765431  0.53015532  1
  H+  H114  1  0.37090504  0.47724951  0.16164573  1
  H+  H115  1  0.67916116  0.85068988  0.93915491  1
  H+  H116  1  0.73186243  0.36033649  0.99464169  1
  H+  H117  1  0.11448196  0.72639597  0.14507033  1
  H+  H118  1  0.11359825  0.01456087  0.18007911  1
  H+  H119  1  0.89299953  0.12261352  0.84223923  1
  H+  H120  1  0.88467391  0.27391951  -0.00096742  1
  H+  H121  1  0.64431037  0.94970779  0.62677638  1
  H+  H122  1  0.16494887  0.33139660  0.26608592  1
  H+  H123  1  0.10683961  0.72425879  0.66446850  1
  H+  H124  1  0.08778575  0.42032110  0.72694412  1
  H+  H125  1  0.60445878  0.36684004  0.84345571  1
  H+  H126  1  0.08709583  0.16585335  0.10343774  1
  H+  H127  1  0.72519866  0.56142690  0.18473672  1
  H+  H128  1  0.97688685  0.61977642  1.01853279  1
  H+  H129  1  0.86949471  0.73213035  0.65753986  1
  H+  H130  1  0.62938517  0.61595597  0.15506569  1
  H+  H131  1  0.31315967  0.66893586  0.12743587  1
  H+  H132  1  0.12343856  0.22854498  0.16401762  1
  H+  H133  1  0.12813292  0.06944343  0.24626576  1
  H+  H134  1  0.39664453  0.12192465  0.50847450  1
  H+  H135  1  0.84652478  0.59843793  0.83400730  1
  H+  H136  1  0.97263293  0.36187101  1.00399969  1
  H+  H137  1  0.77970462  0.14389776  0.82665634  1
  H+  H138  1  0.11356194  0.64745791  0.05071672  1
  H+  H139  1  0.36823806  0.89014939  0.16264612  1
  H+  H140  1  0.29504588  0.38941157  0.49821990  1
  H+  H141  1  0.01156648  0.87725237  0.66790422  1
  H+  H142  1  0.37801605  0.60718359  0.83384914  1
  H+  H143  1  0.18254069  0.59490898  0.87751664  1
  H+  H144  1  0.88946971  0.35287136  0.84827341  1
  H+  H145  1  0.86688877  0.89576146  0.35836557  1
  H+  H146  1  0.00583567  0.16529661  0.68834128  1
  H+  H147  1  0.59345699  0.59369864  0.17758557  1
  H+  H148  1  0.44791905  0.07119369  0.50799816  1
  H+  H149  1  0.65855042  0.89147560  0.84073059  1
  H+  H150  1  0.40020582  0.78299793  0.32562511  1
  H+  H151  1  0.90986770  0.82135352  0.22433265  1
  H+  H152  1  0.11231699  0.38585507  1.01536156  1
  H+  H153  1  0.53183039  0.63482474  0.33091730  1
  H+  H154  1  0.98445436  0.37733393  0.33247770  1
  H+  H155  1  0.58833912  0.74318201  0.14711497  1
  H+  H156  1  0.88653223  0.63892993  0.64782922  1
  H+  H157  1  0.27250300  0.39202238  1.01100409  1
  H+  H158  1  0.77915459  0.39927789  0.66112192  1
  H+  H159  1  0.64736931  0.11593882  0.99425745  1
  H+  H160  1  0.85722769  0.13625743  0.16089057  1
  H+  H161  1  0.09721301  0.25110922  0.68628685  1
  H+  H162  1  0.90644604  0.12714956  0.50389981  1
  H+  H163  1  0.92453211  0.08723519  0.93977943  1
  H+  H164  1  0.82774113  0.68497195  0.16015764  1
  H+  H165  1  0.12840482  -0.05378672  0.49707714  1
  H+  H166  1  -0.02244628  0.60592872  0.16217955  1
  H+  H167  1  0.26302013  0.87481320  0.66233587  1
  H+  H168  1  0.39277546  0.62190838  0.32173359  1
  H+  H169  1  0.71934961  0.10782820  0.17367155  1
  H+  H170  1  0.38382283  0.35312999  0.66799721  1
  H+  H171  1  0.23766299  0.35843430  0.17228310  1
  H+  H172  1  0.41628317  0.07389733  0.89762435  1
  H+  H173  1  0.33198805  0.16543492  0.40059179  1
  H+  H174  1  0.53801891  0.89162420  0.82675578  1
  H+  H175  1  0.63226623  0.51903531  1.00054184  1
  H+  H176  1  0.73540367  0.60856819  0.33501970  1
  H+  H177  1  0.05005483  0.91410161  0.01633267  1
  H+  H178  1  0.38460656  0.11351036  0.33135182  1
  H+  H179  1  0.60414031  0.15777059  0.43209930  1
  H+  H180  1  0.83332503  0.89335256  0.49657363  1
  H+  H181  1  0.25091561  0.62749769  0.18178048  1
  H+  H182  1  0.14703393  0.35789485  0.17131096  1
  H+  H183  1  0.32284620  0.40195669  0.77461938  1
  H+  H184  1  0.40213235  0.27426778  0.66992812  1
  H+  H185  1  0.15531644  0.76044053  0.31669677  1
  H+  H186  1  0.34063615  0.91896288  0.10067491  1
  H+  H187  1  0.83768330  0.64391899  0.49096065  1
  H+  H188  1  0.40012214  0.14099716  0.68505639  1
  H+  H189  1  0.13657901  0.27716658  1.00166726  1
  H+  H190  1  0.13784516  0.76986444  0.83474129  1
  H+  H191  1  0.64274884  0.27231765  1.00104776  1
  H+  H192  1  0.86783881  0.88625187  1.01422425  1
  H+  H193  1  0.27309600  0.65277963  0.33708638  1
  H+  H194  1  0.02398657  0.36915465  0.16911993  1
  H+  H195  1  0.27064008  0.13150882  0.82786128  1
  H+  H196  1  0.38032977  0.26426581  0.84295986  1
  H+  H197  1  0.91115519  0.27728725  0.50439616  1
  H+  H198  1  0.23038720  0.85650391  0.83260364  1
  H+  H199  1  0.11265097  0.22787884  0.34258691  1
  H+  H200  1  0.35825325  0.46349639  0.68411403  1
  H+  H201  1  0.85849069  0.46953589  0.15445058  1
  H+  H202  1  0.86422141  0.98816064  0.66085216  1
  H+  H203  1  1.10066789  0.11175406  0.17735757  1
  H+  H204  1  0.86296640  0.23789132  0.67581140  1
  H+  H205  1  0.36428908  0.49471037  0.33855610  1
  H+  H206  1  0.23307159  0.08635432  0.65583165  1
  H+  H207  1  0.64320776  0.11536768  0.83940072  1
  H+  H208  1  0.35816194  0.63087428  0.98470955  1
  H+  H209  1  0.36859578  0.14504448  1.00473449  1
  H+  H210  1  0.53802990  0.06904855  0.04255202  1
  H+  H211  1  0.02803740  0.91998185  0.85304713  1
  H+  H212  1  0.70945214  0.58009813  0.84152021  1
  H+  H213  1  0.62484479  0.98441712  0.83170003  1
  H+  H214  1  0.64128059  0.34992968  0.50469161  1
  H+  H215  1  0.72370860  0.83502359  0.64208438  1
  H+  H216  1  0.86645852  0.13469272  1.00692054  1
  H+  H217  1  0.76819226  0.15705861  0.67926971  1
  H+  H218  1  0.88883084  0.78576715  0.83509547  1
  H+  H219  1  0.65401549  0.92081109  0.64565280  1
  H+  H220  1  0.12184076  0.59919725  0.16399830  1
  H+  H221  1  0.10728829  0.04125394  0.87042965  1
  H+  H222  1  0.75270747  0.62036842  0.00754182  1
  H+  H223  1  0.10937867  0.47348907  0.02433902  1
  H+  H224  1  0.35045445  0.67948942  0.03998120  1
  H+  H225  1  0.89159777  0.72837486  0.36413958  1
  H+  H226  1  0.63180150  0.26416923  0.84340220  1
  H+  H227  1  0.39617549  0.86405386  0.82601130  1
  H+  H228  1  0.09339739  0.15599756  0.43853742  1
  H+  H229  1  0.12345281  0.85150914  0.65683924  1
  H+  H230  1  0.35549615  0.46615679  0.83118295  1
  H+  H231  1  0.22783288  0.63086801  0.50676185  1
  H+  H232  1  0.62887581  -0.02831174  0.34736401  1
  H+  H233  1  0.24352163  0.13445654  1.00174812  1
  H+  H234  1  0.65019741  0.60034174  0.68181107  1
  H+  H235  1  0.66781022  0.07698429  0.27190375  1
  H+  H236  1  0.14592368  0.97489967  0.80638170  1
  H+  H237  1  0.17223121  0.59548002  0.60045760  1
  H+  H238  1  0.62079308  0.38918641  1.01044342  1
  H+  H239  1  0.88666150  0.02848294  0.33154041  1
  H+  H240  1  0.67402664  0.11745927  0.61092600  1
  H+  H241  1  0.93258652  0.85512549  0.41991695  1
  H+  H242  1  0.58608888  0.68780607  0.84078546  1
  H+  H243  1  0.33426757  0.67680504  0.39404441  1
  H+  H244  1  0.61122742  0.69745821  0.67829217  1
  H+  H245  1  0.37036001  0.23764802  0.00638397  1
  H+  H246  1  0.53019262  0.36885460  0.50081742  1
  H+  H247  1  -0.01393516  0.36086306  0.83285947  1
  H+  H248  1  0.14036692  0.61876627  0.66053393  1
  H+  H249  1  0.89526839  0.51571996  0.86200837  1
  H+  H250  1  0.27933376  0.89309007  1.00464677  1
  H+  H251  1  0.11124353  0.63628999  0.81445551  1
  H+  H252  1  0.65869222  0.12193077  0.50950168  1
  H+  H253  1  0.70855190  0.36320835  0.15814033  1
  H+  H254  1  0.44708075  0.30412801  0.15753268  1
  H+  H255  1  0.82961221  0.16030116  0.06466394  1
  H+  H256  1  -0.01791857  0.62645113  0.64611008  1
  H+  H257  1  0.79214439  0.14547507  0.49927306  1
  H+  H258  1  0.12324466  0.10864270  0.33658100  1
  H+  H259  1  0.14107287  0.13357007  0.84476787  1
  H+  H260  1  0.77891573  0.40095536  0.49442384  1
  H+  H261  1  0.90338849  0.04023964  0.83983171  1
  H+  H262  1  0.61026167  0.72751768  -0.00221703  1
  H+  H263  1  0.85911811  0.47057195  0.33246914  1
  H+  H264  1  0.09119698  0.09599362  0.63952918  1
  H+  H265  1  0.14973131  0.33175453  0.49467880  1
  H+  H266  1  0.88562254  0.78214949  0.50257430  1
  H+  H267  1  0.12639617  0.88041997  0.82208306  1
  H+  H268  1  0.98547598  0.85813532  0.50099895  1
  H+  H269  1  0.15436039  -0.00858555  0.65173249  1
  H+  H270  1  0.62592029  0.63910861  0.52765283  1
  H+  H271  1  0.86546447  0.47533877  0.00653807  1
  H+  H272  1  0.12483118  0.51283043  0.17478697  1
  H+  H273  1  0.59091721  0.36613015  0.15789869  1
  H+  H274  1  0.65003083  0.78482976  0.59344408  1
  H+  H275  1  0.88584162  0.59820277  0.17024435  1
  H+  H276  1  0.13019399  0.43827130  0.49664950  1
  H+  H277  1  0.10418570  0.78907597  0.49468204  1
  H+  H278  1  0.38527875  0.27485419  0.33615694  1
  H+  H279  1  0.76983197  0.89802877  0.15979683  1
  H+  H280  1  0.83667589  0.71040401  0.02079141  1
  H+  H281  1  0.84881858  0.22031506  0.15551092  1
  H+  H282  1  0.88655807  0.61316309  0.00481137  1
  H+  H283  1  0.48623978  0.59149544  0.66193585  1
  H+  H284  1  0.57373255  0.15053633  0.08259731  1
  H+  H285  1  0.14223954  0.98852300  0.37420227  1
  H+  H286  1  0.14404959  0.82780503  0.59334473  1
  H+  H287  1  0.43812461  0.51910859  0.61332535  1
  H+  H288  1  0.82708870  0.64504163  0.78037102  1
  H+  H289  1  0.36244537  0.18680933  0.09501789  1
  H+  H290  1  0.40179044  0.57502681  0.89652233  1
  H+  H291  1  0.17663492  0.84386957  0.93348437  1
  H+  H292  1  0.60908854  0.89895798  0.39903040  1
  H+  H293  1  0.84135235  0.17153012  0.43473918  1
  H+  H294  1  0.46048368  0.22596267  0.72336526  1
  H+  H295  1  0.41460679  0.08438137  0.60758714  1
  H+  H296  1  0.47111254  0.61280918  -0.01478930  1
  H+  H297  1  0.34620620  0.16579335  0.77566911  1
  H+  H298  1  0.35626611  0.88195153  0.66193530  1
  H+  H299  1  0.17286781  0.33326184  0.59992127  1
  H+  H300  1  0.38408355  0.02301783  0.17522883  1
  H+  H301  1  0.07078070  0.89910951  0.72893849  1
  H+  H302  1  0.80575962  0.63038442  0.09977499  1
  H+  H303  1  0.91662596  0.08881404  0.27225108  1
  H+  H304  1  0.67291642  0.54437099  0.25251662  1
  H+  H305  1  0.67748534  0.09100806  0.89931031  1
  H+  H306  1  0.96197371  0.88052281  0.94411441  1
  H+  H307  1  0.22470316  0.36837861  0.84910710  1
  H+  H308  1  0.86026605  0.45964777  0.69975536  1
  H+  H309  1  0.40179883  0.36318829  0.51455912  1
  H+  H310  1  0.93526627  0.33463251  0.56491366  1
  H+  H311  1  0.45693850  0.85211208  0.60315037  1
  H+  H312  1  0.41806272  0.58599249  0.26306569  1
  H+  H313  1  0.83240107  0.42521953  0.43351716  1
  H+  H314  1  0.65116943  0.21736802  0.64685084  1
  H+  H315  1  0.85902611  0.35462843  0.17125155  1
  H+  H316  1  0.10694538  0.93529508  0.10383500  1
  H+  H317  1  0.67011051  0.83814147  0.22616996  1
  H+  H318  1  0.78304394  0.63566833  0.66585607  1
  H+  H319  1  0.34400366  0.67085221  0.75689292  1
  H+  H320  1  0.50410256  0.91167613  0.51769225  1
  H+  H321  1  0.27993039  0.64158117  0.66558442  1
  H+  H322  1  0.32978711  0.90889308  0.75792168  1
  H+  H323  1  0.92371285  0.34356199  0.27356745  1
  H+  H324  1  0.43125721  0.80288653  0.51181124  1
  H+  H325  1  0.08075460  0.19204774  0.77706903  1
  H+  H326  1  0.83625079  0.17343455  0.76394873  1
  H+  H327  1  0.39079969  0.40055643  0.15599001  1
  H+  H328  1  0.58913913  0.66835520  0.39075004  1
  H+  H329  1  0.81774297  0.93041856  0.43669798  1
  H+  H330  1  0.48019473  0.86783189  0.98569071  1
  H+  H331  1  0.64108738  0.35700075  0.68197427  1
  H+  H332  1  0.14318246  0.08336439  0.50647931  1
  H+  H333  1  0.08895829  0.43683324  0.39953931  1
  H+  H334  1  0.12758357  0.58698125  0.96949573  1
  H+  H335  1  0.33902275  0.42263093  0.06689758  1
  H+  H336  1  0.99204026  0.89518556  0.36289419  1
  H+  H337  1  0.61228987  0.12873214  0.33517459  1
  H+  H338  1  0.64590767  0.60966803  0.32788813  1
  H+  H339  1  0.36136046  0.42808423  0.44416380  1
  H+  H340  1  0.07180324  0.66462099  0.72456713  1
  H+  H341  1  0.79098730  0.67759971  0.44841162  1
  H+  H342  1  0.32010196  0.18576663  0.15847376  1
  H+  H343  1  0.12595725  0.69939467  0.42556285  1
  H+  H344  1  0.64746869  0.85930028  0.32165084  1
  H+  H345  1  0.17523328  0.81924156  0.25783572  1
  H+  H346  1  0.55445248  0.68271282  0.08828568  1
  H+  H347  1  0.18499361  0.05278425  0.55961600  1
  H+  H348  1  0.57554225  0.96476257  0.73928426  1
  H+  H349  1  0.83685890  0.92114507  0.06999422  1
  H+  H350  1  0.41131173  0.07961074  0.27261201  1
  H+  H351  1  0.40808294  0.32964760  0.93612140  1
  H+  H352  1  0.35089091  0.98129842  0.34221115  1
  H+  H353  1  0.03710510  0.12895555  0.49854565  1
  H+  H354  1  0.93416109  0.57664924  0.26142104  1
  H+  H355  1  0.85355210  0.87535275  0.80341167  1
  H+  H356  1  0.83014103  0.40515505  0.79344760  1
  H+  H357  1  0.07782437  0.40255620  0.10763388  1
  H+  H358  1  0.94600749  0.62834243  0.49921184  1
  H+  H359  1  0.29344595  0.45869500  0.38853079  1
  H+  H360  1  0.68299274  0.89002253  0.48389235  1
  H+  H361  1  0.89271118  0.03390169  0.50863500  1
  H+  H362  1  0.83960464  0.93045137  0.71947545  1
  H+  H363  1  0.52338808  0.65740672  0.48126096  1
  H+  H364  1  0.14693530  0.86022131  0.16945552  1
  H+  H365  1  0.31309246  0.90173178  0.40091482  1
  H+  H366  1  0.65981873  0.31914366  0.90634162  1
  H+  H367  1  0.41940180  0.32303999  0.57326091  1
  H+  H368  1  0.86186089  0.90288288  0.16505740  1
  H+  H369  1  0.96841092  0.91942188  0.23275204  1
  H+  H370  1  0.65905652  0.57440777  0.93927431  1
  H+  H371  1  0.92935498  0.58739951  0.91334083  1
  H+  H372  1  0.51883205  0.13257982  0.17194346  1
  H+  H373  1  0.87866559  0.64707478  0.40195616  1
  H+  H374  1  0.62058354  0.58472543  0.84374326  1
  H+  H375  1  0.16363308  0.33769852  0.94214679  1
  H+  H376  1  0.18240523  0.10802928  0.94233270  1
  H+  H377  1  0.82707788  0.41144246  0.09379949  1
  H+  H378  1  0.50623188  0.36600326  0.84118231  1
  H+  H379  1  0.57318555  0.64385013  0.74124904  1
  H+  H380  1  0.58501434  0.39791394  0.44030866  1
  H+  H381  1  0.66904611  0.31001492  0.55957696  1
  H+  H382  1  0.42701516  0.84516142  0.23998792  1
  H+  H383  1  0.39073833  0.78039917  0.97642168  1
  O2-  O384  1  0.08557826  0.16642864  0.15012232  1
  O2-  O385  1  0.09745039  0.15197357  0.48342732  1
  O2-  O386  1  0.09115342  0.18512865  0.82193237  1
  O2-  O387  1  0.08262056  0.40129994  0.15360251  1
  O2-  O388  1  0.08728903  0.44739516  0.47641779  1
  O2-  O389  1  0.08094015  0.41352449  0.80934250  1
  O2-  O390  1  0.07829208  0.66437325  0.13061152  1
  O2-  O391  1  0.13865768  0.72465285  0.46670194  1
  O2-  O392  1  0.07774799  0.66503030  0.80451274  1
  O2-  O393  1  0.10210844  0.92922611  0.14985465  1
  O2-  O394  1  0.08936522  0.88761223  0.47888454  1
  O2-  O395  1  0.09924120  0.91515914  0.80622008  1
  O2-  O396  1  0.37390378  0.19516892  0.14090584  1
  O2-  O397  1  0.33842874  0.16531264  0.47438546  1
  O2-  O398  1  0.33318592  0.16043690  0.82065821  1
  O2-  O399  1  0.34723271  0.41695779  0.14598471  1
  O2-  O400  1  0.35671344  0.42994572  0.48876095  1
  O2-  O401  1  0.32621772  0.40391443  0.82022239  1
  O2-  O402  1  0.31503450  0.66143357  0.17101127  1
  O2-  O403  1  0.32992545  0.67888818  0.47190002  1
  O2-  O404  1  0.33913162  0.66925788  0.80242243  1
  O2-  O405  1  0.33714692  0.91925333  0.14603698  1
  O2-  O406  1  0.30155388  0.87041380  0.46089671  1
  O2-  O407  1  0.33293168  0.90755874  0.80355771  1
  O2-  O408  1  0.57907701  0.16407885  0.15515470  1
  O2-  O409  1  0.61245947  0.16100639  0.47648845  1
  O2-  O410  1  0.58080774  0.16022796  0.81402251  1
  O2-  O411  1  0.56329760  0.40632139  0.14827510  1
  O2-  O412  1  0.58962692  0.39620757  0.48485815  1
  O2-  O413  1  0.57205294  0.39772187  0.83093264  1
  O2-  O414  1  0.53695734  0.69569741  0.12767748  1
  O2-  O415  1  0.58381102  0.68855227  0.46695991  1
  O2-  O416  1  0.56121940  0.63262642  0.82021518  1
  O2-  O417  1  0.57823956  0.92059047  0.14691501  1
  O2-  O418  1  0.50275456  0.85976742  0.53217727  1
  O2-  O419  1  0.60043223  0.92463368  0.81561023  1
  O2-  O420  1  0.82262358  0.15969604  0.14168070  1
  O2-  O421  1  0.85001604  0.17274233  0.47969471  1
  O2-  O422  1  0.84051800  0.17355708  0.81045363  1
  O2-  O423  1  0.82144143  0.40947217  0.13951619  1
  O2-  O424  1  0.83617494  0.44231258  0.47648242  1
  O2-  O425  1  0.83153348  0.40081803  0.83755101  1
  O2-  O426  1  0.80911921  0.62702209  0.14577631  1
  O2-  O427  1  0.80834934  0.68002643  0.49082240  1
  O2-  O428  1  0.79975199  0.59954385  0.81055993  1
  O2-  O429  1  0.83253385  0.93105654  0.14615947  1
  O2-  O430  1  0.81245714  0.93112818  0.48202044  1
  O2-  O431  1  0.85457818  0.92989640  0.80920919  1
  O2-  O432  1  0.10486833  0.05911274  0.20310708  1
  O2-  O433  1  0.17676152  0.05420232  0.51422111  1
  O2-  O434  1  0.16171963  0.09511167  0.86248369  1
  O2-  O435  1  0.17661440  0.32677264  0.18646585  1
  O2-  O436  1  0.18580800  0.31564866  0.51779748  1
  O2-  O437  1  0.16412176  0.34382784  0.86379521  1
  O2-  O438  1  0.15044662  0.57364629  0.18705589  1
  O2-  O439  1  0.16927912  0.60898686  0.52423244  1
  O2-  O440  1  0.17447586  0.58871206  0.83362902  1
  O2-  O441  1  0.17111769  0.82252447  0.17843409  1
  O2-  O442  1  0.09031927  0.82566760  0.52167698  1
  O2-  O443  1  0.17035511  0.83060345  0.84913099  1
  O2-  O444  1  0.41560108  0.08193450  0.19353713  1
  O2-  O445  1  0.42929180  0.10249112  0.53391587  1
  O2-  O446  1  0.41723109  0.07384676  0.85210171  1
  O2-  O447  1  0.47511173  0.36472717  0.17304448  1
  O2-  O448  1  0.42065049  0.32267864  0.52769333  1
  O2-  O449  1  0.41361556  0.32633730  0.85535287  1
  O2-  O450  1  0.40591189  0.57747141  0.18848946  1
  O2-  O451  1  0.41864748  0.60352021  0.51599002  1
  O2-  O452  1  0.40207101  0.57176026  0.85073647  1
  O2-  O453  1  0.41840435  0.83987606  0.19370908  1
  O2-  O454  1  0.35732857  0.76355354  0.49890915  1
  O2-  O455  1  0.42798952  0.83560535  0.84209706  1
  O2-  O456  1  0.66123368  0.08110101  0.19277460  1
  O2-  O457  1  0.69197582  0.09973635  0.53529776  1
  O2-  O458  1  0.67907817  0.09075830  0.85365571  1
  O2-  O459  1  0.64775361  0.33332612  0.17183405  1
  O2-  O460  1  0.67848185  0.32379751  0.51573485  1
  O2-  O461  1  0.66144108  0.32382771  0.86051228  1
  O2-  O462  1  0.67866737  0.51815239  0.21237610  1
  O2-  O463  1  0.65386454  0.61059568  0.54767589  1
  O2-  O464  1  0.65079413  0.55576858  0.86104987  1
  O2-  O465  1  0.67064071  0.84483018  0.18094688  1
  O2-  O466  1  0.62366907  0.85638548  0.46889002  1
  O2-  O467  1  0.69860574  0.87060473  0.85815744  1
  O2-  O468  1  0.91353848  0.09219698  0.19214830  1
  O2-  O469  1  0.93297290  0.09417255  0.52159896  1
  O2-  O470  1  0.92458737  0.09558117  0.86060648  1
  O2-  O471  1  0.87304863  0.31474435  0.19565959  1
  O2-  O472  1  0.94475252  0.33694887  0.52037501  1
  O2-  O473  1  0.92442701  0.32307759  0.84931050  1
  O2-  O474  1  0.92068854  0.57222725  0.18291646  1
  O2-  O475  1  0.89435815  0.60274802  0.47422861  1
  O2-  O476  1  0.92420819  0.57851724  0.86836594  1
  O2-  O477  1  0.93897499  0.87523298  0.20177816  1
  O2-  O478  1  0.92502295  0.84568003  0.50674439  1
  O2-  O479  1  1.00133821  0.94263286  0.88272351  1
  O2-  O480  1  0.15183968  0.07642812  0.31786281  1
  O2-  O481  1  0.20453965  0.03678170  0.62920301  1
  O2-  O482  1  0.18151122  0.10478931  0.98755048  1
  O2-  O483  1  0.16137661  0.33407096  0.31128785  1
  O2-  O484  1  0.17237910  0.34220123  0.64422268  1
  O2-  O485  1  0.16522647  0.33807641  0.98774490  1
  O2-  O486  1  0.15506411  0.61044752  0.32275526  1
  O2-  O487  1  0.17328932  0.59106977  0.64598759  1
  O2-  O488  1  0.15475707  0.58654639  1.00770754  1
  O2-  O489  1  0.17570571  0.81993954  0.30315642  1
  O2-  O490  1  0.15398711  0.82379722  0.63711551  1
  O2-  O491  1  0.18233184  0.84872820  0.97817950  1
  O2-  O492  1  0.41262348  0.07990639  0.31810852  1
  O2-  O493  1  0.40972264  0.07749701  0.65285905  1
  O2-  O494  1  0.41215556  0.08411764  0.97550167  1
  O2-  O495  1  0.42173567  0.33701704  0.32639410  1
  O2-  O496  1  0.41927556  0.33058246  0.64990006  1
  O2-  O497  1  0.40577302  0.32749546  0.98098911  1
  O2-  O498  1  0.42153955  0.58919936  0.30901456  1
  O2-  O499  1  0.43008175  0.55942471  0.63833959  1
  O2-  O500  1  0.40948146  0.58039521  0.97126773  1
  O2-  O501  1  0.43568076  0.84271946  0.31103734  1
  O2-  O502  1  0.43023295  0.84849135  0.64398396  1
  O2-  O503  1  0.42215170  0.84218739  0.96607812  1
  O2-  O504  1  0.66800288  0.07861220  0.31733566  1
  O2-  O505  1  0.66962950  0.13240312  0.65400761  1
  O2-  O506  1  0.67455514  0.08519655  0.97609939  1
  O2-  O507  1  0.66210606  0.32251867  0.32371877  1
  O2-  O508  1  0.68025303  0.33005146  0.68161539  1
  O2-  O509  1  0.66947416  0.32819229  0.98098385  1
  O2-  O510  1  0.67658902  0.57670172  0.31826009  1
  O2-  O511  1  0.68288825  0.57883400  0.65825772  1
  O2-  O512  1  0.66060213  0.58075090  0.98432482  1
  O2-  O513  1  0.67880889  0.83097276  0.30376986  1
  O2-  O514  1  0.66580356  0.78536450  0.63575830  1
  O2-  O515  1  0.67015583  0.83937173  0.98340987  1
  O2-  O516  1  0.91934241  0.08971520  0.31753929  1
  O2-  O517  1  0.91104324  0.09360586  0.64464419  1
  O2-  O518  1  0.92558265  0.08571986  0.98506028  1
  O2-  O519  1  0.92297808  0.34200317  0.31838853  1
  O2-  O520  1  0.92072099  0.33785953  0.64413835  1
  O2-  O521  1  0.91364684  0.33539565  0.98722492  1
  O2-  O522  1  0.93748900  0.57636039  0.30681104  1
  O2-  O523  1  0.92438468  0.60624443  0.62496192  1
  O2-  O524  1  0.92436939  0.58996324  0.99304628  1
  O2-  O525  1  0.93327569  0.85131253  0.37494930  1
  O2-  O526  1  0.91113439  0.83507700  0.63470739  1
  O2-  O527  1  0.94526082  0.84939746  0.98429483  1
  O2-  O528  1  0.08809780  0.17129536  0.03151255  1
  O2-  O529  1  0.08367069  0.16766386  0.35824849  1
  O2-  O530  1  0.05224240  0.20944985  0.71395518  1
  O2-  O531  1  0.07923424  0.41146899  0.03433414  1
  O2-  O532  1  0.08715260  0.43646413  0.35396470  1
  O2-  O533  1  0.08749309  0.42338998  0.68185762  1
  O2-  O534  1  0.07753641  0.67221753  0.06383130  1
  O2-  O535  1  0.10711888  0.64905336  0.35013515  1
  O2-  O536  1  0.07403461  0.66283353  0.67921923  1
  O2-  O537  1  0.11060202  0.94315322  0.03022482  1
  O2-  O538  1  0.10200430  0.98821349  0.34373980  1
  O2-  O539  1  0.07090742  0.89877727  0.68382350  1
  O2-  O540  1  0.34265356  0.17646673  0.02478018  1
  O2-  O541  1  0.33097955  0.16552006  0.35449154  1
  O2-  O542  1  0.40062522  0.19213938  0.71051695  1
  O2-  O543  1  0.33484931  0.42413375  0.02165047  1
  O2-  O544  1  0.32530303  0.44019074  0.36269439  1
  O2-  O545  1  0.32565140  0.40321642  0.69816234  1
  O2-  O546  1  0.33036755  0.66571386  -0.00181037  1
  O2-  O547  1  0.33298591  0.67117935  0.34884107  1
  O2-  O548  1  0.34138761  0.66958801  0.67957737  1
  O2-  O549  1  0.34077673  0.92388940  0.02063532  1
  O2-  O550  1  0.31627127  0.91850690  0.35378878  1
  O2-  O551  1  0.32146335  0.90526789  0.68052233  1
  O2-  O552  1  0.56636185  0.13139400  0.03815420  1
  O2-  O553  1  0.58469691  0.16227812  0.35004458  1
  O2-  O554  1  0.63766247  0.26341036  0.63480147  1
  O2-  O555  1  0.59736648  0.42619185  0.02268361  1
  O2-  O556  1  0.58485825  0.40235205  0.35643899  1
  O2-  O557  1  0.59002658  0.40581314  0.68841185  1
  O2-  O558  1  0.57357058  0.66654765  0.01053246  1
  O2-  O559  1  0.59243027  0.66175542  0.34559118  1
  O2-  O560  1  0.57779061  0.63872141  0.69665029  1
  O2-  O561  1  0.58055538  0.91937405  0.02026866  1
  O2-  O562  1  0.60181336  0.90903377  0.35547021  1
  O2-  O563  1  0.55174887  0.98904460  0.71038601  1
  O2-  O564  1  0.83274563  0.16265921  0.01917306  1
  O2-  O565  1  0.83508094  0.17289064  0.35621438  1
  O2-  O566  1  0.82947120  0.17768772  0.69174113  1
  O2-  O567  1  0.83157084  0.41385576  0.01825475  1
  O2-  O568  1  0.82455167  0.41104715  0.34886756  1
  O2-  O569  1  0.84363467  0.44083037  0.65797889  1
  O2-  O570  1  0.81371657  0.64892321  0.02669032  1
  O2-  O571  1  0.85973514  0.66474020  0.36483904  1
  O2-  O572  1  0.84863100  0.67153354  0.67192105  1
  O2-  O573  1  0.83732723  0.91728238  0.02438559  1
  O2-  O574  1  0.83249660  0.92521970  0.35908266  1
  O2-  O575  1  0.83745106  0.92650861  0.67486286  1
