# generated using pymatgen
data_H2O
_symmetry_space_group_name_H-M   'P 1'
_cell_length_a   17.99476694
_cell_length_b   17.99175406
_cell_length_c   22.00725181
_cell_angle_alpha   90.01657847
_cell_angle_beta   89.97545999
_cell_angle_gamma   119.99363947
_symmetry_Int_Tables_number   1
_chemical_formula_structural   H2O
_chemical_formula_sum   'H384 O192'
_cell_volume   6170.83546222
_cell_formula_units_Z   192
loop_
 _symmetry_equiv_pos_site_id
 _symmetry_equiv_pos_as_xyz
  1  'x, y, z'
loop_
 _atom_type_symbol
 _atom_type_oxidation_number
  H+  1.0
  O2-  -2.0
loop_
 _atom_site_type_symbol
 _atom_site_label
 _atom_site_symmetry_multiplicity
 _atom_site_fract_x
 _atom_site_fract_y
 _atom_site_fract_z
 _atom_site_occupancy
  H+  H0  1  0.27300199  0.63539139  0.49009957  1
  H+  H1  1  0.13723159  0.36071268  0.18772613  1
  H+  H2  1  0.58099502  0.75419338  -0.01060356  1
  H+  H3  1  0.67850084  0.87847695  0.66377022  1
  H+  H4  1  0.11443421  0.46431835  1.01887052  1
  H+  H5  1  0.64657677  0.29076644  0.15539280  1
  H+  H6  1  0.59979501  0.71283126  0.81037066  1
  H+  H7  1  0.89290848  0.03099506  0.65155851  1
  H+  H8  1  0.10963925  0.39683427  0.33903508  1
  H+  H9  1  0.92675400  0.55207924  0.92622735  1
  H+  H10  1  0.27873046  0.90750857  0.15489465  1
  H+  H11  1  0.66282640  0.61877900  0.34473928  1
  H+  H12  1  0.12552315  0.78214767  0.66266563  1
  H+  H13  1  0.12135426  0.63549800  0.33304698  1
  H+  H14  1  0.09643590  0.13219731  -0.03581539  1
  H+  H15  1  0.11337129  0.22328053  0.83381282  1
  H+  H16  1  0.65123106  0.87459794  0.29982520  1
  H+  H17  1  0.04051218  0.51339239  0.97592629  1
  H+  H18  1  0.58776817  0.16932390  0.40431160  1
  H+  H19  1  0.37193582  0.88645973  0.34428514  1
  H+  H20  1  0.12464176  0.73198902  0.48833458  1
  H+  H21  1  0.12097998  0.85317761  0.82973538  1
  H+  H22  1  0.61501984  0.73839483  0.15001362  1
  H+  H23  1  0.22995392  0.60512018  0.17103916  1
  H+  H24  1  0.14534452  0.98948314  0.48383120  1
  H+  H25  1  0.38447200  0.01382555  0.65672118  1
  H+  H26  1  0.63018261  0.01193613  0.83921447  1
  H+  H27  1  0.47327081  0.11226910  0.50616848  1
  H+  H28  1  0.25757261  0.12599672  0.50591605  1
  H+  H29  1  0.38785587  0.51674574  0.82460588  1
  H+  H30  1  0.61281494  0.73398104  0.49589462  1
  H+  H31  1  0.39671060  0.04926123  0.15531688  1
  H+  H32  1  0.10895758  0.13260045  0.83147919  1
  H+  H33  1  0.61868673  0.36707730  0.65968766  1
  H+  H34  1  0.72669879  0.61211771  0.65520740  1
  H+  H35  1  0.39259937  0.27939672  0.17863255  1
  H+  H36  1  0.58302906  0.91474940  0.66108319  1
  H+  H37  1  0.04028889  0.93340963  0.02625806  1
  H+  H38  1  0.69088343  0.79156382  0.86960483  1
  H+  H39  1  0.12565586  0.38195978  1.01377588  1
  H+  H40  1  0.91985712  0.87033416  0.00440657  1
  H+  H41  1  0.36946932  0.14906251  0.16150895  1
  H+  H42  1  0.17329142  0.58606998  0.66288129  1
  H+  H43  1  0.59174369  0.87491178  0.37734097  1
  H+  H44  1  0.26500791  0.57677260  0.70665715  1
  H+  H45  1  0.27258186  0.64425930  1.01500616  1
  H+  H46  1  0.32369174  0.64499702  0.75515391  1
  H+  H47  1  0.75735411  0.36738646  0.49892503  1
  H+  H48  1  0.90508705  0.03788715  0.16955314  1
  H+  H49  1  0.79384671  0.20600578  0.82630193  1
  H+  H50  1  0.89246372  0.12008277  0.17582509  1
  H+  H51  1  0.75770770  0.13428756  0.34777749  1
  H+  H52  1  0.28878668  0.40433935  0.49570380  1
  H+  H53  1  0.76515350  0.41237717  0.67349241  1
  H+  H54  1  0.13975012  0.76590289  0.32709100  1
  H+  H55  1  0.14110723  0.11517125  0.66261233  1
  H+  H56  1  0.17330747  0.34539646  0.25360098  1
  H+  H57  1  0.24785290  0.37405033  0.67832018  1
  H+  H58  1  0.05905214  0.57583637  0.86818653  1
  H+  H59  1  1.01459742  0.87426651  0.16577052  1
  H+  H60  1  0.46169568  0.34772983  0.33277653  1
  H+  H61  1  0.63311149  0.26427071  0.32059511  1
  H+  H62  1  0.68482977  0.30435406  -0.01173728  1
  H+  H63  1  0.37484091  0.62786367  0.83378785  1
  H+  H64  1  0.26792369  0.88012157  0.81727727  1
  H+  H65  1  0.47556433  0.11403192  0.34352350  1
  H+  H66  1  0.62325897  0.61704714  0.50758612  1
  H+  H67  1  0.46227064  0.89611981  0.68754130  1
  H+  H68  1  0.86655601  0.89161617  0.49089009  1
  H+  H69  1  0.39218849  0.78002619  0.33292346  1
  H+  H70  1  0.02464625  0.37731175  0.16472570  1
  H+  H71  1  0.62806872  0.28162706  0.66457302  1
  H+  H72  1  0.58895239  0.63754376  -0.00251531  1
  H+  H73  1  0.13684992  0.85359619  0.32649578  1
  H+  H74  1  0.85951437  0.72818925  0.15786004  1
  H+  H75  1  0.32604552  0.81432314  0.65493158  1
  H+  H76  1  0.62584283  0.60393691  0.83161152  1
  H+  H77  1  0.35342383  0.87853417  0.00079371  1
  H+  H78  1  0.13651131  0.52778484  0.32376691  1
  H+  H79  1  0.62917631  0.64256341  0.66239468  1
  H+  H80  1  0.51301773  0.38865638  0.66396098  1
  H+  H81  1  0.28073284  0.88370606  0.34337950  1
  H+  H82  1  0.15107063  0.37059682  0.85005449  1
  H+  H83  1  0.84984182  0.71247264  0.99703911  1
  H+  H84  1  0.77613095  0.89079476  0.00551640  1
  H+  H85  1  0.48921342  0.61247228  0.66944666  1
  H+  H86  1  0.99218863  0.63065779  0.51725234  1
  H+  H87  1  0.11073670  0.89201333  0.67270177  1
  H+  H88  1  0.72648602  0.87155219  0.50612481  1
  H+  H89  1  0.60819076  0.64685645  0.12831291  1
  H+  H90  1  0.01981020  0.14855515  0.33530644  1
  H+  H91  1  0.08958451  0.40224160  0.10867105  1
  H+  H92  1  0.62078417  0.99919004  0.35450063  1
  H+  H93  1  0.71679529  0.22153179  0.03024904  1
  H+  H94  1  0.02199632  0.65010922  0.16191767  1
  H+  H95  1  0.89282125  0.36907778  0.16433642  1
  H+  H96  1  0.36456633  0.71807011  0.15903099  1
  H+  H97  1  0.90700467  0.44680569  0.83993028  1
  H+  H98  1  0.68370150  0.48144055  0.46496861  1
  H+  H99  1  0.59999808  0.37271491  0.33144990  1
  H+  H100  1  0.07836755  0.91856194  0.27711280  1
  H+  H101  1  0.14716864  0.12043674  0.50854264  1
  H+  H102  1  0.89772020  0.53665796  0.16426838  1
  H+  H103  1  0.76939561  0.15226487  0.49602807  1
  H+  H104  1  0.23144137  0.35570800  1.00034068  1
  H+  H105  1  -0.00949801  0.42997330  0.66550425  1
  H+  H106  1  0.66594600  0.84471890  0.99228218  1
  H+  H107  1  0.61187336  0.88038965  0.81974879  1
  H+  H108  1  0.48165005  0.86916161  0.34478327  1
  H+  H109  1  0.64872509  0.12909029  0.66986940  1
  H+  H110  1  0.78680490  0.40825249  0.15147406  1
  H+  H111  1  0.74777788  0.39451908  0.33585649  1
  H+  H112  1  0.83953071  0.39386287  0.66800884  1
  H+  H113  1  0.36205179  0.13269309  0.82690735  1
  H+  H114  1  0.60478686  0.46380684  0.34086038  1
  H+  H115  1  0.16297330  0.42545428  0.69336024  1
  H+  H116  1  0.71847967  0.09754574  0.85220204  1
  H+  H117  1  0.23307754  0.13259247  0.19279404  1
  H+  H118  1  0.01590768  0.87973977  0.83089740  1
  H+  H119  1  0.27318872  0.38253887  0.17109782  1
  H+  H120  1  0.10834693  0.14733200  0.34030126  1
  H+  H121  1  0.60963445  0.52234332  0.50968323  1
  H+  H122  1  0.87509428  0.03760940  0.33414358  1
  H+  H123  1  0.38066884  0.26782587  0.65474470  1
  H+  H124  1  0.34592045  0.12141996  0.97150124  1
  H+  H125  1  0.48654991  0.84847918  0.18204275  1
  H+  H126  1  0.10984980  0.90242898  0.00964059  1
  H+  H127  1  0.38636875  0.76988270  0.83753663  1
  H+  H128  1  0.36181982  0.72391330  0.48928472  1
  H+  H129  1  0.12611678  0.24819593  0.19503187  1
  H+  H130  1  0.23650254  0.86214911  0.50922406  1
  H+  H131  1  0.17377329  0.34713883  0.62844652  1
  H+  H132  1  0.22454004  0.11008358  0.34817292  1
  H+  H133  1  0.12002870  0.35987490  0.48127382  1
  H+  H134  1  0.41482267  0.07781711  0.60004276  1
  H+  H135  1  0.39743519  0.37781340  0.99502454  1
  H+  H136  1  0.82423216  0.18291759  0.43508265  1
  H+  H137  1  0.34640953  0.25505924  0.01671954  1
  H+  H138  1  0.10856963  0.96789927  0.83023410  1
  H+  H139  1  0.29112843  0.63192049  0.85659704  1
  H+  H140  1  0.12050686  0.21417678  0.48329426  1
  H+  H141  1  0.27287390  0.12933357  0.67399203  1
  H+  H142  1  0.48146308  0.14214247  0.14423009  1
  H+  H143  1  0.41000294  0.63905699  0.31482510  1
  H+  H144  1  0.88181187  0.36951286  0.50460533  1
  H+  H145  1  0.37653543  0.47320397  0.67966461  1
  H+  H146  1  0.23352357  0.36049926  0.84117539  1
  H+  H147  1  0.85201518  0.14842088  0.34196797  1
  H+  H148  1  0.14276486  0.65643659  0.84945785  1
  H+  H149  1  0.63834949  0.73799050  0.66437186  1
  H+  H150  1  0.62354502  0.52989766  0.99362588  1
  H+  H151  1  0.49395408  0.10736352  0.98322066  1
  H+  H152  1  0.65087064  0.09956735  0.20353153  1
  H+  H153  1  0.52345741  0.39588975  0.16670613  1
  H+  H154  1  0.12290259  0.23039404  0.68594171  1
  H+  H155  1  0.38824280  1.02345251  0.34399928  1
  H+  H156  1  0.60698241  0.16617415  0.13962976  1
  H+  H157  1  0.75521917  0.40669510  0.98314321  1
  H+  H158  1  0.88626478  0.23329658  0.90327336  1
  H+  H159  1  0.61055318  0.47337028  0.83687257  1
  H+  H160  1  0.36794437  0.88643492  0.49719016  1
  H+  H161  1  0.61767510  0.37405566  0.83922727  1
  H+  H162  1  0.65336071  0.00964744  0.67700926  1
  H+  H163  1  0.35707619  0.88031108  0.81882580  1
  H+  H164  1  0.88637964  0.86287087  0.84382947  1
  H+  H165  1  0.77427300  0.89152470  0.31922637  1
  H+  H166  1  0.87543270  0.93408408  0.30806243  1
  H+  H167  1  0.33350241  0.41168677  0.07364804  1
  H+  H168  1  0.36165683  0.12701183  0.35563778  1
  H+  H169  1  0.32380809  0.90642472  0.72446230  1
  H+  H170  1  1.03628880  0.12457426  0.50132474  1
  H+  H171  1  0.72489417  0.84011305  0.16255684  1
  H+  H172  1  0.97624230  0.41146618  0.69701916  1
  H+  H173  1  0.36871937  0.76032589  0.99500837  1
  H+  H174  1  0.87562798  0.63040745  0.33277443  1
  H+  H175  1  0.27660550  0.89990487  -0.00249043  1
  H+  H176  1  0.82509363  0.66932540  0.73050037  1
  H+  H177  1  0.85232120  0.58825762  0.00447125  1
  H+  H178  1  0.78163894  0.62153171  0.34585987  1
  H+  H179  1  0.38702471  0.26693805  0.83924034  1
  H+  H180  1  0.35599105  0.21487891  0.35049844  1
  H+  H181  1  0.42943612  0.58731172  0.97838486  1
  H+  H182  1  0.60236037  0.22098262  0.50193128  1
  H+  H183  1  0.01555172  0.65586914  0.69180197  1
  H+  H184  1  0.88113328  0.12541297  0.83705967  1
  H+  H185  1  0.71471892  0.61496976  -0.00467771  1
  H+  H186  1  0.74111935  0.10845842  0.18807695  1
  H+  H187  1  0.33796156  0.73119030  0.66386589  1
  H+  H188  1  0.60710465  0.13552811  0.83021017  1
  H+  H189  1  -0.02627211  0.86109501  0.65889894  1
  H+  H190  1  0.39740631  0.60270661  0.68405504  1
  H+  H191  1  0.76776381  0.63645782  0.82377051  1
  H+  H192  1  0.89436411  0.62494740  0.16784455  1
  H+  H193  1  0.87736546  0.28072746  0.31830848  1
  H+  H194  1  0.23046354  0.37541161  0.34149351  1
  H+  H195  1  0.03124093  0.14827203  0.18968259  1
  H+  H196  1  0.27613105  0.64206316  0.33466151  1
  H+  H197  1  0.85160217  0.26900874  0.65686501  1
  H+  H198  1  1.00435525  0.87172346  0.32372458  1
  H+  H199  1  0.61077133  0.89318320  0.50912545  1
  H+  H200  1  0.00441872  0.64128609  0.02241773  1
  H+  H201  1  0.36418364  0.37964445  0.82629404  1
  H+  H202  1  0.65750503  0.05265445  0.29070201  1
  H+  H203  1  0.77671019  0.47705447  0.37513193  1
  H+  H204  1  0.85822209  0.72889256  0.67010420  1
  H+  H205  1  0.07076811  0.42364240  0.39412001  1
  H+  H206  1  0.95840829  0.08753556  0.97137236  1
  H+  H207  1  0.93115379  -0.03261444  0.99878465  1
  H+  H208  1  0.42682039  0.07150606  0.89144800  1
  H+  H209  1  0.12868042  0.14823051  0.19534207  1
  H+  H210  1  0.63189237  0.87867388  0.15622546  1
  H+  H211  1  0.88493996  0.86757061  0.17143988  1
  H+  H212  1  0.90430222  0.31290972  0.82528329  1
  H+  H213  1  0.55226788  0.66469067  0.05397640  1
  H+  H214  1  0.12766648  0.49856833  0.84540282  1
  H+  H215  1  0.32295490  0.08460113  -0.00683701  1
  H+  H216  1  0.96567305  0.11733499  0.83538578  1
  H+  H217  1  0.95986507  0.79366180  0.97326054  1
  H+  H218  1  0.64853474  0.73677246  0.33959928  1
  H+  H219  1  0.52256135  0.13394103  0.67459116  1
  H+  H220  1  0.36185257  0.12888851  0.67313040  1
  H+  H221  1  0.60437332  0.13301346  0.50131083  1
  H+  H222  1  0.90086896  0.79344410  0.49856731  1
  H+  H223  1  0.38235594  0.01799163  0.83118769  1
  H+  H224  1  0.21821358  0.13577281  0.99411919  1
  H+  H225  1  0.63511297  0.11369950  0.99506117  1
  H+  H226  1  0.87216015  0.14853826  0.68707779  1
  H+  H227  1  0.89087431  0.53736320  0.67013554  1
  H+  H228  1  0.12499337  0.78078793  0.99078879  1
  H+  H229  1  0.38020983  0.28483097  0.50714198  1
  H+  H230  1  0.63229117  0.02676996  0.52006888  1
  H+  H231  1  0.51903607  0.37921927  0.83522481  1
  H+  H232  1  0.62762046  0.27264400  0.84100636  1
  H+  H233  1  0.86236486  -0.01854414  0.82420471  1
  H+  H234  1  0.63889863  0.52598549  0.18511919  1
  H+  H235  1  0.57193917  0.87716257  0.01329452  1
  H+  H236  1  -0.02048812  0.12054408  0.66537875  1
  H+  H237  1  0.77495713  0.89589494  0.82307372  1
  H+  H238  1  0.47887466  0.36131335  0.99311928  1
  H+  H239  1  0.76597450  0.84458310  1.00733292  1
  H+  H240  1  0.46326045  0.85604785  0.69582094  1
  H+  H241  1  0.64896881  0.37825416  0.17266632  1
  H+  H242  1  0.13154456  0.02591670  0.33898191  1
  H+  H243  1  0.86386000  0.22945681  0.16706333  1
  H+  H244  1  0.59425495  0.97954717  0.01637451  1
  H+  H245  1  0.37232120  0.60682656  0.15825384  1
  H+  H246  1  0.64405093  0.61345814  0.20659787  1
  H+  H247  1  0.14604859  0.03679435  0.99541977  1
  H+  H248  1  0.09621826  0.21881723  -0.02584494  1
  H+  H249  1  0.89280809  0.66530668  0.50009311  1
  H+  H250  1  0.07933594  0.91630380  0.73408689  1
  H+  H251  1  0.52357372  0.64297627  0.48701636  1
  H+  H252  1  0.60364305  0.47658093  0.66537346  1
  H+  H253  1  0.46219924  0.60761123  0.15825361  1
  H+  H254  1  0.88907101  0.62557051  0.66982052  1
  H+  H255  1  0.47776314  0.60409756  0.81370095  1
  H+  H256  1  0.38466953  1.02127857  0.50558462  1
  H+  H257  1  0.35813220  0.47435516  0.16139028  1
  H+  H258  1  0.89058241  0.87032399  0.64680649  1
  H+  H259  1  0.26115384  0.88355645  0.66681849  1
  H+  H260  1  0.58623165  0.42754512  0.10827944  1
  H+  H261  1  0.39460419  0.61233087  0.49611009  1
  H+  H262  1  0.13485732  0.02304122  0.66241399  1
  H+  H263  1  0.41568357  0.01104771  0.98086094  1
  H+  H264  1  0.13892164  0.61755683  0.49730935  1
  H+  H265  1  0.90038182  0.03009594  0.50823906  1
  H+  H266  1  0.13010529  0.85998674  0.17950326  1
  H+  H267  1  1.01226307  0.39185884  0.49079459  1
  H+  H268  1  0.13649438  0.28962667  0.33194198  1
  H+  H269  1  0.35258812  0.60014252  1.00144223  1
  H+  H270  1  0.47151320  0.86054209  0.83155128  1
  H+  H271  1  0.88664943  0.52372620  0.31813227  1
  H+  H272  1  0.34304021  0.37109835  0.35209878  1
  H+  H273  1  0.12005730  0.74926720  0.16666372  1
  H+  H274  1  0.40310619  0.33032727  0.59342673  1
  H+  H275  1  -0.00243637  0.39678531  0.82781363  1
  H+  H276  1  0.34780673  0.47111210  0.01341959  1
  H+  H277  1  0.03084537  0.63382818  0.33398729  1
  H+  H278  1  0.75302847  0.12696031  1.02086442  1
  H+  H279  1  0.37990260  0.37725942  0.50712525  1
  H+  H280  1  0.08790111  0.63594401  0.01350216  1
  H+  H281  1  0.74314154  0.13734225  0.67306053  1
  H+  H282  1  0.96878636  0.36655049  0.31746931  1
  H+  H283  1  0.10564972  0.47804616  0.48894509  1
  H+  H284  1  0.77666560  0.63664390  0.16552409  1
  H+  H285  1  0.36192493  0.12990885  0.49946689  1
  H+  H286  1  0.84325741  0.20730124  0.00627298  1
  H+  H287  1  0.61151906  0.12790239  0.34905320  1
  H+  H288  1  0.15953518  0.83396528  0.59829625  1
  H+  H289  1  0.12996024  0.45354180  0.78501351  1
  H+  H290  1  0.33305038  0.66709371  0.39505063  1
  H+  H291  1  0.86499932  -0.06172059  0.59415947  1
  H+  H292  1  0.36479212  0.37587806  0.67025561  1
  H+  H293  1  0.88439839  0.28262498  0.50437993  1
  H+  H294  1  0.58406886  0.91988208  0.08513136  1
  H+  H295  1  0.67775960  0.57492071  0.28578949  1
  H+  H296  1  0.09264640  0.45439196  0.69430706  1
  H+  H297  1  0.92067522  0.84583946  0.55965151  1
  H+  H298  1  0.60326714  0.41730100  0.42546204  1
  H+  H299  1  0.08779772  0.16438815  0.74014863  1
  H+  H300  1  0.39065587  0.36767480  0.17982469  1
  H+  H301  1  0.17630595  0.10168814  0.25500060  1
  H+  H302  1  0.83396448  0.92190452  0.43294608  1
  H+  H303  1  0.41467893  0.32866135  0.89864504  1
  H+  H304  1  0.93122193  0.09131696  0.56724211  1
  H+  H305  1  0.90306243  0.93785062  0.08580322  1
  H+  H306  1  0.39848154  0.52514485  0.49797084  1
  H+  H307  1  0.62592765  0.37784231  0.00429656  1
  H+  H308  1  0.59336823  0.66574879  0.74647594  1
  H+  H309  1  0.09032610  0.67066553  0.42901856  1
  H+  H310  1  0.59891135  0.92416904  0.76129386  1
  H+  H311  1  0.65284004  0.58411670  0.89720227  1
  H+  H312  1  0.42617806  0.60289903  0.25541632  1
  H+  H313  1  0.09529543  0.11808097  0.07516793  1
  H+  H314  1  0.47359399  0.85962105  0.51976474  1
  H+  H315  1  0.80978266  0.40403459  0.43737892  1
  H+  H316  1  0.42859925  0.82558276  0.24068240  1
  H+  H317  1  0.86495395  0.68196730  0.43488579  1
  H+  H318  1  0.33197208  0.93207695  0.09358229  1
  H+  H319  1  0.81796301  0.93427495  0.10728054  1
  H+  H320  1  0.67516655  0.34241396  0.89625570  1
  H+  H321  1  0.88633828  0.03588199  0.92630846  1
  H+  H322  1  0.15278756  0.83134346  0.92849665  1
  H+  H323  1  0.32987350  0.41363319  0.41387207  1
  H+  H324  1  0.32154847  0.18167242  0.11429773  1
  H+  H325  1  0.08337220  0.68523646  0.10033971  1
  H+  H326  1  0.81466573  0.65724572  0.06196529  1
  H+  H327  1  0.22138181  0.67978709  0.63519505  1
  H+  H328  1  0.17868528  0.08667722  0.57082210  1
  H+  H329  1  0.95871215  0.29863333  0.94900216  1
  H+  H330  1  0.33506099  0.16401714  0.76697776  1
  H+  H331  1  0.66251513  0.58363639  0.59617595  1
  H+  H332  1  0.12169898  0.57837350  0.94029819  1
  H+  H333  1  0.10771476  0.66441282  0.68778622  1
  H+  H334  1  0.15378748  0.86859141  0.49993257  1
  H+  H335  1  0.55204313  0.32045870  0.04852300  1
  H+  H336  1  0.57907076  0.16790827  0.73527761  1
  H+  H337  1  0.92588256  0.58450801  0.25876545  1
  H+  H338  1  0.39364320  0.82007107  0.93395877  1
  H+  H339  1  0.62753051  0.81319008  0.90300227  1
  H+  H340  1  0.17157746  0.58414807  0.26237780  1
  H+  H341  1  0.87414401  0.32214306  0.59463615  1
  H+  H342  1  0.82408091  0.16789583  0.11026863  1
  H+  H343  1  0.85577118  0.72523486  0.82390799  1
  H+  H344  1  0.16855871  0.82962894  0.23599584  1
  H+  H345  1  0.14487905  0.32622562  0.53766918  1
  H+  H346  1  0.63491986  0.35525297  0.50870352  1
  H+  H347  1  0.76798802  0.88134668  0.64293146  1
  H+  H348  1  0.32896722  0.15972014  0.43780856  1
  H+  H349  1  0.14458694  0.51404209  0.17780137  1
  H+  H350  1  0.17876628  0.33599972  0.93799815  1
  H+  H351  1  0.57228024  0.92027824  0.45226232  1
  H+  H352  1  0.62736279  0.69215935  0.40515787  1
  H+  H353  1  0.64131887  0.06116278  0.93787810  1
  H+  H354  1  0.39140348  0.80917162  0.56616459  1
  H+  H355  1  0.90856897  0.81729065  0.89977956  1
  H+  H356  1  0.08245502  0.91542042  0.44030809  1
  H+  H357  1  0.91313949  0.33719095  0.22783565  1
  H+  H358  1  0.67382100  0.83223649  0.24312831  1
  H+  H359  1  0.08632349  0.91833760  0.11425865  1
  H+  H360  1  0.65234068  0.32559884  0.57417779  1
  H+  H361  1  0.33408529  0.40449602  0.76482749  1
  H+  H362  1  0.87463434  0.74758697  0.32669474  1
  H+  H363  1  0.40418462  0.32021600  0.27419729  1
  H+  H364  1  0.22444294  0.10617906  0.83552589  1
  H+  H365  1  0.85042097  0.18765252  0.74746093  1
  H+  H366  1  0.16859578  0.08000949  0.89619072  1
  H+  H367  1  0.10296333  0.73248032  0.77899673  1
  H+  H368  1  0.33399012  0.66812880  0.09187484  1
  H+  H369  1  0.63013565  0.96950357  0.16736389  1
  H+  H370  1  0.67135630  0.09518907  0.57455250  1
  H+  H371  1  0.27174030  0.24757373  0.05687748  1
  H+  H372  1  0.84774298  0.45263716  0.09273000  1
  H+  H373  1  0.90767059  0.08983418  0.27226890  1
  H+  H374  1  0.89631443  0.82468358  0.23355671  1
  H+  H375  1  0.33844419  0.91520594  0.43663303  1
  H+  H376  1  0.66215243  0.32354193  0.25885666  1
  H+  H377  1  0.51735030  0.13333484  0.82659799  1
  H+  H378  1  0.05753518  0.12482955  0.07265499  1
  H+  H379  1  0.67803722  0.84207483  0.56982696  1
  H+  H380  1  0.86008019  0.82794397  0.33518004  1
  H+  H381  1  0.93742303  0.61104248  0.57868976  1
  H+  H382  1  0.16053392  0.59027440  0.55974318  1
  H+  H383  1  0.62677358  0.20955567  0.06653573  1
  O2-  O384  1  0.09473489  0.18100129  0.18166160  1
  O2-  O385  1  0.09779202  0.15153331  0.48498232  1
  O2-  O386  1  0.08154026  0.16491376  0.81546312  1
  O2-  O387  1  0.08672936  0.40246896  0.15446697  1
  O2-  O388  1  0.07181906  0.41900220  0.47175256  1
  O2-  O389  1  0.11424411  0.44234271  0.82867822  1
  O2-  O390  1  0.08458924  0.68510404  0.14675736  1
  O2-  O391  1  0.09346481  0.67095062  0.47432622  1
  O2-  O392  1  0.10897455  0.73531547  0.82478477  1
  O2-  O393  1  0.07714967  0.90312389  0.15814247  1
  O2-  O394  1  0.13899551  0.94085524  0.45890130  1
  O2-  O395  1  0.07703700  0.90724126  0.81491061  1
  O2-  O396  1  0.33225906  0.17864064  0.15802373  1
  O2-  O397  1  0.32878413  0.15945430  0.48534736  1
  O2-  O398  1  0.33342868  0.16503957  0.81263053  1
  O2-  O399  1  0.33120163  0.41026702  0.15210529  1
  O2-  O400  1  0.34715831  0.42700566  0.48041144  1
  O2-  O401  1  0.33200566  0.40736929  0.81053902  1
  O2-  O402  1  0.33065674  0.66049806  0.13943950  1
  O2-  O403  1  0.33216700  0.66428929  0.47309108  1
  O2-  O404  1  0.34038397  0.66058733  0.82958745  1
  O2-  O405  1  0.33636289  0.94351155  0.13796054  1
  O2-  O406  1  0.33847388  0.91798415  0.48252196  1
  O2-  O407  1  0.32823608  0.91192417  0.80284965  1
  O2-  O408  1  0.59342097  0.20512779  0.11823190  1
  O2-  O409  1  0.57292814  0.16106497  0.48373629  1
  O2-  O410  1  0.57986380  0.16802762  0.81507376  1
  O2-  O411  1  0.58562628  0.43138268  0.15295376  1
  O2-  O412  1  0.62595514  0.43224148  0.46803692  1
  O2-  O413  1  0.58250202  0.41036639  0.82520782  1
  O2-  O414  1  0.57460222  0.67545545  0.13037080  1
  O2-  O415  1  0.58794114  0.67716064  0.47571762  1
  O2-  O416  1  0.58282245  0.65627782  0.79286376  1
  O2-  O417  1  0.60118985  0.91349178  0.14555927  1
  O2-  O418  1  0.57612004  0.92135323  0.49934741  1
  O2-  O419  1  0.58533072  0.91364934  0.80601966  1
  O2-  O420  1  0.83476425  0.16670715  0.15516732  1
  O2-  O421  1  0.82854917  0.18574431  0.48008681  1
  O2-  O422  1  0.84683698  0.20398498  0.82828898  1
  O2-  O423  1  0.84795473  0.44107306  0.13786445  1
  O2-  O424  1  0.81603159  0.40125667  0.48146202  1
  O2-  O425  1  0.89161514  0.49351385  0.84807414  1
  O2-  O426  1  0.83278465  0.66707563  0.14425024  1
  O2-  O427  1  0.86702300  0.69607924  0.47815764  1
  O2-  O428  1  0.82532351  0.66700556  0.80545301  1
  O2-  O429  1  0.87132010  0.94176072  0.12423136  1
  O2-  O430  1  0.83336193  0.92191368  0.47738379  1
  O2-  O431  1  0.83609919  0.91822667  0.81754532  1
  O2-  O432  1  0.17362940  0.10666976  0.20983646  1
  O2-  O433  1  0.18346441  0.09021176  0.52494261  1
  O2-  O434  1  0.16408821  0.07476135  0.85074888  1
  O2-  O435  1  0.17025017  0.33438767  0.20663933  1
  O2-  O436  1  0.15099167  0.32851594  0.49386467  1
  O2-  O437  1  0.17490458  0.33292608  0.86027099  1
  O2-  O438  1  0.17232021  0.57469702  0.19099614  1
  O2-  O439  1  0.16522353  0.58420444  0.51545218  1
  O2-  O440  1  0.12231387  0.59767461  0.86481011  1
  O2-  O441  1  0.16410426  0.83022281  0.19028945  1
  O2-  O442  1  0.17418436  0.83279974  0.52111273  1
  O2-  O443  1  0.15824651  0.82628422  0.84203048  1
  O2-  O444  1  0.42675140  0.11138671  0.16707285  1
  O2-  O445  1  0.41153332  0.08193672  0.52123036  1
  O2-  O446  1  0.41384024  0.07769638  0.84763506  1
  O2-  O447  1  0.42516943  0.34085463  0.19358869  1
  O2-  O448  1  0.40595158  0.34063256  0.52719262  1
  O2-  O449  1  0.41815141  0.32846497  0.85339145  1
  O2-  O450  1  0.40241646  0.57392379  0.17254516  1
  O2-  O451  1  0.43093065  0.58887875  0.50971786  1
  O2-  O452  1  0.42076228  0.57925460  0.83403931  1
  O2-  O453  1  0.42716199  0.81465962  0.19627121  1
  O2-  O454  1  0.40896370  0.82586328  0.52347135  1
  O2-  O455  1  0.41119812  0.83249875  0.84554981  1
  O2-  O456  1  0.68183141  0.06820181  0.20532236  1
  O2-  O457  1  0.66206317  0.08972401  0.52988518  1
  O2-  O458  1  0.65622137  0.06980487  0.85938944  1
  O2-  O459  1  0.67977491  0.34652610  0.18047639  1
  O2-  O460  1  0.65268681  0.31675463  0.52842115  1
  O2-  O461  1  0.65765132  0.33488385  0.85215889  1
  O2-  O462  1  0.67673833  0.58363015  0.20526878  1
  O2-  O463  1  0.64600332  0.58063697  0.52504169  1
  O2-  O464  1  0.65318177  0.57429490  0.85281974  1
  O2-  O465  1  0.66641393  0.82136312  0.17521999  1
  O2-  O466  1  0.66807735  0.84270912  0.52458725  1
  O2-  O467  1  0.64936099  0.81019822  0.86138616  1
  O2-  O468  1  0.92340353  0.09123629  0.19338191  1
  O2-  O469  1  0.94257123  0.08784600  0.52349163  1
  O2-  O470  1  0.90316892  0.08518674  0.84373668  1
  O2-  O471  1  0.91598256  0.33388874  0.18132265  1
  O2-  O472  1  0.91715698  0.34397500  0.52003845  1
  O2-  O473  1  0.93593865  0.37765277  0.82529855  1
  O2-  O474  1  0.92828380  0.59749722  0.18167157  1
  O2-  O475  1  0.93483651  0.61328949  0.53372147  1
  O2-  O476  1  0.95902218  0.54988725  0.88978461  1
  O2-  O477  1  0.90415960  0.82893277  0.18850049  1
  O2-  O478  1  0.92151688  0.85338608  0.51481464  1
  O2-  O479  1  0.91616758  0.83042711  0.85442855  1
  O2-  O480  1  0.16524849  0.08815858  0.33132658  1
  O2-  O481  1  0.16912471  0.08331285  0.64594015  1
  O2-  O482  1  0.16795509  0.09108712  0.97143920  1
  O2-  O483  1  0.17010407  0.35219046  0.32100346  1
  O2-  O484  1  0.18136808  0.34967812  0.67222866  1
  O2-  O485  1  0.17217449  0.32981531  0.98319536  1
  O2-  O486  1  0.16979026  0.58845903  0.30870496  1
  O2-  O487  1  0.16341482  0.62630221  0.63917644  1
  O2-  O488  1  0.10021581  0.55772653  0.98252736  1
  O2-  O489  1  0.17083791  0.82765921  0.31232148  1
  O2-  O490  1  0.15965618  0.84059149  0.64355146  1
  O2-  O491  1  0.15365688  0.83923353  0.97306595  1
  O2-  O492  1  0.41307907  0.08570167  0.33503928  1
  O2-  O493  1  0.41554289  0.07595071  0.64551803  1
  O2-  O494  1  0.46317165  0.05824772  0.95646034  1
  O2-  O495  1  0.40091933  0.31363970  0.31916096  1
  O2-  O496  1  0.40526262  0.32803975  0.64110492  1
  O2-  O497  1  0.42033324  0.34139358  0.97708046  1
  O2-  O498  1  0.45276778  0.62820684  0.29481762  1
  O2-  O499  1  0.42638585  0.57213334  0.66921978  1
  O2-  O500  1  0.36707601  0.55503902  0.98373578  1
  O2-  O501  1  0.42476475  0.84228446  0.32105454  1
  O2-  O502  1  0.32267661  0.76280485  0.63435161  1
  O2-  O503  1  0.39087010  0.82145924  0.97839804  1
  O2-  O504  1  0.65371822  0.06141387  0.33439699  1
  O2-  O505  1  0.68349297  0.10285864  0.65577112  1
  O2-  O506  1  0.64082205  0.06245985  0.98322718  1
  O2-  O507  1  0.65642251  0.32380736  0.30407485  1
  O2-  O508  1  0.65321380  0.33895796  0.64559839  1
  O2-  O509  1  0.69537357  0.36106863  0.96998516  1
  O2-  O510  1  0.67554828  0.57167848  0.33070962  1
  O2-  O511  1  0.66503646  0.58319643  0.64228045  1
  O2-  O512  1  0.65265665  0.58918547  0.97949081  1
  O2-  O513  1  0.68139074  0.84374533  0.28999694  1
  O2-  O514  1  0.69735760  0.84231094  0.64314925  1
  O2-  O515  1  0.60690892  0.81797694  0.97694958  1
  O2-  O516  1  0.90685308  0.09624013  0.31721971  1
  O2-  O517  1  0.92037598  0.09711065  0.64995864  1
  O2-  O518  1  0.90039797  0.03426767  0.96944111  1
  O2-  O519  1  0.91072145  0.33778222  0.29860635  1
  O2-  O520  1  0.84110448  0.30938730  0.63320765  1
  O2-  O521  1  0.90585667  0.24375807  0.94675890  1
  O2-  O522  1  0.92708267  0.58333317  0.30418470  1
  O2-  O523  1  0.92724852  0.60096746  0.66024888  1
  O2-  O524  1  0.89240668  0.56394887  0.99832782  1
  O2-  O525  1  0.89454825  0.80919706  0.31200987  1
  O2-  O526  1  0.91520692  0.82980190  0.64145546  1
  O2-  O527  1  0.90491303  0.79190088  0.97124327  1
  O2-  O528  1  0.06091630  0.15951982  -0.04104526  1
  O2-  O529  1  0.08275951  0.18452662  0.33765747  1
  O2-  O530  1  0.09230862  0.16821517  0.69437892  1
  O2-  O531  1  0.09136125  0.40537296  0.03341860  1
  O2-  O532  1  0.07440050  0.42451531  0.34867876  1
  O2-  O533  1  0.15172719  0.47300984  0.70717945  1
  O2-  O534  1  0.06734383  0.67505420  0.02951404  1
  O2-  O535  1  0.09064091  0.66617642  0.34976619  1
  O2-  O536  1  0.07845952  0.69359006  0.70574675  1
  O2-  O537  1  0.09934277  0.94269462  0.03400142  1
  O2-  O538  1  0.06838136  0.90749269  0.32065050  1
  O2-  O539  1  0.08134280  0.92265841  0.68905692  1
  O2-  O540  1  0.29607004  0.21327113  0.04190888  1
  O2-  O541  1  0.32765378  0.15644008  0.37004339  1
  O2-  O542  1  0.33339343  0.16039082  0.68916421  1
  O2-  O543  1  0.33503015  0.41096584  0.02813815  1
  O2-  O544  1  0.31685938  0.40413343  0.36712150  1
  O2-  O545  1  0.33898223  0.40969543  0.69053326  1
  O2-  O546  1  0.33346203  0.66940643  0.02391786  1
  O2-  O547  1  0.33626663  0.67443652  0.34999556  1
  O2-  O548  1  0.31724969  0.63312279  0.71021014  1
  O2-  O549  1  0.33528035  0.92236871  0.01311689  1
  O2-  O550  1  0.33904908  0.91474406  0.36117399  1
  O2-  O551  1  0.32237300  0.90382738  0.67900348  1
  O2-  O552  1  0.65976297  0.21320690  0.01966991  1
  O2-  O553  1  0.58889457  0.16733119  0.35889737  1
  O2-  O554  1  0.58245367  0.16839096  0.69007778  1
  O2-  O555  1  0.57665089  0.37653070  0.02879223  1
  O2-  O556  1  0.57153250  0.40154229  0.35190185  1
  O2-  O557  1  0.57239808  0.41617593  0.68015444  1
  O2-  O558  1  0.55165861  0.66182951  0.00842978  1
  O2-  O559  1  0.66061697  0.70072489  0.36652433  1
  O2-  O560  1  0.60195581  0.67696046  0.67824680  1
  O2-  O561  1  0.56507099  0.92019035  0.03831655  1
  O2-  O562  1  0.56932453  0.91389189  0.38129371  1
  O2-  O563  1  0.63093045  0.94659658  0.68874653  1
  O2-  O564  1  0.79915380  0.17960869  0.03960725  1
  O2-  O565  1  0.81989460  0.17747111  0.35460943  1
  O2-  O566  1  0.84250794  0.17934773  0.70242855  1
  O2-  O567  1  0.84627797  0.47431042  0.01906937  1
  O2-  O568  1  0.79872462  0.44196565  0.35794470  1
  O2-  O569  1  0.82578670  0.43672498  0.68585215  1
  O2-  O570  1  0.80893000  0.64904405  0.01728243  1
  O2-  O571  1  0.84520166  0.65830627  0.35233275  1
  O2-  O572  1  0.82710942  0.66785048  0.68468074  1
  O2-  O573  1  0.94378982  0.93002085  0.02622429  1
  O2-  O574  1  0.83305483  0.92098934  0.34000552  1
  O2-  O575  1  0.85543411  0.93324371  0.63788815  1
