# generated using pymatgen
data_H2O
_symmetry_space_group_name_H-M   'P 1'
_cell_length_a   18.00088011
_cell_length_b   17.99912529
_cell_length_c   22.01732746
_cell_angle_alpha   89.99964403
_cell_angle_beta   90.00441557
_cell_angle_gamma   119.98977563
_symmetry_Int_Tables_number   1
_chemical_formula_structural   H2O
_chemical_formula_sum   'H384 O192'
_cell_volume   6178.52923789
_cell_formula_units_Z   192
loop_
 _symmetry_equiv_pos_site_id
 _symmetry_equiv_pos_as_xyz
  1  'x, y, z'
loop_
 _atom_type_symbol
 _atom_type_oxidation_number
  H+  1.0
  O2-  -2.0
loop_
 _atom_site_type_symbol
 _atom_site_label
 _atom_site_symmetry_multiplicity
 _atom_site_fract_x
 _atom_site_fract_y
 _atom_site_fract_z
 _atom_site_occupancy
  H+  H0  1  0.03735196  0.30486759  0.04872943  1
  H+  H1  1  0.61803176  0.22197329  0.82535729  1
  H+  H2  1  0.40998375  0.07011175  0.58383070  1
  H+  H3  1  0.53269963  0.15391706  0.17327372  1
  H+  H4  1  0.02208232  0.65053972  0.36641743  1
  H+  H5  1  0.53819704  0.66123327  0.33603317  1
  H+  H6  1  0.77790059  0.90193405  0.15950674  1
  H+  H7  1  0.49868618  0.38178485  0.27799031  1
  H+  H8  1  0.54652504  0.38451356  0.49219643  1
  H+  H9  1  0.85819942  0.88823545  0.15790320  1
  H+  H10  1  0.91273047  0.87335422  0.84445541  1
  H+  H11  1  0.61322807  0.12676633  0.52215631  1
  H+  H12  1  0.12205829  0.39772173  0.68868491  1
  H+  H13  1  0.10785621  0.64133051  0.68940266  1
  H+  H14  1  0.87145846  0.22143819  0.16996902  1
  H+  H15  1  0.01556137  0.87551505  0.33657954  1
  H+  H16  1  0.02676470  0.39993316  0.16204379  1
  H+  H17  1  0.04529688  0.93080597  0.73153919  1
  H+  H18  1  0.61526680  0.64540322  0.16004731  1
  H+  H19  1  0.68714144  0.26692334  0.51665271  1
  H+  H20  1  0.87527195  0.35220008  -0.00548505  1
  H+  H21  1  0.38205986  0.85130514  0.51186120  1
  H+  H22  1  0.71486347  0.10926244  0.99874898  1
  H+  H23  1  0.86044947  0.14137641  0.33546191  1
  H+  H24  1  0.65389356  0.54087470  0.33078603  1
  H+  H25  1  0.11722833  0.71512890  0.99332183  1
  H+  H26  1  0.12889358  0.00680542  0.32629973  1
  H+  H27  1  0.82794825  0.05175960  0.27175428  1
  H+  H28  1  0.97002995  0.61931904  0.16170630  1
  H+  H29  1  0.55339599  0.38341703  0.17468051  1
  H+  H30  1  0.25809028  0.41279281  0.67029555  1
  H+  H31  1  0.75150718  0.09981694  0.51411119  1
  H+  H32  1  0.10603218  0.97994455  0.67512738  1
  H+  H33  1  0.10710796  0.24014455  -0.00499667  1
  H+  H34  1  0.15726678  0.07268501  0.26261966  1
  H+  H35  1  0.14218842  0.12229024  0.51003446  1
  H+  H36  1  0.64000152  0.36059205  0.97767586  1
  H+  H37  1  0.10540091  0.86806512  0.49334489  1
  H+  H38  1  0.27257407  0.64589311  0.15196504  1
  H+  H39  1  0.77101675  0.64095412  0.16064082  1
  H+  H40  1  0.12653875  0.24170841  0.49402899  1
  H+  H41  1  0.84703159  0.21417041  0.00934647  1
  H+  H42  1  0.42331257  0.58999527  0.56224883  1
  H+  H43  1  0.12858552  0.26103244  0.66192597  1
  H+  H44  1  0.36606974  0.48600848  0.16109850  1
  H+  H45  1  0.43970315  0.07490379  0.13497277  1
  H+  H46  1  0.14199713  0.61209959  0.98376221  1
  H+  H47  1  0.38659387  0.55319295  0.65959002  1
  H+  H48  1  1.02410295  0.38702733  0.84206028  1
  H+  H49  1  0.73646089  0.86873242  0.32779729  1
  H+  H50  1  0.15597302  0.00762342  0.84441089  1
  H+  H51  1  0.61621026  0.26360269  0.32483952  1
  H+  H52  1  0.63749010  0.27148519  0.99589047  1
  H+  H53  1  0.38733946  0.60670751  0.50115865  1
  H+  H54  1  0.17468224  0.79815660  0.28432019  1
  H+  H55  1  0.61149641  0.73541110  1.00731757  1
  H+  H56  1  0.27016463  0.87821165  0.49876572  1
  H+  H57  1  0.52142862  0.89008167  0.01795850  1
  H+  H58  1  0.63974221  0.38340689  0.19104889  1
  H+  H59  1  0.77748937  0.63601215  0.49243610  1
  H+  H60  1  0.22853868  0.34231456  0.32718531  1
  H+  H61  1  0.86027074  0.97453092  0.33663375  1
  H+  H62  1  0.28185837  0.39333199  1.00588905  1
  H+  H63  1  0.07457739  0.39762195  0.07386197  1
  H+  H64  1  0.67618545  0.59210616  0.59887181  1
  H+  H65  1  0.66573554  0.36922054  0.65871311  1
  H+  H66  1  0.56655183  0.23257025  0.48327291  1
  H+  H67  1  0.48139739  0.63020529  0.16741340  1
  H+  H68  1  0.09572369  0.14870506  -0.00681157  1
  H+  H69  1  0.25575222  0.38233272  0.82578859  1
  H+  H70  1  0.35683233  0.12828212  0.49361697  1
  H+  H71  1  0.40504174  0.31737998  0.25175142  1
  H+  H72  1  0.54070138  0.89913910  0.33768023  1
  H+  H73  1  0.63063191  0.24028298  0.17067665  1
  H+  H74  1  0.95922580  0.34191467  0.99935547  1
  H+  H75  1  0.13473251  0.53606286  0.16434531  1
  H+  H76  1  0.13633968  0.11698203  0.18315525  1
  H+  H77  1  0.48408901  0.14204614  0.48535456  1
  H+  H78  1  0.61097792  0.89779687  0.16490031  1
  H+  H79  1  0.01979167  0.13279909  0.66822529  1
  H+  H80  1  0.45297730  0.44543730  0.87249362  1
  H+  H81  1  0.87076085  0.46368243  0.81899237  1
  H+  H82  1  0.47998460  0.61943890  1.00507011  1
  H+  H83  1  0.34917135  -0.02304599  0.16029495  1
  H+  H84  1  0.92084953  0.59920481  0.60485180  1
  H+  H85  1  0.84930997  -0.01787259  0.99671782  1
  H+  H86  1  0.42438586  0.35000939  0.68976085  1
  H+  H87  1  -0.02620006  0.36286877  0.32862547  1
  H+  H88  1  0.03218567  0.88307868  0.00658723  1
  H+  H89  1  0.13413177  0.77357038  0.51156657  1
  H+  H90  1  0.12312927  0.89427763  0.78104422  1
  H+  H91  1  0.38692100  0.36483291  0.99490985  1
  H+  H92  1  0.33538166  0.42574917  0.10192382  1
  H+  H93  1  0.31837286  0.03494851  0.55342057  1
  H+  H94  1  0.31746565  0.15885634  0.05429126  1
  H+  H95  1  0.62850649  0.40414968  0.34600248  1
  H+  H96  1  0.96534899  0.12233351  0.96593307  1
  H+  H97  1  0.88998430  0.52893912  0.51348781  1
  H+  H98  1  0.75322175  0.36604707  0.65379749  1
  H+  H99  1  0.38990906  0.77575778  0.99204617  1
  H+  H100  1  0.63391263  0.85020658  0.51193822  1
  H+  H101  1  0.02325648  0.39161899  0.50084139  1
  H+  H102  1  0.77843837  0.38598174  0.15018433  1
  H+  H103  1  0.64801541  0.62777266  0.32892481  1
  H+  H104  1  0.87292038  0.97868950  0.85098059  1
  H+  H105  1  0.13305058  0.26649567  0.32569132  1
  H+  H106  1  0.11445394  0.73403265  0.35721584  1
  H+  H107  1  0.96749107  0.69585560  0.94298830  1
  H+  H108  1  0.61847182  0.63828150  0.67376124  1
  H+  H109  1  0.86184595  0.88867696  0.67923247  1
  H+  H110  1  0.85195903  0.10379413  0.84587063  1
  H+  H111  1  0.11641220  0.76847556  0.65798918  1
  H+  H112  1  0.71600083  0.86295899  0.99193163  1
  H+  H113  1  0.65935988  0.53841779  0.66118467  1
  H+  H114  1  0.88853952  1.02507192  0.66683401  1
  H+  H115  1  0.62865855  0.70884392  0.83141290  1
  H+  H116  1  0.76827058  0.87320047  0.49886086  1
  H+  H117  1  0.88003825  0.77416581  0.17411385  1
  H+  H118  1  0.77635477  0.38154617  -0.00113153  1
  H+  H119  1  0.49876443  0.11134662  0.65822663  1
  H+  H120  1  0.87191906  0.60731444  0.31844473  1
  H+  H121  1  0.59472375  0.16560089  0.76496856  1
  H+  H122  1  0.64142418  0.54461001  0.96823522  1
  H+  H123  1  0.10368126  0.64769756  0.15005587  1
  H+  H124  1  0.03863274  0.14915793  0.48964613  1
  H+  H125  1  0.88517167  0.85779758  0.50436132  1
  H+  H126  1  0.12167280  0.24286024  0.15400963  1
  H+  H127  1  0.86979438  0.88998002  0.34040789  1
  H+  H128  1  0.27380979  0.64012433  -0.00017248  1
  H+  H129  1  0.39712092  0.07663093  0.92069078  1
  H+  H130  1  0.63730265  0.38963012  0.49731840  1
  H+  H131  1  0.92028366  0.01835281  0.17996259  1
  H+  H132  1  0.34926196  0.97128602  0.33943184  1
  H+  H133  1  0.48034491  0.10964295  0.82969316  1
  H+  H134  1  0.22621319  0.09719924  0.32824461  1
  H+  H135  1  0.12218026  0.66087631  0.82520889  1
  H+  H136  1  0.64863354  0.52688075  0.50917863  1
  H+  H137  1  0.34411095  0.41379405  0.67888919  1
  H+  H138  1  0.40747985  0.81101087  0.32945762  1
  H+  H139  1  0.10806756  0.31885244  0.61940445  1
  H+  H140  1  0.64898407  0.87230044  0.32944320  1
  H+  H141  1  0.20615365  0.11853178  0.98872171  1
  H+  H142  1  0.88831501  0.77689113  0.65716992  1
  H+  H143  1  0.13265127  0.26524307  0.83623127  1
  H+  H144  1  0.60969417  0.10684031  0.49146359  1
  H+  H145  1  0.36062238  0.21902901  0.81901009  1
  H+  H146  1  0.78223745  0.37653753  0.81474291  1
  H+  H147  1  0.16971137  0.34054120  0.23147275  1
  H+  H148  1  0.61249843  0.14472021  0.01455334  1
  H+  H149  1  0.77674658  0.13390410  0.68260719  1
  H+  H150  1  0.92171608  0.07242667  0.26034298  1
  H+  H151  1  0.11727089  0.36639679  0.34518849  1
  H+  H152  1  0.78275797  0.39307195  0.49514427  1
  H+  H153  1  0.63612286  0.22947863  0.66990553  1
  H+  H154  1  0.10696468  0.04076777  0.98646476  1
  H+  H155  1  0.73029761  0.85628032  0.84011150  1
  H+  H156  1  0.48452722  0.62832765  0.66070114  1
  H+  H157  1  0.64563693  0.52475492  0.18706003  1
  H+  H158  1  0.63179954  0.13763409  0.67190022  1
  H+  H159  1  0.14449466  0.36646663  0.99005299  1
  H+  H160  1  0.10785315  0.12912513  0.66427235  1
  H+  H161  1  0.77755427  0.64302150  0.33811810  1
  H+  H162  1  0.89600214  0.37486072  0.51056654  1
  H+  H163  1  0.94904409  0.59244853  0.29513361  1
  H+  H164  1  0.88527679  0.36562347  0.32747713  1
  H+  H165  1  0.77085842  0.65729235  0.00386376  1
  H+  H166  1  0.12648792  0.35332971  0.84146422  1
  H+  H167  1  0.26594866  0.88997564  0.82647060  1
  H+  H168  1  0.97628717  0.86574989  0.65601573  1
  H+  H169  1  0.35985821  0.47815200  0.33979025  1
  H+  H170  1  0.84359101  0.46517489  0.33378402  1
  H+  H171  1  0.59162351  0.42696316  -0.08690692  1
  H+  H172  1  0.32255950  0.21910391  0.66925921  1
  H+  H173  1  0.97673108  0.60133022  0.84086595  1
  H+  H174  1  0.84873095  0.23504760  0.49144854  1
  H+  H175  1  0.11790540  0.40283521  0.16442822  1
  H+  H176  1  0.41314013  0.36311385  0.49651701  1
  H+  H177  1  0.36056961  -0.02750878  0.82504167  1
  H+  H178  1  0.60097829  0.87297074  0.67872611  1
  H+  H179  1  0.12351421  0.48761291  0.69470324  1
  H+  H180  1  0.75685061  0.66304806  0.81257958  1
  H+  H181  1  0.84293327  0.12612061  -0.00267002  1
  H+  H182  1  0.10471023  0.87311866  0.33854162  1
  H+  H183  1  0.88992776  0.61774113  0.51061431  1
  H+  H184  1  0.21072715  0.10018600  0.65845125  1
  H+  H185  1  0.35070970  0.88712145  0.16277841  1
  H+  H186  1  0.57039783  0.40295739  0.68070988  1
  H+  H187  1  0.13803261  0.63483338  0.32847203  1
  H+  H188  1  0.37800241  0.67871271  0.33299791  1
  H+  H189  1  0.13574354  0.61214192  0.48812588  1
  H+  H190  1  0.63770948  0.84867670  0.83378725  1
  H+  H191  1  0.90053810  0.78737940  -0.00257042  1
  H+  H192  1  0.64174227  0.02764273  0.33448892  1
  H+  H193  1  0.52796167  0.39423737  -0.03147690  1
  H+  H194  1  0.40385260  0.48513878  0.33156539  1
  H+  H195  1  0.22489886  0.11347164  0.50982247  1
  H+  H196  1  0.52687241  0.88199404  0.49947486  1
  H+  H197  1  0.63206702  0.10306632  0.84083724  1
  H+  H198  1  0.12222918  1.02177322  0.18006913  1
  H+  H199  1  0.40523559  0.58091699  0.31631803  1
  H+  H200  1  0.39067883  0.68015703  0.65829097  1
  H+  H201  1  0.35844693  0.96351242  0.50384990  1
  H+  H202  1  0.00701458  0.86796892  0.49249501  1
  H+  H203  1  0.60160831  0.13265512  0.34020409  1
  H+  H204  1  0.38753629  0.47109389  0.48633774  1
  H+  H205  1  0.62053010  0.44191512  0.74160187  1
  H+  H206  1  0.12038595  0.45364518  0.35616617  1
  H+  H207  1  0.35396719  0.92970200  0.06327613  1
  H+  H208  1  0.16726068  0.07865042  0.89267406  1
  H+  H209  1  0.64162338  0.61291007  0.50434707  1
  H+  H210  1  0.76012162  0.37463259  0.34074698  1
  H+  H211  1  0.38269633  0.85917087  0.84229634  1
  H+  H212  1  0.33460948  0.32996562  0.17600428  1
  H+  H213  1  0.24058018  0.61905180  0.82505485  1
  H+  H214  1  0.72560827  0.12058078  0.32861040  1
  H+  H215  1  0.46922648  0.86880698  0.17129062  1
  H+  H216  1  0.33961840  0.21982598  0.99669365  1
  H+  H217  1  0.35550314  0.71986883  0.49503046  1
  H+  H218  1  0.86041969  0.64227096  0.15184896  1
  H+  H219  1  -0.01480128  0.36164076  0.66452241  1
  H+  H220  1  0.93866938  0.83791260  0.93519066  1
  H+  H221  1  0.40358229  0.87220125  0.99355042  1
  H+  H222  1  0.89380385  0.35574384  0.84034098  1
  H+  H223  1  0.02515060  0.63440960  0.51012900  1
  H+  H224  1  0.37097305  0.48206211  0.01167600  1
  H+  H225  1  0.83112496  0.14787137  0.12330582  1
  H+  H226  1  0.49743176  0.58251875  0.85358695  1
  H+  H227  1  0.63930956  0.78624967  0.17150520  1
  H+  H228  1  1.02784949  0.63213985  0.99654526  1
  H+  H229  1  0.86395682  0.23205924  0.33476587  1
  H+  H230  1  0.37045922  0.73131672  0.82574140  1
  H+  H231  1  0.60257187  0.98544147  0.01952930  1
  H+  H232  1  0.13189345  0.84255410  0.99458600  1
  H+  H233  1  0.22890989  0.37873979  0.17261118  1
  H+  H234  1  0.23698400  0.63811699  0.69082340  1
  H+  H235  1  -0.01537244  0.63059140  0.66853158  1
  H+  H236  1  0.36905674  0.21984947  0.47983097  1
  H+  H237  1  0.46253310  0.10008747  0.31217750  1
  H+  H238  1  0.17885285  0.60195426  0.74972982  1
  H+  H239  1  0.63770589  0.77161508  0.67027919  1
  H+  H240  1  0.88907443  0.63738138  0.66655756  1
  H+  H241  1  0.11622386  0.85645619  0.66084853  1
  H+  H242  1  0.36337227  0.87391932  0.67914761  1
  H+  H243  1  0.62002501  0.11100882  0.18240248  1
  H+  H244  1  0.67560196  0.59776897  0.23488617  1
  H+  H245  1  0.15706305  0.56312761  0.30543589  1
  H+  H246  1  0.99348989  0.85604577  0.84264253  1
  H+  H247  1  0.13644273  0.95463237  0.00901906  1
  H+  H248  1  0.39194445  0.11049124  0.82303007  1
  H+  H249  1  0.14626251  0.37624644  0.51097505  1
  H+  H250  1  0.39681647  0.51014909  0.84945018  1
  H+  H251  1  0.33774256  0.67612632  0.42909327  1
  H+  H252  1  0.60549475  0.96332870  0.83000487  1
  H+  H253  1  0.62512242  0.96047767  0.50355985  1
  H+  H254  1  0.12076753  0.13189769  0.81659326  1
  H+  H255  1  0.23475631  0.61606808  0.47677245  1
  H+  H256  1  0.00705222  0.10948207  0.18155905  1
  H+  H257  1  0.35396514  0.10058907  -0.02462467  1
  H+  H258  1  0.78156381  0.64728993  0.66792248  1
  H+  H259  1  0.14651831  0.52996423  0.83246869  1
  H+  H260  1  0.87538575  0.38409219  0.66257740  1
  H+  H261  1  0.34733980  0.11727033  0.33180877  1
  H+  H262  1  0.01482535  0.15320355  0.34873915  1
  H+  H263  1  0.28730824  0.67554589  0.33613214  1
  H+  H264  1  0.52676822  0.63336682  0.49130758  1
  H+  H265  1  0.23080333  0.86305695  0.34020166  1
  H+  H266  1  0.10249285  0.73520148  0.15839958  1
  H+  H267  1  0.10443531  0.89291580  0.16122682  1
  H+  H268  1  0.86474368  0.47893534  0.14602937  1
  H+  H269  1  0.17378882  0.33896806  0.92843437  1
  H+  H270  1  0.36288051  0.63951243  0.00577720  1
  H+  H271  1  0.42681952  0.57506296  0.94572307  1
  H+  H272  1  0.38436524  0.38035068  0.83165189  1
  H+  H273  1  0.53596982  0.42008003  0.82177735  1
  H+  H274  1  0.22595234  0.87318229  0.16527921  1
  H+  H275  1  0.63304883  0.01090661  0.66881673  1
  H+  H276  1  0.37041156  0.34281575  0.33589731  1
  H+  H277  1  0.13319008  0.51548370  0.48068226  1
  H+  H278  1  0.84505220  0.41490479  0.72003534  1
  H+  H279  1  0.88765327  0.77272747  0.32593521  1
  H+  H280  1  0.38312772  -0.01169332  1.00351812  1
  H+  H281  1  0.33533647  0.24145198  0.17051642  1
  H+  H282  1  0.51759539  0.87492540  0.82966095  1
  H+  H283  1  0.08225270  0.67008102  0.45006114  1
  H+  H284  1  0.89243688  0.37158490  0.16615893  1
  H+  H285  1  0.63724477  0.76351295  0.51270091  1
  H+  H286  1  0.27415773  0.12872270  0.82187503  1
  H+  H287  1  0.62934388  0.74230296  0.34137311  1
  H+  H288  1  0.59599138  0.18180970  0.07542411  1
  H+  H289  1  0.18338167  0.59823217  0.92466801  1
  H+  H290  1  0.82866445  0.93447848  0.06087983  1
  H+  H291  1  0.07441853  0.92234919  0.10449535  1
  H+  H292  1  0.15262848  0.83555572  0.56791291  1
  H+  H293  1  0.19745942  0.60377556  0.58752699  1
  H+  H294  1  0.58869632  0.67739444  0.10006460  1
  H+  H295  1  0.85724067  0.73513838  0.82002308  1
  H+  H296  1  0.31862448  0.14066841  0.39550848  1
  H+  H297  1  0.75750713  0.02591258  0.54960447  1
  H+  H298  1  0.43610782  0.31053395  0.54726544  1
  H+  H299  1  0.40375964  0.06896893  0.25297539  1
  H+  H300  1  0.41924213  0.22446285  0.11187645  1
  H+  H301  1  0.41018862  0.02030647  0.66517442  1
  H+  H302  1  0.68406419  0.06361971  0.61051066  1
  H+  H303  1  0.71446587  0.09092078  0.84589003  1
  H+  H304  1  0.66996183  0.84327088  0.23155620  1
  H+  H305  1  0.66548747  0.82810224  0.60989260  1
  H+  H306  1  0.07033581  0.89542739  0.42783644  1
  H+  H307  1  0.66633066  0.61731159  0.91911791  1
  H+  H308  1  0.83674680  0.42367166  0.43422959  1
  H+  H309  1  0.33380733  0.67506344  0.09387416  1
  H+  H310  1  0.32623959  0.91918117  0.40447200  1
  H+  H311  1  0.43382363  0.63063457  0.25479185  1
  H+  H312  1  0.31203995  0.43106685  0.76626054  1
  H+  H313  1  0.60776219  0.43764566  0.07487086  1
  H+  H314  1  0.89667419  0.27075872  0.66421658  1
  H+  H315  1  0.59265247  0.91789848  0.40125220  1
  H+  H316  1  0.43642920  0.85576398  0.26553370  1
  H+  H317  1  0.83898095  0.66462735  0.39678404  1
  H+  H318  1  0.62050711  0.51332925  0.82296708  1
  H+  H319  1  0.16528142  0.60774629  0.21653960  1
  H+  H320  1  0.64937673  0.07396099  0.24287436  1
  H+  H321  1  0.09134833  0.16471557  0.75965957  1
  H+  H322  1  0.07993511  0.41527722  0.78113676  1
  H+  H323  1  0.71386687  0.33031596  0.22201919  1
  H+  H324  1  0.86633376  0.72456461  0.49213973  1
  H+  H325  1  0.33880407  0.91285634  0.73490590  1
  H+  H326  1  0.78559585  0.04672606  0.79625136  1
  H+  H327  1  0.15910234  0.55955172  0.58993343  1
  H+  H328  1  0.64927770  0.36345240  0.84024841  1
  H+  H329  1  0.81662269  0.17705305  0.43179268  1
  H+  H330  1  0.68081874  0.32307145  0.57069069  1
  H+  H331  1  0.31690429  0.15869931  0.72284180  1
  H+  H332  1  0.91432248  0.83272443  0.26597331  1
  H+  H333  1  0.40571183  0.36163853  0.62242709  1
  H+  H334  1  0.58938238  0.66948522  0.43339899  1
  H+  H335  1  0.66155487  0.82091449  0.93206420  1
  H+  H336  1  0.35200427  0.39580464  0.43488176  1
  H+  H337  1  0.85104435  0.93204040  0.78481986  1
  H+  H338  1  0.57745482  0.92919080  0.10363553  1
  H+  H339  1  0.41724879  0.83216648  0.90139478  1
  H+  H340  1  0.29509528  0.27116504  0.37233465  1
  H+  H341  1  0.61194586  0.64694465  0.00620153  1
  H+  H342  1  0.56804262  0.90055410  0.73738794  1
  H+  H343  1  0.15359777  0.07022078  0.59733087  1
  H+  H344  1  0.07849473  0.40051401  0.44059778  1
  H+  H345  1  0.08592995  0.18153170  0.09557664  1
  H+  H346  1  0.63399369  0.33296843  0.27341234  1
  H+  H347  1  0.91524483  0.32614175  0.90355284  1
  H+  H348  1  0.77374513  0.88793246  0.68453315  1
  H+  H349  1  0.61105409  0.00371840  0.17691350  1
  H+  H350  1  0.37813899  0.13174463  0.14475274  1
  H+  H351  1  0.55378548  0.16294410  0.38921194  1
  H+  H352  1  0.89629701  0.57708979  0.21289375  1
  H+  H353  1  0.83251394  0.67947851  0.73272550  1
  H+  H354  1  0.83753886  0.16008194  0.74006835  1
  H+  H355  1  0.82481415  0.67809679  0.06677545  1
  H+  H356  1  0.88955988  0.64739553  -0.01370911  1
  H+  H357  1  0.83687801  0.41331862  0.05699493  1
  H+  H358  1  0.91151439  0.57239994  0.89492883  1
  H+  H359  1  0.92089282  0.34498323  0.22802813  1
  H+  H360  1  0.15531965  0.83251535  0.92619683  1
  H+  H361  1  0.38202177  0.77867492  0.17038198  1
  H+  H362  1  0.61640299  0.44305889  0.40679951  1
  H+  H363  1  0.39028006  0.62880604  0.16529497  1
  H+  H364  1  0.20064992  0.35424129  0.55743014  1
  H+  H365  1  0.96830518  0.86460577  0.17515643  1
  H+  H366  1  0.08400065  0.17900212  0.40208295  1
  H+  H367  1  0.35414940  0.68983686  0.76104140  1
  H+  H368  1  -0.06454135  0.06777874  0.43444953  1
  H+  H369  1  0.92310712  0.33672928  0.56805486  1
  H+  H370  1  0.82597876  0.90355729  0.43769095  1
  H+  H371  1  0.16657656  0.86143036  0.22298959  1
  H+  H372  1  0.40609073  0.33783087  0.93075308  1
  H+  H373  1  0.07425710  0.67754078  0.74129988  1
  H+  H374  1  0.58979152  0.65652723  0.73752507  1
  H+  H375  1  0.40721324  0.81253066  0.56889141  1
  H+  H376  1  0.91912148  0.83224769  0.56460935  1
  H+  H377  1  0.89561173  0.01665641  0.49226388  1
  H+  H378  1  0.46266860  0.82876603  0.66993339  1
  H+  H379  1  0.65281301  0.07728194  0.94068661  1
  H+  H380  1  0.89085070  0.11412466  0.66482193  1
  H+  H381  1  0.11121725  0.74557618  0.82777305  1
  H+  H382  1  0.56788329  0.39394437  0.07447038  1
  H+  H383  1  0.67357963  0.32522261  0.89723710  1
  O2-  O384  1  0.09628596  0.18240645  0.13978974  1
  O2-  O385  1  0.10027952  0.18175546  0.47791272  1
  O2-  O386  1  0.09751571  0.16873962  0.80457743  1
  O2-  O387  1  0.08798879  0.43218592  0.14662528  1
  O2-  O388  1  0.08417183  0.42007460  0.48382208  1
  O2-  O389  1  0.08630015  0.41841028  0.82595368  1
  O2-  O390  1  0.06650905  0.67366418  0.14884188  1
  O2-  O391  1  0.08623921  0.66509657  0.49507106  1
  O2-  O392  1  0.08469160  0.68381962  0.81284675  1
  O2-  O393  1  0.07141988  0.92206368  0.14993098  1
  O2-  O394  1  0.06866191  0.89275655  0.47420937  1
  O2-  O395  1  0.11275552  0.89283701  0.82497140  1
  O2-  O396  1  0.36268671  0.17748999  0.12288506  1
  O2-  O397  1  0.32965158  0.15744549  0.47275988  1
  O2-  O398  1  0.33224131  0.16162292  0.80157817  1
  O2-  O399  1  0.33083413  0.42575231  0.14729589  1
  O2-  O400  1  0.36940374  0.41046819  0.47795770  1
  O2-  O401  1  0.31624595  0.41744035  0.80925906  1
  O2-  O402  1  0.33436831  0.67565340  0.13995097  1
  O2-  O403  1  0.32616979  0.66204704  0.47389061  1
  O2-  O404  1  0.34340771  0.67452768  0.80425798  1
  O2-  O405  1  0.31784142  0.91409524  0.14670748  1
  O2-  O406  1  0.33081604  0.90522807  0.48480919  1
  O2-  O407  1  0.32648519  0.91043143  0.81344736  1
  O2-  O408  1  0.59234499  0.17379145  0.16025557  1
  O2-  O409  1  0.52144036  0.18838687  0.45775020  1
  O2-  O410  1  0.58812957  0.16159253  0.81010506  1
  O2-  O411  1  0.60403178  0.41341433  0.20025914  1
  O2-  O412  1  0.60982077  0.42292194  0.48580303  1
  O2-  O413  1  0.59912317  0.44933530  0.81507796  1
  O2-  O414  1  0.58757745  0.67824487  0.14611991  1
  O2-  O415  1  0.58841314  0.66362622  0.47876435  1
  O2-  O416  1  0.59903478  0.64729267  0.81766019  1
  O2-  O417  1  0.57819190  0.92711497  0.15290069  1
  O2-  O418  1  0.58566315  0.90524430  0.48292339  1
  O2-  O419  1  0.57791574  0.90365684  0.81320595  1
  O2-  O420  1  0.84599896  0.15882874  0.16644937  1
  O2-  O421  1  0.80009341  0.18289468  0.47378157  1
  O2-  O422  1  0.81033890  0.10406293  0.81369177  1
  O2-  O423  1  0.84027920  0.41718882  0.13528079  1
  O2-  O424  1  0.84228478  0.42814062  0.47950433  1
  O2-  O425  1  0.84134064  0.40577705  0.79842237  1
  O2-  O426  1  0.83037583  0.67575673  0.14343863  1
  O2-  O427  1  0.83836637  0.66399423  0.47730104  1
  O2-  O428  1  0.81652251  0.68275334  0.79740238  1
  O2-  O429  1  0.83756144  0.92740435  0.14394989  1
  O2-  O430  1  0.82855443  0.90148086  0.48286375  1
  O2-  O431  1  0.84915767  0.92206372  0.82917225  1
  O2-  O432  1  0.15556310  0.07884513  0.20068260  1
  O2-  O433  1  0.16595733  0.08670092  0.52614336  1
  O2-  O434  1  0.17627591  0.06967183  0.84916512  1
  O2-  O435  1  0.16753447  0.34706941  0.18669879  1
  O2-  O436  1  0.17811009  0.34489306  0.51611664  1
  O2-  O437  1  0.16049130  0.32512931  0.85345568  1
  O2-  O438  1  0.16571574  0.59976071  0.17250977  1
  O2-  O439  1  0.16620949  0.58145216  0.47162224  1
  O2-  O440  1  0.17645184  0.59412634  0.82887658  1
  O2-  O441  1  0.16250330  0.84579353  0.18037824  1
  O2-  O442  1  0.15948956  0.83582338  0.52129993  1
  O2-  O443  1  0.15787732  0.84749490  0.84821670  1
  O2-  O444  1  0.40828748  0.07963474  0.16954941  1
  O2-  O445  1  0.37777336  0.05763433  0.54047658  1
  O2-  O446  1  0.41838269  0.07899489  0.84138711  1
  O2-  O447  1  0.33050518  0.28130430  0.19929448  1
  O2-  O448  1  0.44079671  0.32476502  0.50437360  1
  O2-  O449  1  0.43443433  0.38671891  0.85586279  1
  O2-  O450  1  0.42183485  0.60192288  0.18475682  1
  O2-  O451  1  0.42126689  0.58160920  0.51727832  1
  O2-  O452  1  0.44675385  0.53996854  0.87723913  1
  O2-  O453  1  0.40933127  0.83835635  0.18725990  1
  O2-  O454  1  0.41095549  0.81822938  0.52394899  1
  O2-  O455  1  0.41553458  0.83081641  0.85534861  1
  O2-  O456  1  0.64087175  0.06984174  0.19729675  1
  O2-  O457  1  0.71744386  0.04588758  0.54027120  1
  O2-  O458  1  0.65410634  0.06726458  0.85969706  1
  O2-  O459  1  0.68579867  0.33183798  0.18456428  1
  O2-  O460  1  0.67878088  0.31583974  0.52396545  1
  O2-  O461  1  0.67358142  0.32724241  0.85109079  1
  O2-  O462  1  0.66995560  0.58818416  0.18995540  1
  O2-  O463  1  0.67626866  0.58833864  0.52186318  1
  O2-  O464  1  0.65584358  0.61426865  0.84087714  1
  O2-  O465  1  0.66719129  0.84676992  0.18650185  1
  O2-  O466  1  0.66657174  0.82348885  0.52916335  1
  O2-  O467  1  0.66792567  0.81774731  0.84686484  1
  O2-  O468  1  0.96610638  0.06066745  0.20728850  1
  O2-  O469  1  0.92999317  0.07651592  0.47749420  1
  O2-  O470  1  0.91154553  0.07988494  0.88625080  1
  O2-  O471  1  0.92604517  0.34523393  0.18328530  1
  O2-  O472  1  0.92476856  0.34204344  0.52257241  1
  O2-  O473  1  0.92772354  0.33218472  0.85908151  1
  O2-  O474  1  0.90498824  0.58381229  0.16867456  1
  O2-  O475  1  0.91979820  0.58886818  0.53000157  1
  O2-  O476  1  0.91878010  0.55668426  0.85326176  1
  O2-  O477  1  0.90846466  0.83369412  0.19178947  1
  O2-  O478  1  0.91904356  0.82979355  0.51856543  1
  O2-  O479  1  0.93354229  0.83309157  0.85578407  1
  O2-  O480  1  0.16159185  0.06759067  0.31195451  1
  O2-  O481  1  0.14904141  0.06668180  0.64359459  1
  O2-  O482  1  0.14784503  0.09488051  0.96751225  1
  O2-  O483  1  0.17102849  0.32854930  0.31207271  1
  O2-  O484  1  0.15152255  0.32388818  0.64822119  1
  O2-  O485  1  0.18014417  0.34292877  0.97396655  1
  O2-  O486  1  0.17865155  0.62458818  0.30395693  1
  O2-  O487  1  0.17710965  0.60035378  0.70418039  1
  O2-  O488  1  0.18108823  0.59039999  0.96868826  1
  O2-  O489  1  0.16607695  0.82073496  0.32245160  1
  O2-  O490  1  0.13456208  0.82321177  0.63614321  1
  O2-  O491  1  0.15918229  0.81782391  0.96939747  1
  O2-  O492  1  0.40170947  0.06754556  0.29824071  1
  O2-  O493  1  0.43777741  0.07812741  0.64522759  1
  O2-  O494  1  0.38418011  0.06958194  0.96467343  1
  O2-  O495  1  0.44106830  0.33786463  0.28973329  1
  O2-  O496  1  0.37847635  0.34065883  0.66182190  1
  O2-  O497  1  0.41029818  0.33032700  0.97505241  1
  O2-  O498  1  0.43706942  0.63983522  0.30089441  1
  O2-  O499  1  0.42743752  0.61015047  0.64159287  1
  O2-  O500  1  0.41928111  0.58440803  0.98934012  1
  O2-  O501  1  0.44893658  0.86541530  0.30975775  1
  O2-  O502  1  0.40282891  0.79730459  0.65074436  1
  O2-  O503  1  0.42565155  0.83497512  0.97548649  1
  O2-  O504  1  0.66370815  0.08664243  0.31678636  1
  O2-  O505  1  0.67173033  0.07030320  0.65376601  1
  O2-  O506  1  0.65320580  0.08243763  0.98568229  1
  O2-  O507  1  0.65058777  0.32672194  0.31483269  1
  O2-  O508  1  0.68859251  0.33470522  0.64040677  1
  O2-  O509  1  0.66950054  0.32740941  0.97157145  1
  O2-  O510  1  0.68145196  0.60124014  0.31332251  1
  O2-  O511  1  0.67964886  0.59678322  0.64440927  1
  O2-  O512  1  0.66873967  0.60775797  0.96412846  1
  O2-  O513  1  0.67634518  0.84000988  0.31203052  1
  O2-  O514  1  0.66559309  0.83202582  0.65514590  1
  O2-  O515  1  0.65667128  0.82318657  0.97647874  1
  O2-  O516  1  0.87941130  0.06648959  0.29550258  1
  O2-  O517  1  0.91978057  0.08351136  0.64896218  1
  O2-  O518  1  0.90452465  0.08546951  0.95218821  1
  O2-  O519  1  0.91608104  0.33708245  0.31037155  1
  O2-  O520  1  0.92831408  0.32839704  0.64437337  1
  O2-  O521  1  0.90100540  0.31479244  0.98167402  1
  O2-  O522  1  0.88701619  0.56555105  0.29832223  1
  O2-  O523  1  0.92313152  0.60685646  0.65051404  1
  O2-  O524  1  0.93183877  0.63965659  0.96136751  1
  O2-  O525  1  0.91853952  0.83391413  0.31211922  1
  O2-  O526  1  0.91681873  0.83637191  0.63940520  1
  O2-  O527  1  0.94491399  0.84325385  0.98001516  1
  O2-  O528  1  0.06700945  0.17983976  0.00877958  1
  O2-  O529  1  0.07543670  0.17629397  0.35679253  1
  O2-  O530  1  0.08311239  0.16465487  0.67994136  1
  O2-  O531  1  0.06043719  0.36384225  0.03486848  1
  O2-  O532  1  0.08308754  0.39262331  0.36329677  1
  O2-  O533  1  0.08742515  0.42418485  0.69996829  1
  O2-  O534  1  0.08798920  0.65452043  0.00812883  1
  O2-  O535  1  0.08293665  0.67237354  0.37384916  1
  O2-  O536  1  0.07241849  0.66934683  0.69515312  1
  O2-  O537  1  0.08971287  0.90786557  0.03087871  1
  O2-  O538  1  0.07584524  0.90363793  0.35484733  1
  O2-  O539  1  0.07353923  0.92120028  0.69717765  1
  O2-  O540  1  0.30230378  0.15930953  0.01009333  1
  O2-  O541  1  0.31139615  0.13907458  0.35047606  1
  O2-  O542  1  0.30766256  0.16005077  0.67844776  1
  O2-  O543  1  0.34042044  0.41979077  0.02434054  1
  O2-  O544  1  0.32032853  0.33202271  0.36299938  1
  O2-  O545  1  0.31661533  0.44871199  0.68674349  1
  O2-  O546  1  0.33348250  0.67114594  0.01906089  1
  O2-  O547  1  0.34391326  0.69970973  0.35616788  1
  O2-  O548  1  0.35936867  0.70922061  0.67531278  1
  O2-  O549  1  0.38840965  0.94306237  0.02607970  1
  O2-  O550  1  0.31360754  0.91497834  0.36025624  1
  O2-  O551  1  0.34978189  0.91855751  0.69026080  1
  O2-  O552  1  0.59276430  0.18366726  0.03075316  1
  O2-  O553  1  0.56555863  0.16010418  0.34531956  1
  O2-  O554  1  0.60341908  0.16994855  0.68624810  1
  O2-  O555  1  0.58995438  0.42769813  -0.04242741  1
  O2-  O556  1  0.61727932  0.44890290  0.36211695  1
  O2-  O557  1  0.62830183  0.43859805  0.69618834  1
  O2-  O558  1  0.58207016  0.67444638  0.02609397  1
  O2-  O559  1  0.59474335  0.68076946  0.35545774  1
  O2-  O560  1  0.58599566  0.66382540  0.69290176  1
  O2-  O561  1  0.57530057  0.92846193  0.04052768  1
  O2-  O562  1  0.60056148  0.92511094  0.35654601  1
  O2-  O563  1  0.56419754  0.89745736  0.69153129  1
  O2-  O564  1  0.81733499  0.15250278  0.02284619  1
  O2-  O565  1  0.83279635  0.17285279  0.35224405  1
  O2-  O566  1  0.83790279  0.16884140  0.69552479  1
  O2-  O567  1  0.83722633  0.40950376  0.01186387  1
  O2-  O568  1  0.82118802  0.40844695  0.35404693  1
  O2-  O569  1  0.84409904  0.41432016  0.67453293  1
  O2-  O570  1  0.82940492  0.68312058  0.02141191  1
  O2-  O571  1  0.83982716  0.66729849  0.35145742  1
  O2-  O572  1  0.84121902  0.67705577  0.68543123  1
  O2-  O573  1  0.81663596  0.92614444  0.01685075  1
  O2-  O574  1  0.83897800  0.91836315  0.35796010  1
  O2-  O575  1  0.83452491  0.91866599  0.69871830  1
