# generated using pymatgen
data_H2O
_symmetry_space_group_name_H-M   'P 1'
_cell_length_a   17.99508674
_cell_length_b   17.99124025
_cell_length_c   22.00663234
_cell_angle_alpha   89.96654279
_cell_angle_beta   90.02848067
_cell_angle_gamma   119.97066099
_symmetry_Int_Tables_number   1
_chemical_formula_structural   H2O
_chemical_formula_sum   'H384 O192'
_cell_volume   6172.02248429
_cell_formula_units_Z   192
loop_
 _symmetry_equiv_pos_site_id
 _symmetry_equiv_pos_as_xyz
  1  'x, y, z'
loop_
 _atom_type_symbol
 _atom_type_oxidation_number
  H+  1.0
  O2-  -2.0
loop_
 _atom_site_type_symbol
 _atom_site_label
 _atom_site_symmetry_multiplicity
 _atom_site_fract_x
 _atom_site_fract_y
 _atom_site_fract_z
 _atom_site_occupancy
  H+  H0  1  0.83086111  0.65956214  0.40092964  1
  H+  H1  1  0.17082482  0.11084997  0.55405811  1
  H+  H2  1  0.46773348  0.29702692  0.19744564  1
  H+  H3  1  0.75680563  0.13503872  0.67805234  1
  H+  H4  1  0.27098060  0.37577700  0.48707675  1
  H+  H5  1  0.13393292  0.80597365  0.58335565  1
  H+  H6  1  0.63851741  0.51860951  0.17056138  1
  H+  H7  1  0.12876556  0.85724006  -0.00807345  1
  H+  H8  1  0.94232237  0.79946313  0.82913815  1
  H+  H9  1  0.42330044  0.58283693  0.23450271  1
  H+  H10  1  0.12513896  0.62682512  0.15420347  1
  H+  H11  1  0.88507232  0.85380267  -0.01375947  1
  H+  H12  1  0.66197473  0.33293400  0.59809414  1
  H+  H13  1  0.95643088  0.34312616  0.85332557  1
  H+  H14  1  0.35849630  0.14004659  0.67291538  1
  H+  H15  1  0.93976387  0.63968347  0.35250259  1
  H+  H16  1  0.11088923  0.84194900  0.18518660  1
  H+  H17  1  0.61827002  0.38061282  0.82231823  1
  H+  H18  1  0.10062780  0.62043242  0.50036089  1
  H+  H19  1  0.14541313  0.06374201  0.92599801  1
  H+  H20  1  0.64374021  0.03164138  0.32696650  1
  H+  H21  1  0.61166022  0.63169365  0.33357013  1
  H+  H22  1  0.61717910  1.01429930  0.66216347  1
  H+  H23  1  0.55819570  0.10876262  0.17503982  1
  H+  H24  1  0.36801478  0.38133440  0.82826811  1
  H+  H25  1  0.86359416  0.37487330  0.34121812  1
  H+  H26  1  0.84585054  0.21289034  0.83353252  1
  H+  H27  1  0.12989730  0.51377823  -0.00643398  1
  H+  H28  1  0.85603427  0.87413372  0.48840183  1
  H+  H29  1  0.14721000  0.12651981  0.17269423  1
  H+  H30  1  0.87412619  0.75795380  0.32746483  1
  H+  H31  1  0.57708666  0.79448589  0.20123805  1
  H+  H32  1  0.27563078  0.64370696  0.34585871  1
  H+  H33  1  0.22175512  0.60436021  0.64988335  1
  H+  H34  1  0.25458142  0.62084859  0.81589139  1
  H+  H35  1  0.43380942  0.84631214  0.27788156  1
  H+  H36  1  0.17108258  0.82712784  0.28566148  1
  H+  H37  1  0.63361007  0.27696407  0.50817978  1
  H+  H38  1  0.89232095  0.06790139  0.90467493  1
  H+  H39  1  0.42530237  0.34205675  0.92299424  1
  H+  H40  1  0.86696469  0.38282386  0.67815715  1
  H+  H41  1  0.52220647  0.87220818  0.66392329  1
  H+  H42  1  -0.02062272  0.61424325  -0.01167656  1
  H+  H43  1  0.65105250  0.27993344  0.32806483  1
  H+  H44  1  0.38304957  0.74017040  0.87188914  1
  H+  H45  1  0.91915548  0.11333243  0.49871462  1
  H+  H46  1  0.36822396  0.19166311  0.49730275  1
  H+  H47  1  1.01412793  0.37774614  0.51238282  1
  H+  H48  1  0.62287472  -0.00604418  0.49187514  1
  H+  H49  1  0.66993883  0.32385033  0.89242120  1
  H+  H50  1  0.26807023  0.62886938  0.49392422  1
  H+  H51  1  0.64088687  0.60773133  0.17229344  1
  H+  H52  1  0.41459958  0.79431741  0.18888801  1
  H+  H53  1  0.61620239  0.76406305  0.83517565  1
  H+  H54  1  0.89202819  0.10696601  0.31867852  1
  H+  H55  1  0.46414808  0.60276866  0.49999528  1
  H+  H56  1  0.77098189  0.62033351  0.50242912  1
  H+  H57  1  0.73128252  0.87145387  0.50278428  1
  H+  H58  1  0.63470034  0.74224794  0.48813542  1
  H+  H59  1  0.60924453  0.88123345  0.82282701  1
  H+  H60  1  0.37752487  0.89486324  0.16578523  1
  H+  H61  1  0.14124015  0.10856040  0.32849546  1
  H+  H62  1  0.47675154  0.36340147  0.51030382  1
  H+  H63  1  0.64732630  0.51747294  -0.00239361  1
  H+  H64  1  0.87420977  0.60268485  0.66973651  1
  H+  H65  1  0.34718777  0.98021711  0.82942368  1
  H+  H66  1  0.64268891  0.60857896  0.50980609  1
  H+  H67  1  0.88280304  0.61135266  0.83759013  1
  H+  H68  1  0.19518253  0.49597878  0.78567480  1
  H+  H69  1  0.62318333  0.38968612  0.66891284  1
  H+  H70  1  0.63174788  0.15368503  0.34190580  1
  H+  H71  1  0.51911081  0.39172839  0.14274836  1
  H+  H72  1  0.47636527  0.35202888  0.82772643  1
  H+  H73  1  0.78354267  0.38840226  0.34926129  1
  H+  H74  1  0.11171665  0.39703877  1.01908337  1
  H+  H75  1  0.37379602  0.62356308  0.98757460  1
  H+  H76  1  0.86971216  -0.02749172  0.33384869  1
  H+  H77  1  0.73861098  0.36562938  0.98953600  1
  H+  H78  1  0.47281339  0.60799758  0.32544433  1
  H+  H79  1  0.88255817  0.76511548  0.50229562  1
  H+  H80  1  0.59819762  0.13175089  0.80518040  1
  H+  H81  1  0.05179433  0.64165488  0.43914855  1
  H+  H82  1  0.12483384  0.76793236  0.83707500  1
  H+  H83  1  0.52934181  0.89899889  0.82817610  1
  H+  H84  1  0.98610515  0.11155781  0.84472076  1
  H+  H85  1  0.87566333  0.85318916  0.17749923  1
  H+  H86  1  0.10662776  -0.03461938  1.00754777  1
  H+  H87  1  -0.02850194  0.35539798  0.29926242  1
  H+  H88  1  0.50509188  0.89046286  0.49266809  1
  H+  H89  1  0.85255265  0.42947810  0.05755079  1
  H+  H90  1  0.52226560  0.38161291  0.34150632  1
  H+  H91  1  0.09219614  0.10716694  -0.00377403  1
  H+  H92  1  0.72809468  0.85348833  0.98941886  1
  H+  H93  1  0.36232991  0.21754998  0.33679428  1
  H+  H94  1  0.36899014  0.12090973  0.32572505  1
  H+  H95  1  0.04245474  0.63593421  0.15893313  1
  H+  H96  1  0.93533526  0.83789844  0.93031075  1
  H+  H97  1  0.72718273  0.36075565  0.50908951  1
  H+  H98  1  0.39662368  1.04871191  0.50676631  1
  H+  H99  1  0.87989684  0.25303324  0.15111315  1
  H+  H100  1  0.49844538  0.88739038  0.18013154  1
  H+  H101  1  0.81570498  0.16213863  0.73781614  1
  H+  H102  1  0.64054650  0.77159367  0.32884923  1
  H+  H103  1  0.87403747  0.26982898  0.66940429  1
  H+  H104  1  0.75656342  0.12546498  0.82643795  1
  H+  H105  1  0.37821396  0.51332617  0.83633461  1
  H+  H106  1  1.00692015  0.88816005  0.66832034  1
  H+  H107  1  0.56067955  0.20256936  0.65726448  1
  H+  H108  1  0.27476930  0.37178685  0.82435098  1
  H+  H109  1  0.10669315  0.44134670  0.81945100  1
  H+  H110  1  0.35585162  0.24175065  -0.01473762  1
  H+  H111  1  0.01719648  0.62598000  0.67385683  1
  H+  H112  1  0.36888898  -0.02294510  1.02003660  1
  H+  H113  1  0.08826568  0.20122120  0.81762302  1
  H+  H114  1  0.01769271  0.38808593  0.01049779  1
  H+  H115  1  0.62330052  0.72270413  0.00226860  1
  H+  H116  1  0.57283835  0.62160159  0.80204903  1
  H+  H117  1  0.33178555  0.66189040  0.43795153  1
  H+  H118  1  0.87657017  0.76154104  0.17893326  1
  H+  H119  1  0.15541865  0.86546128  0.34598119  1
  H+  H120  1  0.46939591  0.11852277  0.82405477  1
  H+  H121  1  0.64393617  0.24515804  0.99852820  1
  H+  H122  1  0.85811933  0.47401031  0.82507953  1
  H+  H123  1  0.63489012  0.52010678  0.32902475  1
  H+  H124  1  0.59826276  0.14317259  0.49541837  1
  H+  H125  1  0.14608845  0.34246735  0.78994830  1
  H+  H126  1  0.19946130  0.86485189  0.66777394  1
  H+  H127  1  0.38436443  0.51799918  0.32475618  1
  H+  H128  1  0.38431054  0.25765351  0.15878507  1
  H+  H129  1  1.01931106  0.13294074  0.67306626  1
  H+  H130  1  0.39668071  0.77999021  0.33409713  1
  H+  H131  1  0.01359905  0.62781315  0.82549068  1
  H+  H132  1  0.48441141  0.61331670  0.17383191  1
  H+  H133  1  0.87797108  0.21909797  0.49555639  1
  H+  H134  1  0.22848070  0.18287366  0.21123517  1
  H+  H135  1  0.59244913  0.37517515  0.15522059  1
  H+  H136  1  0.09950347  0.17030805  0.39065473  1
  H+  H137  1  0.26174986  0.12295034  0.66606625  1
  H+  H138  1  0.10666524  0.62642052  0.67221450  1
  H+  H139  1  0.35742463  0.61865790  0.65784897  1
  H+  H140  1  0.38636434  0.35862847  0.50652014  1
  H+  H141  1  0.87190815  0.72645905  0.99181307  1
  H+  H142  1  0.10193201  0.96280385  0.52376658  1
  H+  H143  1  0.60641122  0.72076096  0.65949658  1
  H+  H144  1  0.30079794  0.41042643  0.01742378  1
  H+  H145  1  0.64741574  0.60856522  -0.00314254  1
  H+  H146  1  0.07846728  0.18677590  -0.01277113  1
  H+  H147  1  0.40925948  1.04879349  0.67265458  1
  H+  H148  1  0.40738893  0.90843375  0.85335934  1
  H+  H149  1  0.85370768  0.95985915  0.00466622  1
  H+  H150  1  0.09413685  0.86957263  0.82920286  1
  H+  H151  1  0.37570910  0.89650526  0.34074669  1
  H+  H152  1  0.74676731  0.37578937  0.19078944  1
  H+  H153  1  0.18843165  0.82769460  0.52243337  1
  H+  H154  1  0.64456535  0.35819999  0.98831743  1
  H+  H155  1  0.71162399  0.34683839  0.66127895  1
  H+  H156  1  0.86923135  0.10569595  0.67676677  1
  H+  H157  1  0.77131597  0.88463316  0.15505222  1
  H+  H158  1  0.07681070  0.46337728  0.16746211  1
  H+  H159  1  0.77354822  0.62891024  0.34089492  1
  H+  H160  1  0.63586405  0.85805345  0.65674744  1
  H+  H161  1  0.17347931  0.32567078  0.98432310  1
  H+  H162  1  0.12647684  0.76507491  0.67106978  1
  H+  H163  1  0.01796713  0.87790978  0.16499218  1
  H+  H164  1  0.42188142  0.83531800  1.05376138  1
  H+  H165  1  0.89557850  0.57429038  0.60712270  1
  H+  H166  1  0.51626506  0.62860878  0.65871833  1
  H+  H167  1  0.40685535  0.53072852  0.98363335  1
  H+  H168  1  0.53382084  0.38454655  0.99472627  1
  H+  H169  1  0.87469992  0.09717419  1.01166782  1
  H+  H170  1  0.76525566  0.87072422  0.67491461  1
  H+  H171  1  0.35165622  0.37863360  0.67321685  1
  H+  H172  1  0.13975816  0.26796114  0.31565344  1
  H+  H173  1  0.89805985  0.31446942  0.24981967  1
  H+  H174  1  0.88763702  0.52256324  0.98678523  1
  H+  H175  1  0.62885697  0.88795351  0.00468497  1
  H+  H176  1  0.71122515  0.14704496  0.52350342  1
  H+  H177  1  0.11063502  1.01413126  0.65923356  1
  H+  H178  1  -0.03412277  0.33999748  0.16665634  1
  H+  H179  1  0.87735454  0.85397123  0.32614130  1
  H+  H180  1  0.38422927  0.35403886  0.32875579  1
  H+  H181  1  0.35689583  0.88542377  0.00642873  1
  H+  H182  1  0.03241416  0.13543212  0.33352185  1
  H+  H183  1  0.86939714  0.09969549  0.84273555  1
  H+  H184  1  0.35661814  0.46646504  0.48652557  1
  H+  H185  1  0.87556020  0.35451749  0.84805239  1
  H+  H186  1  0.73381493  0.11730377  0.32147434  1
  H+  H187  1  0.34194928  0.14961970  -0.02760685  1
  H+  H188  1  0.87013570  0.22311277  0.32731337  1
  H+  H189  1  0.10233854  0.72005918  1.00021669  1
  H+  H190  1  0.11393910  1.00455744  0.83420509  1
  H+  H191  1  0.78378932  0.66342932  0.83023785  1
  H+  H192  1  0.63085979  0.60770676  0.65833870  1
  H+  H193  1  0.40197819  0.02003165  0.17160611  1
  H+  H194  1  0.38036632  0.51113136  0.65644604  1
  H+  H195  1  0.91056510  0.57988084  0.89700510  1
  H+  H196  1  0.86177995  0.97110860  0.15435154  1
  H+  H197  1  0.17307941  0.28547635  0.75180428  1
  H+  H198  1  0.11943449  0.38263067  0.31076941  1
  H+  H199  1  0.12178919  0.52199309  0.51095672  1
  H+  H200  1  0.89287738  0.26726198  1.01906260  1
  H+  H201  1  0.16915173  0.31884536  1.05661261  1
  H+  H202  1  0.26244914  0.88621125  0.83175531  1
  H+  H203  1  0.62333423  0.89153072  0.34416883  1
  H+  H204  1  0.63163548  0.91496744  0.16335238  1
  H+  H205  1  0.33437219  0.90385369  0.67941952  1
  H+  H206  1  0.61626119  0.38928886  0.49533575  1
  H+  H207  1  0.54394517  0.22654295  0.18742459  1
  H+  H208  1  0.90461198  0.75575134  0.65221714  1
  H+  H209  1  0.01990621  0.87652585  0.00939383  1
  H+  H210  1  0.81131414  0.86720431  0.76214293  1
  H+  H211  1  0.25200552  0.63370198  0.19335183  1
  H+  H212  1  0.18724626  0.53756884  0.20442106  1
  H+  H213  1  0.62492756  1.01453036  0.81871289  1
  H+  H214  1  0.14369898  0.77417560  0.17920888  1
  H+  H215  1  0.62548035  0.48882983  0.67086821  1
  H+  H216  1  0.08861763  0.71055111  0.50262953  1
  H+  H217  1  0.96802223  0.85817069  0.50448796  1
  H+  H218  1  0.95438550  0.08718302  0.99580867  1
  H+  H219  1  0.42541919  0.10169990  0.56840017  1
  H+  H220  1  0.20837483  0.10925960  0.98168807  1
  H+  H221  1  0.86317775  0.47822326  0.67571159  1
  H+  H222  1  0.12518881  -0.02924597  0.35248381  1
  H+  H223  1  0.73077562  0.33376964  0.17418364  1
  H+  H224  1  0.07354670  0.60864815  0.35217592  1
  H+  H225  1  0.40691943  0.88855757  0.49269490  1
  H+  H226  1  0.22655338  0.69986374  0.88086792  1
  H+  H227  1  0.38604013  1.02452850  0.32453914  1
  H+  H228  1  0.13039566  0.26521857  0.65411019  1
  H+  H229  1  0.54171571  0.89089180  0.00765868  1
  H+  H230  1  0.86167113  0.46111480  0.49371623  1
  H+  H231  1  0.38149366  0.26658485  0.83040859  1
  H+  H232  1  0.45462367  0.60991737  0.82359919  1
  H+  H233  1  0.85108423  0.95696816  0.69175616  1
  H+  H234  1  0.35427358  0.75203160  0.85461830  1
  H+  H235  1  0.63558071  0.26788324  0.83036251  1
  H+  H236  1  0.87431239  0.63034050  0.99303417  1
  H+  H237  1  0.36675322  0.27022899  0.66314837  1
  H+  H238  1  0.10365699  0.37684469  0.65683518  1
  H+  H239  1  0.64330942  0.87422213  0.50360148  1
  H+  H240  1  0.40409812  0.37838814  0.98457693  1
  H+  H241  1  0.37872788  0.47981162  0.16423661  1
  H+  H242  1  0.38542495  0.64901184  0.17492704  1
  H+  H243  1  0.13777528  0.64059357  0.84870926  1
  H+  H244  1  0.88001547  0.34727974  0.51010520  1
  H+  H245  1  0.36055232  0.63610069  0.33988653  1
  H+  H246  1  0.37030301  0.43656580  0.06740412  1
  H+  H247  1  0.38837924  0.83405600  0.63580129  1
  H+  H248  1  0.34247471  0.13228491  0.81991217  1
  H+  H249  1  0.40684694  0.33482515  0.60773934  1
  H+  H250  1  0.05368792  0.12983758  0.47793517  1
  H+  H251  1  1.02195031  0.71068233  0.21120730  1
  H+  H252  1  0.14786929  0.36751946  0.16265666  1
  H+  H253  1  0.89373281  0.39419257  0.14249477  1
  H+  H254  1  0.37810913  0.39024372  0.16303606  1
  H+  H255  1  0.09383064  0.87209579  0.51297772  1
  H+  H256  1  0.62304915  0.04224358  0.17383484  1
  H+  H257  1  0.42257243  0.08641516  0.26484417  1
  H+  H258  1  0.61458362  0.38885264  0.33998533  1
  H+  H259  1  0.63446427  0.51476972  0.50847494  1
  H+  H260  1  0.62087523  0.47029852  0.82735937  1
  H+  H261  1  0.13657121  0.52990168  0.32855939  1
  H+  H262  1  0.79077402  0.14046008  0.05020169  1
  H+  H263  1  0.55343185  0.14873620  1.02281045  1
  H+  H264  1  0.21820619  0.85946878  0.98946398  1
  H+  H265  1  0.73217241  0.86066421  0.32844462  1
  H+  H266  1  0.97300700  0.09901733  0.16462790  1
  H+  H267  1  0.13362622  0.22336628  0.48285480  1
  H+  H268  1  0.88081407  0.65127357  0.17956280  1
  H+  H269  1  0.10920421  0.21983183  0.14754817  1
  H+  H270  1  0.26938743  0.12491029  0.33437405  1
  H+  H271  1  0.85371929  0.89198990  0.82858248  1
  H+  H272  1  0.38841698  0.74778142  0.63751728  1
  H+  H273  1  0.23512503  0.59719753  -0.01042968  1
  H+  H274  1  0.61800089  0.71989672  0.15689140  1
  H+  H275  1  0.65528192  1.02612677  0.00711936  1
  H+  H276  1  0.27674258  0.38156472  0.33260995  1
  H+  H277  1  0.78294734  0.63089089  0.17223684  1
  H+  H278  1  0.65031486  0.60394982  0.85727104  1
  H+  H279  1  0.80441877  0.12151707  0.48662847  1
  H+  H280  1  0.55951266  0.16412649  0.75232108  1
  H+  H281  1  0.30713568  0.91846181  0.48370997  1
  H+  H282  1  0.13613020  0.35214433  0.50979454  1
  H+  H283  1  0.59800398  0.42307589  0.73455461  1
  H+  H284  1  0.47395292  0.09847852  1.08899610  1
  H+  H285  1  0.51692970  0.15549809  0.49339373  1
  H+  H286  1  0.76969283  0.63175938  0.67465988  1
  H+  H287  1  0.64637705  0.14753082  1.00929480  1
  H+  H288  1  0.33166322  0.40900566  0.39456690  1
  H+  H289  1  0.07633384  0.15191967  0.09292294  1
  H+  H290  1  0.06767706  0.39254074  0.36327643  1
  H+  H291  1  0.66799637  0.83310484  0.59638931  1
  H+  H292  1  0.39165693  0.76210139  1.00569352  1
  H+  H293  1  0.53607255  0.63453401  -0.00244722  1
  H+  H294  1  0.58492317  0.41755782  0.43577849  1
  H+  H295  1  0.35885635  0.93848905  0.42161128  1
  H+  H296  1  0.07655507  0.41316555  0.45664130  1
  H+  H297  1  0.65159441  0.08493641  0.57523809  1
  H+  H298  1  0.21997994  0.35734399  0.65831090  1
  H+  H299  1  0.16951503  0.07622901  0.27101165  1
  H+  H300  1  0.91808042  0.07405753  0.25979577  1
  H+  H301  1  0.16958235  0.32109595  0.56415467  1
  H+  H302  1  0.97082004  0.63297445  0.25360714  1
  H+  H303  1  0.82982539  0.89834233  0.06196547  1
  H+  H304  1  0.71966039  0.09877823  0.96185682  1
  H+  H305  1  0.56251150  0.66788699  0.74628079  1
  H+  H306  1  0.66429366  0.57627813  0.60099248  1
  H+  H307  1  0.07878607  0.42535869  0.10343037  1
  H+  H308  1  0.15374002  0.82649015  0.89765726  1
  H+  H309  1  0.40910430  0.56706627  0.59402857  1
  H+  H310  1  0.37561860  0.60376247  0.50307712  1
  H+  H311  1  0.33544250  0.91362895  0.10740498  1
  H+  H312  1  0.58518257  0.66533879  0.39180725  1
  H+  H313  1  0.90578109  0.30716613  0.95127190  1
  H+  H314  1  0.07551708  0.65561129  0.76657659  1
  H+  H315  1  0.58802555  0.40858515  0.05664742  1
  H+  H316  1  0.82961247  0.67357563  0.73342080  1
  H+  H317  1  0.68538507  0.57266009  0.90885769  1
  H+  H318  1  0.71214574  0.83793324  0.83555150  1
  H+  H319  1  0.14608720  0.29706215  0.91080803  1
  H+  H320  1  0.96800420  0.35720740  0.66254522  1
  H+  H321  1  0.88846938  0.10489045  0.15535094  1
  H+  H322  1  0.32802698  0.41515713  0.73255109  1
  H+  H323  1  0.88278335  0.47561889  0.15282361  1
  H+  H324  1  0.92548746  0.62975996  0.49533195  1
  H+  H325  1  0.66395973  0.82562464  0.93129885  1
  H+  H326  1  0.59805592  0.93377306  0.43033706  1
  H+  H327  1  0.41130836  0.32115123  0.27013576  1
  H+  H328  1  0.32511162  0.59144574  0.81141499  1
  H+  H329  1  0.57839757  0.28803407  0.24549359  1
  H+  H330  1  0.70492626  0.35046331  0.27366283  1
  H+  H331  1  0.31965972  0.64507992  0.71411636  1
  H+  H332  1  0.77892735  0.63113899  1.00025760  1
  H+  H333  1  0.32007110  0.93385967  0.74269408  1
  H+  H334  1  0.59645303  0.18582176  0.39771399  1
  H+  H335  1  0.16826494  0.60510814  0.28269549  1
  H+  H336  1  0.64370343  0.09587347  0.23520880  1
  H+  H337  1  0.65801936  0.82904167  0.24218437  1
  H+  H338  1  0.41882920  0.09764698  0.88583467  1
  H+  H339  1  0.15614630  0.58766669  0.56605841  1
  H+  H340  1  0.42466432  0.12466822  1.04412017  1
  H+  H341  1  0.18743081  0.29533626  0.91174192  1
  H+  H342  1  0.23748931  0.36646982  0.16039772  1
  H+  H343  1  0.27871737  0.13620034  0.14257871  1
  H+  H344  1  0.83829103  0.91392351  0.39514828  1
  H+  H345  1  0.42791222  0.83238227  0.54661210  1
  H+  H346  1  0.66702957  0.57744102  0.26864913  1
  H+  H347  1  0.92817131  0.81393394  0.59316714  1
  H+  H348  1  0.17303833  0.32341414  0.25407684  1
  H+  H349  1  0.76986512  0.38196413  0.82251837  1
  H+  H350  1  0.28110087  0.89092933  0.34225540  1
  H+  H351  1  0.87564717  0.05138113  0.62420946  1
  H+  H352  1  0.53373340  0.89147343  0.34566123  1
  H+  H353  1  0.44118875  0.88014854  0.90995802  1
  H+  H354  1  0.32998279  0.61912387  0.04988885  1
  H+  H355  1  0.57501028  0.90497191  0.72692641  1
  H+  H356  1  0.08696408  0.10898161  0.83788478  1
  H+  H357  1  0.09781034  0.91954388  0.41454874  1
  H+  H358  1  0.86497087  0.38465701  0.00131336  1
  H+  H359  1  0.62369513  0.06588416  0.87534586  1
  H+  H360  1  0.68871925  0.71343250  0.45105592  1
  H+  H361  1  0.81527917  0.75714555  0.80491620  1
  H+  H362  1  0.31019097  0.16033151  0.76197752  1
  H+  H363  1  0.42391156  0.58333515  0.91991716  1
  H+  H364  1  0.85100885  0.16921588  0.38910683  1
  H+  H365  1  0.58892363  0.66225497  0.09656176  1
  H+  H366  1  0.16739966  0.59347179  0.93529616  1
  H+  H367  1  0.05366542  0.92639335  0.73211768  1
  H+  H368  1  0.60233236  0.93457975  0.10023821  1
  H+  H369  1  0.86925018  0.96837292  0.48704930  1
  H+  H370  1  0.32081540  0.16974387  0.07767723  1
  H+  H371  1  0.90042605  0.81876476  0.25859896  1
  H+  H372  1  0.83540577  0.41698291  0.74222850  1
  H+  H373  1  0.83654382  0.40065650  0.43548873  1
  H+  H374  1  0.07661686  0.65415294  0.05555324  1
  H+  H375  1  0.07878773  0.90167981  0.10779683  1
  H+  H376  1  0.96359193  0.08472140  0.54954672  1
  H+  H377  1  0.35610604  0.69561186  0.12588161  1
  H+  H378  1  0.10645444  0.13203815  0.66158006  1
  H+  H379  1  0.13033954  0.51600448  0.64911037  1
  H+  H380  1  0.60121513  0.09468531  0.66077858  1
  H+  H381  1  0.20228149  0.09778252  0.83054252  1
  H+  H382  1  0.08913172  0.41834585  0.71500768  1
  H+  H383  1  0.90330345  0.31798992  0.57286722  1
  O2-  O384  1  0.08086016  0.15770159  0.13784012  1
  O2-  O385  1  0.11238992  0.16675447  0.46276300  1
  O2-  O386  1  0.05491469  0.14277816  0.83731705  1
  O2-  O387  1  0.08204201  0.41731144  0.14810514  1
  O2-  O388  1  0.07669421  0.41396833  0.50081831  1
  O2-  O389  1  0.13992173  0.43816264  0.78562451  1
  O2-  O390  1  0.09365139  0.65096182  0.13336921  1
  O2-  O391  1  0.06296078  0.64919431  0.48586178  1
  O2-  O392  1  0.07474669  0.65975800  0.81225555  1
  O2-  O393  1  0.07829159  0.90140090  0.15269881  1
  O2-  O394  1  0.07426211  0.91131607  0.49760621  1
  O2-  O395  1  0.05906828  0.89740844  0.81647289  1
  O2-  O396  1  0.33417421  0.16649098  0.12067557  1
  O2-  O397  1  0.33663462  0.21398909  0.47411293  1
  O2-  O398  1  0.30979532  0.16112096  0.80796857  1
  O2-  O399  1  0.35110709  0.42132568  0.14521116  1
  O2-  O400  1  0.33023697  0.40728979  0.46999935  1
  O2-  O401  1  0.33630483  0.41245370  0.81802431  1
  O2-  O402  1  0.35812726  0.68664732  0.16936635  1
  O2-  O403  1  0.32906698  0.65505614  0.48294281  1
  O2-  O404  1  0.27765827  0.59353202  0.78854479  1
  O2-  O405  1  0.34812983  0.92565700  0.15099709  1
  O2-  O406  1  0.36588119  0.94233856  0.46942567  1
  O2-  O407  1  0.32310521  0.91930718  0.81677200  1
  O2-  O408  1  0.51453689  0.12800099  0.15706409  1
  O2-  O409  1  0.57819171  0.18069822  0.47832003  1
  O2-  O410  1  0.57093145  0.16738932  0.79691132  1
  O2-  O411  1  0.58073235  0.41609252  0.13245755  1
  O2-  O412  1  0.58567605  0.41953696  0.48117736  1
  O2-  O413  1  0.59044327  0.41339952  0.80689678  1
  O2-  O414  1  0.58688338  0.66004713  0.14205221  1
  O2-  O415  1  0.63075705  0.69040360  0.46730614  1
  O2-  O416  1  0.55610448  0.66406720  0.79258522  1
  O2-  O417  1  0.59933065  0.94039352  0.14506047  1
  O2-  O418  1  0.59374029  0.93359870  0.47692778  1
  O2-  O419  1  0.58161300  0.91216843  0.80389925  1
  O2-  O420  1  0.85919941  0.16812159  0.12385811  1
  O2-  O421  1  0.86295916  0.16340997  0.47484979  1
  O2-  O422  1  0.81857252  0.15469000  0.81496509  1
  O2-  O423  1  0.89980337  0.44736150  0.12270666  1
  O2-  O424  1  0.83318899  0.40053690  0.48243807  1
  O2-  O425  1  0.83208300  0.41354754  0.80914129  1
  O2-  O426  1  0.84294234  0.66915704  0.15909473  1
  O2-  O427  1  0.83142474  0.65085581  0.48552081  1
  O2-  O428  1  0.83035813  0.71017559  0.80642860  1
  O2-  O429  1  0.83041743  0.90820731  0.14108997  1
  O2-  O430  1  0.82970818  0.90894898  0.47271723  1
  O2-  O431  1  0.80443997  0.84646096  0.80717112  1
  O2-  O432  1  0.19454875  0.12471429  0.19534910  1
  O2-  O433  1  0.15724647  0.05617285  0.57354299  1
  O2-  O434  1  0.14267820  0.06603179  0.84792298  1
  O2-  O435  1  0.17444588  0.33112511  0.16763810  1
  O2-  O436  1  0.16858301  0.32268539  0.51869292  1
  O2-  O437  1  0.16144897  0.29656821  0.79343094  1
  O2-  O438  1  0.19088604  0.59358745  0.20432943  1
  O2-  O439  1  0.15034003  0.58500256  0.51998910  1
  O2-  O440  1  0.18659343  0.63935190  0.87212524  1
  O2-  O441  1  0.12101797  0.79891523  0.20840332  1
  O2-  O442  1  0.12897441  0.79919674  0.53582168  1
  O2-  O443  1  0.15425994  0.82841646  0.85175090  1
  O2-  O444  1  0.43323757  0.08130783  0.18985492  1
  O2-  O445  1  0.42248330  0.10695511  0.52396604  1
  O2-  O446  1  0.40990063  0.09056441  0.84204756  1
  O2-  O447  1  0.42193299  0.31012997  0.18455162  1
  O2-  O448  1  0.42029508  0.33941561  0.53084380  1
  O2-  O449  1  0.41823967  0.32680237  0.84587221  1
  O2-  O450  1  0.42361025  0.58599463  0.18840754  1
  O2-  O451  1  0.40656156  0.57186169  0.51708430  1
  O2-  O452  1  0.39983192  0.57560814  0.84648541  1
  O2-  O453  1  0.44045498  0.85603218  0.19937223  1
  O2-  O454  1  0.43821651  0.85517647  0.50353318  1
  O2-  O455  1  0.46013814  0.91559045  0.87346500  1
  O2-  O456  1  0.62754508  0.09483097  0.19169732  1
  O2-  O457  1  0.65888611  0.09217978  0.52946503  1
  O2-  O458  1  0.64615953  0.07532208  0.83395020  1
  O2-  O459  1  0.55560951  0.28321483  0.20426031  1
  O2-  O460  1  0.66799888  0.33683722  0.52571989  1
  O2-  O461  1  0.66985907  0.32745391  0.84714468  1
  O2-  O462  1  0.66807013  0.57617181  0.18992765  1
  O2-  O463  1  0.66772857  0.57497300  0.52680728  1
  O2-  O464  1  0.68345184  0.57506888  0.86299542  1
  O2-  O465  1  0.63940324  0.82156267  0.19782503  1
  O2-  O466  1  0.67032313  0.84101875  0.51822261  1
  O2-  O467  1  0.65399416  0.82227757  0.85202201  1
  O2-  O468  1  0.91170126  0.07014566  0.17701049  1
  O2-  O469  1  0.94275439  0.07458381  0.50778284  1
  O2-  O470  1  0.89972588  0.07039832  0.85955749  1
  O2-  O471  1  0.90342930  0.31296580  0.17280939  1
  O2-  O472  1  0.90964733  0.31703969  0.52790498  1
  O2-  O473  1  0.89659541  0.31739138  0.86593723  1
  O2-  O474  1  0.97222122  0.64982435  0.21070721  1
  O2-  O475  1  0.86939848  0.60182639  0.51566227  1
  O2-  O476  1  0.90733647  0.57624033  0.85085197  1
  O2-  O477  1  0.90438645  0.82354290  0.19616544  1
  O2-  O478  1  0.90488813  0.82549260  0.51458529  1
  O2-  O479  1  0.98022085  0.85145645  0.85330600  1
  O2-  O480  1  0.17058372  0.07595935  0.31602150  1
  O2-  O481  1  0.15763899  0.07417542  0.63909570  1
  O2-  O482  1  0.14752977  0.06763438  0.97147670  1
  O2-  O483  1  0.17010546  0.32848785  0.29864294  1
  O2-  O484  1  0.15998903  0.32773869  0.64152492  1
  O2-  O485  1  0.18447085  0.35882016  1.02230817  1
  O2-  O486  1  0.15987346  0.59288640  0.32691572  1
  O2-  O487  1  0.15959803  0.57860415  0.63868000  1
  O2-  O488  1  0.17260293  0.57585601  0.97890863  1
  O2-  O489  1  0.18852090  0.83865650  0.32881287  1
  O2-  O490  1  0.14497641  0.82052216  0.65018418  1
  O2-  O491  1  0.15882509  0.82797914  0.97346596  1
  O2-  O492  1  0.41114315  0.08522365  0.30940358  1
  O2-  O493  1  0.44133259  0.10751178  0.65375026  1
  O2-  O494  1  0.45576521  0.09301703  1.04462009  1
  O2-  O495  1  0.41386184  0.32202602  0.31500771  1
  O2-  O496  1  0.39786269  0.33192250  0.65262714  1
  O2-  O497  1  0.42722628  0.34197187  0.96860377  1
  O2-  O498  1  0.41276873  0.57885806  0.30945957  1
  O2-  O499  1  0.41158194  0.57134019  0.63952017  1
  O2-  O500  1  0.43214979  0.58964871  0.96551855  1
  O2-  O501  1  0.43099079  0.84223540  0.32320308  1
  O2-  O502  1  0.42154168  0.80857302  0.62073113  1
  O2-  O503  1  0.42156641  0.82565073  1.01000166  1
  O2-  O504  1  0.67178351  0.09124816  0.31113336  1
  O2-  O505  1  0.64281392  0.07614235  0.64967020  1
  O2-  O506  1  0.69070752  0.09053031  1.00081759  1
  O2-  O507  1  0.67433686  0.34260719  0.31190564  1
  O2-  O508  1  0.65457152  0.32864272  0.64437923  1
  O2-  O509  1  0.67746769  0.32966093  0.97356148  1
  O2-  O510  1  0.66710092  0.58099626  0.31407070  1
  O2-  O511  1  0.66362140  0.57787981  0.64707322  1
  O2-  O512  1  0.68011104  0.57920327  0.98381729  1
  O2-  O513  1  0.67045288  0.83320620  0.31562706  1
  O2-  O514  1  0.66350666  0.82542891  0.64151363  1
  O2-  O515  1  0.66612744  0.82626485  0.97681600  1
  O2-  O516  1  0.92102962  0.07470385  0.30509622  1
  O2-  O517  1  0.89821623  0.07284321  0.66467773  1
  O2-  O518  1  0.89265509  0.06397122  0.98502478  1
  O2-  O519  1  0.90839527  0.32122213  0.29508659  1
  O2-  O520  1  0.90441932  0.33057523  0.65353841  1
  O2-  O521  1  0.91555545  0.32186894  0.99488311  1
  O2-  O522  1  0.99794149  0.65668275  0.33743987  1
  O2-  O523  1  0.90132904  0.56942993  0.65125291  1
  O2-  O524  1  0.91611736  0.58338749  0.97144626  1
  O2-  O525  1  0.90109066  0.81776095  0.30823249  1
  O2-  O526  1  0.95236297  0.80369621  0.63044946  1
  O2-  O527  1  0.91746993  0.82406973  0.97333561  1
  O2-  O528  1  0.06008559  0.13632222  0.01284205  1
  O2-  O529  1  0.09423096  0.16925407  0.34440766  1
  O2-  O530  1  0.08196189  0.16622071  0.67920640  1
  O2-  O531  1  0.07898052  0.42786440  0.02419770  1
  O2-  O532  1  0.08665625  0.41299681  0.32214832  1
  O2-  O533  1  0.07392928  0.40891639  0.67107668  1
  O2-  O534  1  0.06951875  0.65809644  0.01091852  1
  O2-  O535  1  0.02325701  0.60457123  0.37507362  1
  O2-  O536  1  0.07607648  0.65448203  0.69079210  1
  O2-  O537  1  0.08030380  0.90598166  0.02372761  1
  O2-  O538  1  0.10234986  0.91308688  0.37047128  1
  O2-  O539  1  0.04297339  0.94342783  0.69220319  1
  O2-  O540  1  0.31716309  0.17862057  -0.00513640  1
  O2-  O541  1  0.33316967  0.15405606  0.34457111  1
  O2-  O542  1  0.31816212  0.15833056  0.68712950  1
  O2-  O543  1  0.36367565  0.43662052  0.02216415  1
  O2-  O544  1  0.33628157  0.41221760  0.34865420  1
  O2-  O545  1  0.32172214  0.41230551  0.68783042  1
  O2-  O546  1  0.33487939  0.64294285  0.00919527  1
  O2-  O547  1  0.33737620  0.67171726  0.35699836  1
  O2-  O548  1  0.32827079  0.65261012  0.66946886  1
  O2-  O549  1  0.32691984  0.91494543  0.02141480  1
  O2-  O550  1  0.34631376  0.92800615  0.35473980  1
  O2-  O551  1  0.32132413  0.94530124  0.69753611  1
  O2-  O552  1  0.61882420  0.18371916  0.01953082  1
  O2-  O553  1  0.60903040  0.19198100  0.35357315  1
  O2-  O554  1  0.53139680  0.14362433  0.67499362  1
  O2-  O555  1  0.59358215  0.41062284  0.01102447  1
  O2-  O556  1  0.58266322  0.41646665  0.35616824  1
  O2-  O557  1  0.59987187  0.42635051  0.68813077  1
  O2-  O558  1  0.59398295  0.66147039  0.01670358  1
  O2-  O559  1  0.58108211  0.66319043  0.34679262  1
  O2-  O560  1  0.57629236  0.66023368  0.67571293  1
  O2-  O561  1  0.60238624  0.92233540  0.02055163  1
  O2-  O562  1  0.59557133  0.92422708  0.35913922  1
  O2-  O563  1  0.57997068  0.90946405  0.68144293  1
  O2-  O564  1  0.85369021  0.16872976  0.05591848  1
  O2-  O565  1  0.84278446  0.16345307  0.34468226  1
  O2-  O566  1  0.81735014  0.16498681  0.69218377  1
  O2-  O567  1  0.83759700  0.41913837  0.01245012  1
  O2-  O568  1  0.84094691  0.40548341  0.36566187  1
  O2-  O569  1  0.83660082  0.41628006  0.69399242  1
  O2-  O570  1  0.84373991  0.66449110  0.00759411  1
  O2-  O571  1  0.83391530  0.66375027  0.35608880  1
  O2-  O572  1  0.82917682  0.65540628  0.69048343  1
  O2-  O573  1  0.82947066  0.89804037  0.01641537  1
  O2-  O574  1  0.83786282  0.91165303  0.34951316  1
  O2-  O575  1  0.82098463  0.89422107  0.69676439  1
