# generated using pymatgen
data_H2O
_symmetry_space_group_name_H-M   'P 1'
_cell_length_a   17.96272471
_cell_length_b   17.96421248
_cell_length_c   21.97217496
_cell_angle_alpha   90.04884068
_cell_angle_beta   90.01534728
_cell_angle_gamma   119.95516388
_symmetry_Int_Tables_number   1
_chemical_formula_structural   H2O
_chemical_formula_sum   'H384 O192'
_cell_volume   6142.99012156
_cell_formula_units_Z   192
loop_
 _symmetry_equiv_pos_site_id
 _symmetry_equiv_pos_as_xyz
  1  'x, y, z'
loop_
 _atom_type_symbol
 _atom_type_oxidation_number
  H+  1.0
  O2-  -2.0
loop_
 _atom_site_type_symbol
 _atom_site_label
 _atom_site_symmetry_multiplicity
 _atom_site_fract_x
 _atom_site_fract_y
 _atom_site_fract_z
 _atom_site_occupancy
  H+  H0  1  0.01639177  0.61969087  0.83425835  1
  H+  H1  1  0.59433403  0.67721125  0.43488835  1
  H+  H2  1  0.60776806  0.63241216  0.01215964  1
  H+  H3  1  0.69085074  0.18148290  0.34141972  1
  H+  H4  1  0.87083927  0.64055359  0.33882637  1
  H+  H5  1  0.84576137  0.86766548  0.82527053  1
  H+  H6  1  0.57861875  -0.06880807  0.29653417  1
  H+  H7  1  0.57929708  0.95107898  0.32706537  1
  H+  H8  1  0.39601431  0.26338051  0.32368023  1
  H+  H9  1  0.30568622  0.40595188  0.78871344  1
  H+  H10  1  0.13621335  0.02728970  0.99597304  1
  H+  H11  1  0.66371924  0.32800432  0.43330058  1
  H+  H12  1  0.67603890  0.05639491  0.31463467  1
  H+  H13  1  0.89301312  0.52878244  0.50438397  1
  H+  H14  1  0.79844599  0.62375290  0.77990488  1
  H+  H15  1  0.56043644  0.17910204  0.28744977  1
  H+  H16  1  0.38887440  0.62085332  0.84759278  1
  H+  H17  1  0.23924149  0.86789303  0.98241878  1
  H+  H18  1  0.86977212  0.50253379  0.67969178  1
  H+  H19  1  0.40370776  0.30108246  0.84117185  1
  H+  H20  1  0.35270634  0.39712002  0.15795099  1
  H+  H21  1  0.13863280  0.51329164  0.84183070  1
  H+  H22  1  -0.01420432  0.62248370  0.31997414  1
  H+  H23  1  0.38797055  0.87083856  0.85707400  1
  H+  H24  1  0.12936395  0.85635032  0.82697377  1
  H+  H25  1  0.33144488  0.91433828  0.43809037  1
  H+  H26  1  0.26446849  0.61642978  0.16411924  1
  H+  H27  1  0.65655955  0.14485541  0.50838246  1
  H+  H28  1  0.23424655  0.36376170  0.50917300  1
  H+  H29  1  0.39186899  0.61749854  0.32885528  1
  H+  H30  1  0.12330305  0.16326637  0.19217933  1
  H+  H31  1  0.14342332  0.27479062  0.50796980  1
  H+  H32  1  0.61415476  0.39617911  0.00827119  1
  H+  H33  1  0.81417839  -0.10794566  0.76538484  1
  H+  H34  1  0.49549107  0.87053486  0.15540846  1
  H+  H35  1  0.88388046  0.27449297  0.83206308  1
  H+  H36  1  -0.00395550  0.10926673  1.00717506  1
  H+  H37  1  0.48436596  0.62189230  0.50545885  1
  H+  H38  1  0.79028010  0.38827679  0.16609533  1
  H+  H39  1  0.63823700  0.37396149  0.48435365  1
  H+  H40  1  0.58632614  0.00325911  0.17427297  1
  H+  H41  1  0.91373572  0.79444240  0.64860088  1
  H+  H42  1  0.77240909  0.88849617  0.33628542  1
  H+  H43  1  1.02853106  0.14697332  0.33499813  1
  H+  H44  1  0.60834444  -0.02452226  0.83163489  1
  H+  H45  1  0.86779604  0.12186200  0.00904458  1
  H+  H46  1  0.89653890  0.53575253  0.32003968  1
  H+  H47  1  0.09854590  0.36600978  0.00633961  1
  H+  H48  1  0.58820811  0.18795907  0.57031192  1
  H+  H49  1  0.11440232  0.64179292  0.48632830  1
  H+  H50  1  0.13952760  0.05147139  0.21299051  1
  H+  H51  1  0.86248374  -0.02186387  0.33372714  1
  H+  H52  1  0.16988816  0.35485926  0.66504355  1
  H+  H53  1  0.21614665  0.86948631  0.32745828  1
  H+  H54  1  0.86789023  0.12908033  0.66370635  1
  H+  H55  1  0.66528684  0.08267118  0.89781963  1
  H+  H56  1  0.66912393  0.83835349  0.57155966  1
  H+  H57  1  0.10783686  0.88269026  0.48651616  1
  H+  H58  1  0.12946541  0.80268527  0.16424045  1
  H+  H59  1  0.22826941  0.13246504  0.30803405  1
  H+  H60  1  0.63827488  0.52807476  0.17250679  1
  H+  H61  1  0.61848831  0.63024490  0.34056265  1
  H+  H62  1  0.92329800  0.59048895  0.22916656  1
  H+  H63  1  0.32355375  0.17887820  0.11079065  1
  H+  H64  1  0.93628741  0.34420200  0.26890951  1
  H+  H65  1  0.64168130  0.33561875  0.65695895  1
  H+  H66  1  0.38594938  0.78069490  0.85977286  1
  H+  H67  1  0.12464612  0.27707255  0.18390793  1
  H+  H68  1  0.77740504  0.88072379  0.01426564  1
  H+  H69  1  0.27648015  0.15988128  0.17603320  1
  H+  H70  1  0.88525938  0.51962977  0.84672352  1
  H+  H71  1  0.77619042  0.38532195  0.82451222  1
  H+  H72  1  0.38010616  1.02588543  0.50557402  1
  H+  H73  1  0.23374705  0.85584686  0.69318854  1
  H+  H74  1  0.15368637  0.56197512  0.93877293  1
  H+  H75  1  0.41558402  0.34447779  0.57391578  1
  H+  H76  1  0.50583913  0.62319594  0.00884346  1
  H+  H77  1  0.72073588  0.62291753  1.00418123  1
  H+  H78  1  0.86211168  0.72737397  0.49196694  1
  H+  H79  1  0.27476945  0.63051084  0.34206582  1
  H+  H80  1  0.84934248  0.96361766  0.16404577  1
  H+  H81  1  0.13462054  0.27946653  0.32571762  1
  H+  H82  1  0.80705949  0.15949653  0.32190543  1
  H+  H83  1  0.12199435  0.88310682  0.98819682  1
  H+  H84  1  0.10848479  0.12779540  0.83148055  1
  H+  H85  1  0.08884672  0.39981067  0.73714642  1
  H+  H86  1  0.89432532  0.24666690  0.33275921  1
  H+  H87  1  0.03247344  0.39308836  0.34702002  1
  H+  H88  1  0.14461667  0.52084441  0.33439836  1
  H+  H89  1  0.11037174  0.62738691  0.33363970  1
  H+  H90  1  0.78356237  0.39175407  0.48491656  1
  H+  H91  1  0.24411755  0.62888445  0.50143882  1
  H+  H92  1  0.51533631  0.15587003  1.00951348  1
  H+  H93  1  0.13706959  0.37146532  0.33292633  1
  H+  H94  1  0.21228938  0.35159596  0.86594311  1
  H+  H95  1  0.13554467  0.89456238  0.17417900  1
  H+  H96  1  0.20958603  0.58837040  1.00055164  1
  H+  H97  1  0.36953940  0.39200752  0.49733285  1
  H+  H98  1  0.33822469  0.67682628  0.78406307  1
  H+  H99  1  0.86426520  0.72596957  0.34373103  1
  H+  H100  1  0.62491186  0.08469838  0.64819300  1
  H+  H101  1  0.47900561  0.37048506  0.51607149  1
  H+  H102  1  0.85903637  -0.03016332  0.67234313  1
  H+  H103  1  0.46724841  0.11670206  0.51578525  1
  H+  H104  1  0.50815998  0.11706035  0.66565345  1
  H+  H105  1  0.61940964  0.48827243  0.50197430  1
  H+  H106  1  0.62890160  0.85605829  0.85521683  1
  H+  H107  1  0.55574857  0.13721276  0.29776731  1
  H+  H108  1  0.97312675  0.12118090  0.84253712  1
  H+  H109  1  0.12660757  0.08849941  0.66028239  1
  H+  H110  1  0.87091358  0.96569770  0.02246291  1
  H+  H111  1  0.77153060  0.43260441  0.69445475  1
  H+  H112  1  0.11618871  0.87730088  0.68702181  1
  H+  H113  1  1.00199571  0.60521291  0.65599867  1
  H+  H114  1  0.58020599  0.64745161  0.76208949  1
  H+  H115  1  0.28621428  0.20798495  0.81156163  1
  H+  H116  1  0.71802110  0.11461422  0.83449072  1
  H+  H117  1  0.88536769  0.86523124  0.33050307  1
  H+  H118  1  0.87591007  0.85941538  0.64621499  1
  H+  H119  1  0.40024824  0.78813832  0.51413906  1
  H+  H120  1  0.35176655  0.38580197  1.00802668  1
  H+  H121  1  0.49191433  0.39106474  0.84791700  1
  H+  H122  1  0.51761928  0.63638370  0.16143410  1
  H+  H123  1  0.52920771  0.63180239  0.34001414  1
  H+  H124  1  0.37978092  0.02505173  0.66414232  1
  H+  H125  1  0.64152595  0.76362815  0.32733783  1
  H+  H126  1  0.42461073  0.59592456  0.60323654  1
  H+  H127  1  0.72895163  0.87429149  0.51100542  1
  H+  H128  1  0.83927947  0.39201197  0.07144552  1
  H+  H129  1  0.61064890  -0.03430426  0.68928576  1
  H+  H130  1  0.66764133  0.09522638  0.25368430  1
  H+  H131  1  0.50517076  0.41108889  0.68422896  1
  H+  H132  1  0.10605607  0.70737280  0.82855604  1
  H+  H133  1  0.39751223  0.62283193  0.66462804  1
  H+  H134  1  0.90527508  0.83188820  0.55458552  1
  H+  H135  1  0.35770365  0.72307873  0.33794445  1
  H+  H136  1  0.62357609  0.64904472  0.67124817  1
  H+  H137  1  0.10654672  0.97087436  0.83224871  1
  H+  H138  1  0.08846931  0.68764365  0.09144360  1
  H+  H139  1  0.38910524  0.52736599  0.32755394  1
  H+  H140  1  0.37078196  0.89342644  0.68248810  1
  H+  H141  1  0.61453365  0.39459861  0.69475618  1
  H+  H142  1  0.26790590  0.90028257  0.15551713  1
  H+  H143  1  0.57468646  0.90549972  0.74801167  1
  H+  H144  1  0.58861303  0.88021244  0.15171213  1
  H+  H145  1  0.62444387  0.83873778  0.33597444  1
  H+  H146  1  0.34534613  0.96501022  0.34334607  1
  H+  H147  1  1.01599647  0.90901037  0.17982880  1
  H+  H148  1  0.88007423  0.34235157  -0.00461732  1
  H+  H149  1  0.13274711  0.59876153  0.84670238  1
  H+  H150  1  -0.03320819  0.86091775  0.49497155  1
  H+  H151  1  0.22256774  0.09963548  0.85049435  1
  H+  H152  1  0.88897523  0.02693610  0.50043949  1
  H+  H153  1  0.90462792  0.37765909  0.32672792  1
  H+  H154  1  0.35796521  0.23067380  0.49473046  1
  H+  H155  1  0.60471354  0.72783821  0.15835289  1
  H+  H156  1  0.79507066  0.15995602  0.47889078  1
  H+  H157  1  0.36372500  0.76241145  0.17307414  1
  H+  H158  1  0.92710785  0.05530888  0.95224727  1
  H+  H159  1  0.10594713  0.37359440  0.83260705  1
  H+  H160  1  0.34021886  0.13034071  0.33952609  1
  H+  H161  1  0.35695998  0.14168318  0.49087371  1
  H+  H162  1  0.36147008  -0.01265034  0.83719656  1
  H+  H163  1  0.63832537  0.61694736  0.17480799  1
  H+  H164  1  0.03184695  0.15230640  0.16995105  1
  H+  H165  1  0.09138948  0.41912394  0.40848609  1
  H+  H166  1  0.27511794  0.63788364  0.84103788  1
  H+  H167  1  0.89085269  0.77620439  0.17631140  1
  H+  H168  1  0.15137077  0.76091003  0.68759080  1
  H+  H169  1  0.62812046  0.28071691  1.00156444  1
  H+  H170  1  0.38328615  0.53028891  0.17300340  1
  H+  H171  1  0.44027710  0.10029053  0.33559646  1
  H+  H172  1  0.37567071  0.12124497  1.00191945  1
  H+  H173  1  0.88955532  0.76862975  0.83839354  1
  H+  H174  1  0.65221966  0.37570019  0.33423691  1
  H+  H175  1  0.63417498  0.61700094  0.84254139  1
  H+  H176  1  0.56205243  0.13725006  0.77021966  1
  H+  H177  1  0.97866084  0.62267138  0.16768839  1
  H+  H178  1  0.12660357  0.21145926  0.67375367  1
  H+  H179  1  0.64651471  0.37743034  0.17527678  1
  H+  H180  1  1.02679818  0.14019264  0.49092005  1
  H+  H181  1  0.53583686  0.38761942  0.34452312  1
  H+  H182  1  0.12395761  0.72697710  -0.00325385  1
  H+  H183  1  0.02333435  0.63782108  0.48865285  1
  H+  H184  1  0.16726616  0.81915963  0.78004532  1
  H+  H185  1  0.65934317  0.33835291  0.77099424  1
  H+  H186  1  0.39959631  0.00555335  0.18038023  1
  H+  H187  1  0.12977070  0.77624657  0.49735450  1
  H+  H188  1  0.12894889  0.48506415  0.49952619  1
  H+  H189  1  0.45755639  0.84999326  0.32578767  1
  H+  H190  1  0.87666186  0.85779535  0.17885165  1
  H+  H191  1  0.36515163  0.73291853  0.68564423  1
  H+  H192  1  0.79414374  0.40460927  0.33542942  1
  H+  H193  1  0.89631495  0.25596273  0.65380364  1
  H+  H194  1  0.52448735  0.39706100  0.15840756  1
  H+  H195  1  0.93863993  0.68284927  0.67407255  1
  H+  H196  1  0.77899716  0.13089904  0.65965972  1
  H+  H197  1  0.62893554  0.26811895  0.82143218  1
  H+  H198  1  0.77759842  0.64143551  0.16468702  1
  H+  H199  1  0.63351727  0.85892292  0.66811209  1
  H+  H200  1  0.93460025  0.07409740  0.11564325  1
  H+  H201  1  0.35754039  0.38733124  0.33567876  1
  H+  H202  1  0.64353866  0.62392427  0.50756648  1
  H+  H203  1  0.37671536  0.90697782  1.00972515  1
  H+  H204  1  0.10749192  0.58178079  0.69091762  1
  H+  H205  1  -0.01981981  0.10851394  0.65613296  1
  H+  H206  1  0.21669201  0.86520829  0.50333297  1
  H+  H207  1  0.53121906  0.64576808  0.67241318  1
  H+  H208  1  0.37467669  0.64780144  0.49442853  1
  H+  H209  1  0.63788339  0.54412433  0.66366323  1
  H+  H210  1  0.71120223  0.84688221  0.84669903  1
  H+  H211  1  1.02030582  0.37916036  0.82428365  1
  H+  H212  1  0.62915901  0.99979571  0.50828866  1
  H+  H213  1  0.13093798  0.10829776  0.50527874  1
  H+  H214  1  0.10115240  0.46365463  0.00227591  1
  H+  H215  1  0.01638489  0.88119121  0.82912292  1
  H+  H216  1  0.77404358  0.36686608  1.01552300  1
  H+  H217  1  0.88933616  0.61631425  0.50696348  1
  H+  H218  1  0.73156022  0.62076523  0.50743213  1
  H+  H219  1  0.60205238  0.12670112  0.83157569  1
  H+  H220  1  0.90200231  0.12397822  0.31582574  1
  H+  H221  1  0.34545173  0.62281537  1.00926338  1
  H+  H222  1  0.62847721  0.49871880  0.84282202  1
  H+  H223  1  0.62061310  0.73933167  0.49423408  1
  H+  H224  1  0.51840187  0.88812428  0.83861775  1
  H+  H225  1  0.01258169  0.88197511  0.33996767  1
  H+  H226  1  0.39579124  0.53668304  0.83579884  1
  H+  H227  1  0.86950124  0.62789858  0.82706758  1
  H+  H228  1  0.15491433  0.34553187  0.24728483  1
  H+  H229  1  0.38044460  0.28978410  0.16780523  1
  H+  H230  1  0.76839125  0.88293976  0.66974841  1
  H+  H231  1  0.88737885  0.85736296  -0.00155217  1
  H+  H232  1  0.99274713  0.37153734  0.51056792  1
  H+  H233  1  0.34837801  0.87732588  0.34043813  1
  H+  H234  1  0.39502463  0.53236890  0.50617121  1
  H+  H235  1  0.27716540  0.89477084  0.82836644  1
  H+  H236  1  0.56714094  0.85312784  0.42859743  1
  H+  H237  1  0.91006584  0.36437237  0.17617372  1
  H+  H238  1  0.88962653  0.36609045  0.83773916  1
  H+  H239  1  0.12720174  0.68292625  0.15506192  1
  H+  H240  1  0.39025771  0.40608830  0.81168930  1
  H+  H241  1  0.85598596  0.14043118  0.82064903  1
  H+  H242  1  0.67475364  0.29769063  0.33351023  1
  H+  H243  1  0.89564698  0.11965122  0.49952777  1
  H+  H244  1  0.64355401  0.79171885  1.00347624  1
  H+  H245  1  0.91360154  0.83254809  0.27165784  1
  H+  H246  1  0.32051596  0.17196455  0.39755859  1
  H+  H247  1  0.35579839  0.23440369  1.01358558  1
  H+  H248  1  0.36442967  0.89395430  0.50060614  1
  H+  H249  1  0.86453974  0.20884877  1.00150820  1
  H+  H250  1  0.91403579  0.32314223  0.93052750  1
  H+  H251  1  0.87191789  0.39089726  0.49399956  1
  H+  H252  1  0.87734489  0.47664476  0.16153354  1
  H+  H253  1  0.27062731  0.38945047  0.33760171  1
  H+  H254  1  0.26656011  0.14511356  0.01337687  1
  H+  H255  1  0.73437068  0.61167624  0.32847783  1
  H+  H256  1  0.49957393  0.76318681  0.40462399  1
  H+  H257  1  0.87134107  0.22209264  0.16044642  1
  H+  H258  1  0.46765770  0.12038931  0.84408331  1
  H+  H259  1  0.38271346  0.12818268  0.84303657  1
  H+  H260  1  0.85648258  0.72403945  0.00951289  1
  H+  H261  1  0.86584555  0.63875176  0.16238098  1
  H+  H262  1  0.62004234  0.40549110  0.82843167  1
  H+  H263  1  0.20565888  0.34865489  1.00102043  1
  H+  H264  1  0.28008648  0.64159935  0.69051202  1
  H+  H265  1  0.11310394  0.88972124  0.33451058  1
  H+  H266  1  0.90533448  0.28006755  0.50280097  1
  H+  H267  1  0.97605283  0.62357880  0.99220180  1
  H+  H268  1  0.60238418  0.19650729  0.68187136  1
  H+  H269  1  0.60002076  0.14917910  0.15858987  1
  H+  H270  1  0.36142577  0.63929578  0.16221646  1
  H+  H271  1  0.52403814  0.62587434  0.82390015  1
  H+  H272  1  0.85913627  0.88898977  0.48882714  1
  H+  H273  1  0.48475709  0.88006036  0.52796435  1
  H+  H274  1  0.40128382  0.82741054  0.26429469  1
  H+  H275  1  0.32916553  0.92255176  0.09668565  1
  H+  H276  1  0.36120861  0.98796597  0.00644276  1
  H+  H277  1  0.47346099  0.37089174  0.99921498  1
  H+  H278  1  0.93245205  0.14679698  0.89604857  1
  H+  H279  1  0.61060936  0.48427234  0.00912490  1
  H+  H280  1  0.83628395  0.16437789  0.09957885  1
  H+  H281  1  0.67806405  0.84200198  0.94126243  1
  H+  H282  1  0.38237996  0.51790151  0.99484249  1
  H+  H283  1  0.37552799  0.16023696  0.67689519  1
  H+  H284  1  0.61172101  0.24100349  0.50865456  1
  H+  H285  1  0.63661584  0.77162662  0.66384018  1
  H+  H286  1  0.10941198  0.21680827  0.83127997  1
  H+  H287  1  0.72356872  0.09512341  0.98931406  1
  H+  H288  1  0.47517827  0.85985332  0.67254542  1
  H+  H289  1  0.08752334  0.63235632  0.74146553  1
  H+  H290  1  0.37258172  0.24944798  0.67707609  1
  H+  H291  1  0.88454427  0.61856718  -0.00628454  1
  H+  H292  1  0.09025279  0.16590308  0.06826434  1
  H+  H293  1  0.34863354  0.93037352  0.74240764  1
  H+  H294  1  0.62432147  0.02248875  0.98583840  1
  H+  H295  1  0.85913056  0.18426785  0.42221641  1
  H+  H296  1  0.62149471  0.48078645  0.34381210  1
  H+  H297  1  0.14276155  0.31278654  0.91711382  1
  H+  H298  1  0.16564326  0.85764249  0.26353708  1
  H+  H299  1  0.11075982  0.63188816  0.00534233  1
  H+  H300  1  0.14525460  0.47061779  0.18590351  1
  H+  H301  1  0.33717701  0.41883457  0.43739483  1
  H+  H302  1  0.34290809  0.67724241  0.43517141  1
  H+  H303  1  0.82899279  0.66668417  0.07022872  1
  H+  H304  1  0.72153885  0.34485844  0.59132310  1
  H+  H305  1  0.18272596  0.83124346  0.92149234  1
  H+  H306  1  0.08043051  0.66022709  0.39096647  1
  H+  H307  1  0.44112405  0.85694272  0.95193840  1
  H+  H308  1  0.11901841  0.97895697  0.66769709  1
  H+  H309  1  0.73328693  0.64065232  0.85612239  1
  H+  H310  1  0.70941035  0.85836983  0.17366400  1
  H+  H311  1  0.07686389  0.91396882  0.40245811  1
  H+  H312  1  0.85371021  0.43085510  0.39464957  1
  H+  H313  1  0.91596359  0.58671601  0.90407943  1
  H+  H314  1  0.57301440  0.18755989  0.06930936  1
  H+  H315  1  0.11934927  0.15383455  0.33072630  1
  H+  H316  1  0.92206168  0.08203363  0.59552057  1
  H+  H317  1  0.16244379  0.08075079  0.90860215  1
  H+  H318  1  0.09486487  0.90010338  0.05159039  1
  H+  H319  1  0.72975318  0.38954993  0.58477914  1
  H+  H320  1  0.40605874  0.09528448  0.94052238  1
  H+  H321  1  0.94045689  0.59190776  0.59803018  1
  H+  H322  1  0.40139399  0.06494629  0.27130813  1
  H+  H323  1  0.40246236  0.08057160  0.60204018  1
  H+  H324  1  0.67822636  0.34992052  0.23497545  1
  H+  H325  1  0.07758733  0.97609768  0.13096372  1
  H+  H326  1  0.63064590  0.17789415  0.39337243  1
  H+  H327  1  0.11843010  0.24926435  1.00541044  1
  H+  H328  1  0.26464644  0.40014996  0.16047100  1
  H+  H329  1  0.67242469  0.34314511  0.94402302  1
  H+  H330  1  0.91329375  0.82463716  0.89959397  1
  H+  H331  1  0.08142230  0.91700886  0.73840853  1
  H+  H332  1  0.08861235  0.17285619  0.43279571  1
  H+  H333  1  0.82768063  0.16607001  0.75882642  1
  H+  H334  1  0.58590932  0.42369473  0.10085437  1
  H+  H335  1  0.53499505  0.90626939  0.05646839  1
  H+  H336  1  0.82160227  0.90032483  0.10737122  1
  H+  H337  1  0.82890302  0.92191556  0.43177717  1
  H+  H338  1  0.41815502  0.58794699  0.23395710  1
  H+  H339  1  0.56573772  0.44905939  0.74586332  1
  H+  H340  1  0.62848452  0.91165267  0.52674809  1
  H+  H341  1  0.37301113  0.41581861  0.71123390  1
  H+  H342  1  0.41636659  0.34603934  0.93925702  1
  H+  H343  1  0.13054971  0.11617497  0.99978107  1
  H+  H344  1  0.18667537  0.32442185  0.60116545  1
  H+  H345  1  0.99504346  0.34771364  0.65886011  1
  H+  H346  1  0.29986362  0.36319215  0.65709589  1
  H+  H347  1  0.92821444  0.08492939  0.25979742  1
  H+  H348  1  0.53672103  0.04318628  0.20866347  1
  H+  H349  1  0.08577536  0.15384569  0.73293148  1
  H+  H350  1  0.47689941  0.10506709  0.18364205  1
  H+  H351  1  0.67340712  0.58202234  0.26880016  1
  H+  H352  1  0.00301686  0.36662780  -0.00256519  1
  H+  H353  1  0.16035025  0.49237603  0.63662201  1
  H+  H354  1  0.36630109  0.85386740  0.17024522  1
  H+  H355  1  0.97518884  0.85476840  0.99084676  1
  H+  H356  1  0.89146194  0.11849075  0.15413859  1
  H+  H357  1  0.46984746  0.29200649  0.27606033  1
  H+  H358  1  0.93542167  0.32608371  0.59182408  1
  H+  H359  1  0.91247830  0.71472092  0.73297517  1
  H+  H360  1  0.10716887  0.97293482  0.48682023  1
  H+  H361  1  0.64940594  0.82761910  0.23172320  1
  H+  H362  1  0.41509454  0.83386182  0.61278921  1
  H+  H363  1  0.99211239  0.34833707  0.18308748  1
  H+  H364  1  0.34392645  0.19327143  0.76428980  1
  H+  H365  1  0.67316247  0.59861510  0.60304913  1
  H+  H366  1  0.84249608  0.43310808  0.77180270  1
  H+  H367  1  0.56953362  0.66034815  0.07553327  1
  H+  H368  1  0.17324574  0.56568698  0.26991878  1
  H+  H369  1  0.70356842  0.11692953  0.55412180  1
  H+  H370  1  0.31232217  0.64809926  0.06849733  1
  H+  H371  1  0.58436220  0.43117491  0.44143769  1
  H+  H372  1  0.41458071  0.35212540  0.22448968  1
  H+  H373  1  0.31969545  0.41943701  0.06433411  1
  H+  H374  1  0.61190089  0.24317698  0.16513805  1
  H+  H375  1  0.41910167  0.58224817  0.93686673  1
  H+  H376  1  0.66381630  0.60011400  0.94278062  1
  H+  H377  1  0.12685013  0.39382184  0.50315033  1
  H+  H378  1  0.21918280  0.10861116  0.50589538  1
  H+  H379  1  0.18333140  0.61035604  0.55806618  1
  H+  H380  1  0.14929111  0.05627714  0.59744394  1
  H+  H381  1  0.12344382  0.54666985  0.17565261  1
  H+  H382  1  0.83343371  0.66265550  0.43580283  1
  H+  H383  1  0.63296462  0.01630048  0.60381835  1
  O2-  O384  1  0.09605219  0.19069873  0.16820777  1
  O2-  O385  1  0.08872621  0.17117581  0.47807905  1
  O2-  O386  1  0.08037608  0.15827865  0.81304227  1
  O2-  O387  1  0.10148452  0.37925687  0.17414132  1
  O2-  O388  1  0.09545564  0.42312535  0.48781371  1
  O2-  O389  1  0.08209460  0.40549119  0.81053047  1
  O2-  O390  1  0.08646222  0.69723191  0.13685461  1
  O2-  O391  1  0.08269254  0.66955565  0.47081309  1
  O2-  O392  1  0.07767740  0.64518088  0.81926236  1
  O2-  O393  1  0.07838243  0.95324921  0.17102656  1
  O2-  O394  1  0.07673835  0.91340880  0.46971529  1
  O2-  O395  1  0.07761088  0.91270067  0.81324872  1
  O2-  O396  1  0.33248323  0.19008712  0.15544304  1
  O2-  O397  1  0.32683190  0.17233976  0.47599536  1
  O2-  O398  1  0.33360770  0.19599778  0.81103294  1
  O2-  O399  1  0.32306345  0.42885599  0.14310503  1
  O2-  O400  1  0.33767583  0.42136644  0.48243022  1
  O2-  O401  1  0.36766108  0.43475151  0.78267386  1
  O2-  O402  1  0.32210467  0.66006578  0.14803147  1
  O2-  O403  1  0.34643880  0.68137461  0.48071233  1
  O2-  O404  1  0.33686420  0.67459016  0.82944033  1
  O2-  O405  1  0.32776365  0.91843069  0.14226103  1
  O2-  O406  1  0.33408638  0.92266412  0.48321598  1
  O2-  O407  1  0.34041547  0.92779857  0.82164618  1
  O2-  O408  1  0.57340847  0.18426830  0.14812273  1
  O2-  O409  1  0.58490799  0.18093167  0.52606662  1
  O2-  O410  1  0.56825623  0.15316854  0.81359882  1
  O2-  O411  1  0.58610353  0.42453179  0.14662328  1
  O2-  O412  1  0.58675127  0.42688819  0.48659381  1
  O2-  O413  1  0.59126380  0.44022637  0.82476295  1
  O2-  O414  1  0.57731766  0.66656854  0.14322971  1
  O2-  O415  1  0.59096455  0.67827583  0.48021071  1
  O2-  O416  1  0.56903075  0.61930461  0.80313274  1
  O2-  O417  1  0.55423598  0.90610103  0.13736807  1
  O2-  O418  1  0.59726624  0.94518131  0.53097159  1
  O2-  O419  1  0.57640841  0.91345920  0.81945447  1
  O2-  O420  1  0.84170329  0.16226200  0.14469696  1
  O2-  O421  1  0.85686844  0.18493924  0.46779996  1
  O2-  O422  1  0.82573225  0.16986921  0.80373531  1
  O2-  O423  1  0.85076392  0.41410441  0.15215346  1
  O2-  O424  1  0.84586084  0.42263556  0.47522744  1
  O2-  O425  1  0.83922841  0.41993679  0.81726976  1
  O2-  O426  1  0.83790233  0.67261718  0.14907210  1
  O2-  O427  1  0.83333588  0.66421622  0.48124776  1
  O2-  O428  1  0.84251671  0.66143518  0.80869132  1
  O2-  O429  1  0.81705765  0.90180775  0.15360627  1
  O2-  O430  1  0.83030457  0.92311504  0.47713344  1
  O2-  O431  1  0.80701928  0.88749898  0.81020580  1
  O2-  O432  1  0.17512321  0.11329806  0.22550395  1
  O2-  O433  1  0.15835372  0.07483767  0.51983869  1
  O2-  O434  1  0.16222028  0.07561945  0.86237695  1
  O2-  O435  1  0.15496476  0.34416143  0.19783985  1
  O2-  O436  1  0.17457908  0.33354559  0.52684800  1
  O2-  O437  1  0.15013133  0.31770702  0.87046064  1
  O2-  O438  1  0.16829759  0.53807235  0.19340627  1
  O2-  O439  1  0.18182131  0.59606876  0.51514744  1
  O2-  O440  1  0.16632031  0.57112486  0.86114704  1
  O2-  O441  1  0.16459141  0.86096843  0.18252025  1
  O2-  O442  1  0.15468303  0.83613571  0.51282155  1
  O2-  O443  1  0.16345407  0.82581663  0.82530974  1
  O2-  O444  1  0.44162314  0.05217832  0.20822614  1
  O2-  O445  1  0.40442386  0.08579461  0.52269170  1
  O2-  O446  1  0.40742879  0.09463592  0.86000939  1
  O2-  O447  1  0.41203374  0.35356921  0.17975612  1
  O2-  O448  1  0.41726612  0.33915735  0.52810543  1
  O2-  O449  1  0.42808514  0.36073841  0.85698810  1
  O2-  O450  1  0.41846265  0.59065438  0.18839898  1
  O2-  O451  1  0.42329889  0.59355423  0.51948470  1
  O2-  O452  1  0.41931631  0.58922404  0.86057757  1
  O2-  O453  1  0.39528776  0.82352912  0.18800461  1
  O2-  O454  1  0.42142756  0.84494209  0.53421478  1
  O2-  O455  1  0.41816233  0.84163455  0.87391314  1
  O2-  O456  1  0.59552917  0.05540057  0.19733183  1
  O2-  O457  1  0.69512531  0.11975939  0.51000771  1
  O2-  O458  1  0.65891138  0.08300012  0.85148203  1
  O2-  O459  1  0.67656891  0.34666106  0.18970323  1
  O2-  O460  1  0.66615827  0.33716707  0.47722685  1
  O2-  O461  1  0.66156220  0.33173885  0.81588002  1
  O2-  O462  1  0.66983424  0.58811931  0.18944812  1
  O2-  O463  1  0.67070675  0.59087547  0.52286715  1
  O2-  O464  1  0.67382478  0.60275080  0.86919225  1
  O2-  O465  1  0.64771764  0.82834075  0.18639178  1
  O2-  O466  1  0.66803767  0.84494552  0.52585095  1
  O2-  O467  1  0.65749631  0.82551445  0.87136362  1
  O2-  O468  1  0.92629545  0.08521795  0.15799903  1
  O2-  O469  1  0.92274053  0.08743698  0.51658259  1
  O2-  O470  1  0.91754464  0.10680472  0.86218846  1
  O2-  O471  1  0.93101630  0.32732727  0.19466368  1
  O2-  O472  1  0.93159262  0.33667385  0.52549783  1
  O2-  O473  1  0.91890238  0.33306577  0.85036996  1
  O2-  O474  1  0.91944698  0.58630971  0.18319527  1
  O2-  O475  1  0.92376319  0.58881187  0.51983080  1
  O2-  O476  1  0.91678331  0.58241622  0.85749030  1
  O2-  O477  1  0.91523773  0.83586215  0.19348853  1
  O2-  O478  1  0.90536642  0.83134019  0.50726564  1
  O2-  O479  1  0.91802279  0.82806065  0.85423230  1
  O2-  O480  1  0.16761796  0.10579059  0.29238758  1
  O2-  O481  1  0.14995057  0.05263885  0.64298258  1
  O2-  O482  1  0.16411193  0.08763032  0.98210204  1
  O2-  O483  1  0.16527904  0.34153738  0.31113265  1
  O2-  O484  1  0.19644921  0.32343169  0.64663601  1
  O2-  O485  1  0.14410453  0.31503555  0.98853680  1
  O2-  O486  1  0.17531816  0.57843657  0.31435114  1
  O2-  O487  1  0.13187678  0.49001369  0.67528704  1
  O2-  O488  1  0.14763625  0.55829919  0.98423976  1
  O2-  O489  1  0.16043446  0.85640865  0.30857802  1
  O2-  O490  1  0.17051087  0.81968214  0.70189685  1
  O2-  O491  1  0.17856817  0.83418608  0.96579940  1
  O2-  O492  1  0.38491216  0.06974954  0.31488873  1
  O2-  O493  1  0.41130267  0.08489514  0.64721835  1
  O2-  O494  1  0.40589913  0.09127596  0.98568625  1
  O2-  O495  1  0.44244630  0.31589738  0.30178702  1
  O2-  O496  1  0.41050940  0.35306453  0.65094001  1
  O2-  O497  1  0.41251120  0.34099263  0.98435416  1
  O2-  O498  1  0.42258308  0.58770358  0.31282992  1
  O2-  O499  1  0.42843259  0.59484568  0.64815543  1
  O2-  O500  1  0.41943512  0.58000667  0.98272918  1
  O2-  O501  1  0.39874115  0.82491133  0.31029000  1
  O2-  O502  1  0.41376337  0.83235345  0.65836176  1
  O2-  O503  1  0.44115937  0.86372613  0.99736367  1
  O2-  O504  1  0.70174946  0.11111733  0.29301430  1
  O2-  O505  1  0.66382850  0.06348714  0.63384915  1
  O2-  O506  1  0.66809765  0.07770386  0.96891041  1
  O2-  O507  1  0.68807398  0.35379127  0.31489608  1
  O2-  O508  1  0.64811305  0.36221609  0.69656992  1
  O2-  O509  1  0.66768991  0.34459022  0.98811626  1
  O2-  O510  1  0.67276334  0.58012099  0.31430862  1
  O2-  O511  1  0.67381970  0.60326330  0.64815003  1
  O2-  O512  1  0.65930815  0.59517976  0.98884052  1
  O2-  O513  1  0.66353423  0.82455874  0.31365998  1
  O2-  O514  1  0.66459351  0.83314319  0.64751094  1
  O2-  O515  1  0.68671421  0.84736201  0.98754158  1
  O2-  O516  1  0.92701915  0.08637439  0.30426442  1
  O2-  O517  1  0.91999156  0.08237808  0.64111968  1
  O2-  O518  1  0.92933864  0.06918003  0.99553520  1
  O2-  O519  1  0.93704520  0.34764384  0.31481219  1
  O2-  O520  1  0.93549385  0.31897243  0.63969684  1
  O2-  O521  1  0.91649617  0.31818831  0.97570449  1
  O2-  O522  1  0.92357518  0.59589854  0.30469799  1
  O2-  O523  1  0.94414520  0.59389293  0.64340907  1
  O2-  O524  1  0.91742969  0.59362824  0.97500603  1
  O2-  O525  1  0.91579587  0.83382575  0.31726843  1
  O2-  O526  1  0.90534188  0.83475849  0.62227135  1
  O2-  O527  1  0.91382053  0.82525536  0.97886103  1
  O2-  O528  1  0.08485770  0.16362281  0.02391577  1
  O2-  O529  1  0.08879637  0.18110865  0.35063695  1
  O2-  O530  1  0.08757415  0.15171493  0.68751165  1
  O2-  O531  1  0.06675781  0.39944183  0.01551898  1
  O2-  O532  1  0.09316307  0.41957690  0.36304627  1
  O2-  O533  1  0.09211103  0.39708737  0.69020862  1
  O2-  O534  1  0.08904122  0.67109783  0.01793189  1
  O2-  O535  1  0.07804802  0.65623287  0.34582644  1
  O2-  O536  1  0.09800677  0.63071919  0.69689433  1
  O2-  O537  1  0.09019709  0.90929085  0.00840373  1
  O2-  O538  1  0.07494637  0.91485728  0.35469797  1
  O2-  O539  1  0.08948410  0.91401988  0.69292885  1
  O2-  O540  1  0.32593496  0.17515990  0.03088873  1
  O2-  O541  1  0.32109432  0.17175004  0.35170926  1
  O2-  O542  1  0.35030936  0.19193351  0.69665006  1
  O2-  O543  1  0.31870900  0.41535064  0.01891938  1
  O2-  O544  1  0.33127554  0.41878510  0.35297136  1
  O2-  O545  1  0.36469202  0.40145962  0.66549256  1
  O2-  O546  1  0.30451266  0.64026108  0.02363585  1
  O2-  O547  1  0.33616140  0.66523848  0.35689424  1
  O2-  O548  1  0.33964627  0.67360277  0.70410029  1
  O2-  O549  1  0.33355959  0.92558266  0.01852312  1
  O2-  O550  1  0.31816423  0.90541262  0.35955886  1
  O2-  O551  1  0.34150734  0.92536456  0.69708887  1
  O2-  O552  1  0.57532624  0.19084473  0.02412267  1
  O2-  O553  1  0.68273044  0.21823449  0.37186441  1
  O2-  O554  1  0.56953304  0.13403568  0.67865486  1
  O2-  O555  1  0.58036482  0.42352445  0.02337215  1
  O2-  O556  1  0.59401982  0.42175734  0.36277191  1
  O2-  O557  1  0.56598777  0.44494011  0.70083107  1
  O2-  O558  1  0.56885841  0.65714295  0.02775075  1
  O2-  O559  1  0.58956690  0.66226973  0.35556598  1
  O2-  O560  1  0.59130466  0.67740803  0.68918255  1
  O2-  O561  1  0.53302301  0.91588563  0.01180334  1
  O2-  O562  1  0.53746739  0.82241535  0.39171070  1
  O2-  O563  1  0.57560616  0.90518097  0.70139781  1
  O2-  O564  1  0.83427024  0.15045735  0.01984615  1
  O2-  O565  1  0.86317554  0.18326496  0.34317638  1
  O2-  O566  1  0.83826500  0.16282004  0.67586486  1
  O2-  O567  1  0.83258536  0.37995155  0.02713119  1
  O2-  O568  1  0.85527180  0.43191549  0.34932585  1
  O2-  O569  1  0.83150919  0.44749354  0.70133889  1
  O2-  O570  1  0.82223790  0.66366414  0.02490085  1
  O2-  O571  1  0.83554476  0.66467345  0.35665232  1
  O2-  O572  1  0.94169629  0.73405128  0.69381318  1
  O2-  O573  1  0.83692603  0.90380038  0.03444250  1
  O2-  O574  1  0.83310254  0.91919420  0.35120536  1
  O2-  O575  1  0.82889196  0.90906094  0.68515196  1
