# generated using pymatgen
data_H2O
_symmetry_space_group_name_H-M   'P 1'
_cell_length_a   17.98870788
_cell_length_b   17.99190472
_cell_length_c   22.01603398
_cell_angle_alpha   89.98279338
_cell_angle_beta   90.03719573
_cell_angle_gamma   120.01192713
_symmetry_Int_Tables_number   1
_chemical_formula_structural   H2O
_chemical_formula_sum   'H384 O192'
_cell_volume   6170.13306597
_cell_formula_units_Z   192
loop_
 _symmetry_equiv_pos_site_id
 _symmetry_equiv_pos_as_xyz
  1  'x, y, z'
loop_
 _atom_type_symbol
 _atom_type_oxidation_number
  H+  1.0
  O2-  -2.0
loop_
 _atom_site_type_symbol
 _atom_site_label
 _atom_site_symmetry_multiplicity
 _atom_site_fract_x
 _atom_site_fract_y
 _atom_site_fract_z
 _atom_site_occupancy
  H+  H0  1  0.87931701  1.02395549  0.63936136  1
  H+  H1  1  0.52507952  0.63658931  0.01199148  1
  H+  H2  1  0.22338886  0.35790860  0.50879820  1
  H+  H3  1  0.36920468  0.87217088  0.00551845  1
  H+  H4  1  -0.02702226  0.36560978  -0.01131547  1
  H+  H5  1  0.93233547  0.59089483  0.55598192  1
  H+  H6  1  0.62092830  0.09667049  0.47797059  1
  H+  H7  1  0.63180477  0.03727400  0.34312318  1
  H+  H8  1  0.59110394  0.16360208  0.10887475  1
  H+  H9  1  0.64324709  0.69943996  0.16610435  1
  H+  H10  1  1.00573850  0.86122314  0.80675519  1
  H+  H11  1  0.15885418  0.07827517  0.59084266  1
  H+  H12  1  0.11576646  0.89057474  0.66394670  1
  H+  H13  1  0.86233842  0.72770027  1.03101359  1
  H+  H14  1  0.71989664  0.10908973  0.98998444  1
  H+  H15  1  0.23458817  0.62659466  0.50689967  1
  H+  H16  1  0.37049234  0.60476079  0.51571937  1
  H+  H17  1  0.54001757  0.34265360  0.13775762  1
  H+  H18  1  0.35710456  0.96396859  0.15224949  1
  H+  H19  1  0.61655185  0.47168973  0.34462255  1
  H+  H20  1  0.65196481  0.27018758  0.17849935  1
  H+  H21  1  0.63849350  0.62157859  1.01156177  1
  H+  H22  1  0.46291222  0.00674422  0.21230367  1
  H+  H23  1  0.39644799  0.76302808  -0.00649162  1
  H+  H24  1  0.14073778  0.62981543  0.50567284  1
  H+  H25  1  0.33478729  0.91841771  0.40396872  1
  H+  H26  1  0.78651829  0.63967475  0.34106485  1
  H+  H27  1  0.38870852  0.61408992  0.99587330  1
  H+  H28  1  0.10324499  0.48335115  0.00906469  1
  H+  H29  1  0.37593854  0.37195258  0.18116206  1
  H+  H30  1  0.26556535  0.14297458  0.49405805  1
  H+  H31  1  0.90231861  0.78245261  0.33683220  1
  H+  H32  1  0.08093980  0.59243716  0.18811968  1
  H+  H33  1  0.87051348  0.39303962  0.33705893  1
  H+  H34  1  0.64149566  0.36630764  0.32920915  1
  H+  H35  1  0.13146102  0.76058894  0.98580567  1
  H+  H36  1  0.98148774  1.11566371  0.00038313  1
  H+  H37  1  0.48175699  0.61688164  0.32892857  1
  H+  H38  1  0.03671232  0.39033402  0.81253723  1
  H+  H39  1  0.27434886  0.63463775  0.00610314  1
  H+  H40  1  0.77763050  0.88726826  0.00477759  1
  H+  H41  1  0.17398282  0.10048901  0.82536040  1
  H+  H42  1  0.88014081  0.86490888  0.18756663  1
  H+  H43  1  0.01055880  0.64296514  0.15597453  1
  H+  H44  1  0.36187296  0.72787128  0.50016470  1
  H+  H45  1  0.65133682  0.53309616  0.00508585  1
  H+  H46  1  -0.01145923  0.87305319  -0.01982415  1
  H+  H47  1  0.82236918  0.89166285  0.43355649  1
  H+  H48  1  0.89546849  0.90215318  0.34728105  1
  H+  H49  1  0.63265706  0.86458927  0.50963195  1
  H+  H50  1  0.01946259  0.63527168  0.01077751  1
  H+  H51  1  0.62453213  0.22714431  0.00679517  1
  H+  H52  1  0.64595543  0.86327726  0.83869822  1
  H+  H53  1  0.74411434  0.03863508  0.53232201  1
  H+  H54  1  0.64895898  0.18698132  0.50126512  1
  H+  H55  1  0.61737284  0.12927123  1.00847075  1
  H+  H56  1  0.86056553  0.46931707  0.01301711  1
  H+  H57  1  0.37420833  -0.00526559  0.85045356  1
  H+  H58  1  0.16776619  0.57798775  0.28047589  1
  H+  H59  1  0.72893904  0.89233097  0.15070420  1
  H+  H60  1  0.64561203  0.21083880  0.69765668  1
  H+  H61  1  0.47945682  0.36285509  0.65988363  1
  H+  H62  1  0.48597246  0.11352215  0.66202460  1
  H+  H63  1  0.23244347  0.61196687  0.20108606  1
  H+  H64  1  0.09799572  -0.07923661  0.39972042  1
  H+  H65  1  0.76772082  0.87206188  0.81662955  1
  H+  H66  1  0.47514438  0.11735647  0.33434400  1
  H+  H67  1  0.27029612  0.21436172  0.76715893  1
  H+  H68  1  0.87569403  0.25906881  0.18296458  1
  H+  H69  1  0.29917441  0.16848581  0.00539797  1
  H+  H70  1  0.23198833  0.11498571  0.17894473  1
  H+  H71  1  0.23225085  0.37237529  0.34004908  1
  H+  H72  1  0.37179693  0.49156773  0.16666517  1
  H+  H73  1  0.47852168  0.36346866  0.33502379  1
  H+  H74  1  0.62392903  0.71416766  0.34496678  1
  H+  H75  1  0.09984651  0.39393868  0.01950453  1
  H+  H76  1  0.36662219  0.73009727  0.34611246  1
  H+  H77  1  0.62454003  0.48388449  0.17685629  1
  H+  H78  1  0.14121312  0.52775319  0.83089571  1
  H+  H79  1  0.73526630  0.36073355  0.82508502  1
  H+  H80  1  0.61923504  0.77051336  0.15291150  1
  H+  H81  1  0.12519341  0.72654695  0.34019934  1
  H+  H82  1  0.08254612  0.66981939  0.06709768  1
  H+  H83  1  0.36486174  0.39090677  0.49852096  1
  H+  H84  1  0.15423725  0.85823038  0.98378740  1
  H+  H85  1  0.07812332  0.46280072  0.17184632  1
  H+  H86  1  0.62013166  0.96990987  0.49124461  1
  H+  H87  1  0.86720777  0.38366068  0.00280582  1
  H+  H88  1  0.23333123  0.11381379  0.33367600  1
  H+  H89  1  0.61496531  0.90785433  0.10929101  1
  H+  H90  1  0.11818244  0.75677255  0.82558820  1
  H+  H91  1  0.10197739  0.37062432  0.49480346  1
  H+  H92  1  0.36737220  0.23817042  0.16736244  1
  H+  H93  1  0.37070521  0.48538877  0.34529359  1
  H+  H94  1  -0.02904939  0.11262632  0.49270770  1
  H+  H95  1  -0.01555102  0.09753550  0.18845931  1
  H+  H96  1  0.89090776  0.12330409  0.47917436  1
  H+  H97  1  0.63684658  0.12820393  0.33713342  1
  H+  H98  1  0.01138666  0.62238638  0.80477497  1
  H+  H99  1  0.10767121  0.97329482  0.03927204  1
  H+  H100  1  0.36812739  0.13968925  0.34674648  1
  H+  H101  1  0.86820282  0.24384154  0.46313005  1
  H+  H102  1  0.64461746  0.86521041  0.99853537  1
  H+  H103  1  0.23445467  0.65519023  0.20335423  1
  H+  H104  1  0.39499501  0.65779655  0.15597813  1
  H+  H105  1  0.34347702  0.39059814  1.00818249  1
  H+  H106  1  0.38237150  0.86413241  0.33344234  1
  H+  H107  1  0.11811443  0.13803410  0.16752156  1
  H+  H108  1  0.47415315  0.60670000  0.66710590  1
  H+  H109  1  0.22334781  0.85640529  0.17088200  1
  H+  H110  1  0.28156105  0.63697035  0.34695814  1
  H+  H111  1  0.36792932  0.23007603  0.34739537  1
  H+  H112  1  0.36983426  0.40969430  0.84120268  1
  H+  H113  1  0.51270417  0.89394032  0.34154603  1
  H+  H114  1  0.09387063  0.46637609  0.65827247  1
  H+  H115  1  0.69423170  0.87456349  0.28854761  1
  H+  H116  1  0.75303088  0.61022606  0.16805349  1
  H+  H117  1  0.66074407  0.53655367  0.69964980  1
  H+  H118  1  0.12510696  0.63645419  0.34400385  1
  H+  H119  1  0.63367947  0.09839738  0.84415620  1
  H+  H120  1  0.61046137  0.72417326  0.83299273  1
  H+  H121  1  0.16371315  0.15462233  0.99519551  1
  H+  H122  1  0.12116671  0.26546969  0.65382304  1
  H+  H123  1  0.39323755  0.77720138  0.66374247  1
  H+  H124  1  0.73807481  0.35391545  0.99380833  1
  H+  H125  1  0.08154091  0.40940751  0.43647918  1
  H+  H126  1  0.62653457  0.51627264  0.85007722  1
  H+  H127  1  0.34029423  0.86111582  0.81637808  1
  H+  H128  1  0.11786417  -0.01885020  0.17706438  1
  H+  H129  1  0.58580355  0.67824456  0.07142171  1
  H+  H130  1  0.49703240  0.86865555  0.83593588  1
  H+  H131  1  0.75728500  0.85647731  0.49079189  1
  H+  H132  1  0.55518742  0.40058095  0.00340130  1
  H+  H133  1  0.65945604  0.62272751  0.52185536  1
  H+  H134  1  0.36390665  0.73097292  0.82914127  1
  H+  H135  1  0.76597201  0.14987626  0.36734442  1
  H+  H136  1  0.39308762  0.27190553  0.64941478  1
  H+  H137  1  0.62019067  0.77294326  0.51030232  1
  H+  H138  1  0.75361748  0.10880787  0.48741581  1
  H+  H139  1  0.51652247  0.11611426  0.83422661  1
  H+  H140  1  0.10772221  0.22735897  1.02363528  1
  H+  H141  1  0.39462846  0.62180049  0.33159783  1
  H+  H142  1  0.22889798  0.87044779  0.65649475  1
  H+  H143  1  0.32281408  0.18117129  0.80286744  1
  H+  H144  1  0.42072283  0.80460259  0.17586825  1
  H+  H145  1  0.01265153  0.12748135  0.65021292  1
  H+  H146  1  0.63750210  0.86030985  0.66362625  1
  H+  H147  1  0.90680622  0.53300317  0.49540554  1
  H+  H148  1  0.11430587  -0.01903182  0.66594665  1
  H+  H149  1  0.64213521  0.77553769  0.99595553  1
  H+  H150  1  0.14756261  0.38151297  0.80399419  1
  H+  H151  1  0.38648969  0.62235001  0.84093678  1
  H+  H152  1  0.87548103  0.64099384  0.49031138  1
  H+  H153  1  0.14404224  1.02867264  0.49810717  1
  H+  H154  1  0.87730310  0.64378829  0.33804307  1
  H+  H155  1  0.67409717  0.33617904  0.27057994  1
  H+  H156  1  0.93444125  0.34362167  0.66730769  1
  H+  H157  1  0.89332132  0.53651223  0.65151770  1
  H+  H158  1  0.63727765  0.29759995  0.64390687  1
  H+  H159  1  0.12789806  0.10771781  0.64982265  1
  H+  H160  1  0.14608016  0.28265453  0.33486846  1
  H+  H161  1  0.44478224  0.38787855  1.04265496  1
  H+  H162  1  1.03454251  0.64478420  0.66206695  1
  H+  H163  1  0.25497937  0.86758331  0.81997536  1
  H+  H164  1  0.35677339  0.48495361  0.00795667  1
  H+  H165  1  0.21857556  0.36515735  0.17242412  1
  H+  H166  1  0.21451368  0.37180981  1.01109723  1
  H+  H167  1  0.74068503  0.63070435  1.01844398  1
  H+  H168  1  0.03815884  0.88988803  0.34105410  1
  H+  H169  1  0.13767448  0.61710482  0.99261862  1
  H+  H170  1  0.89083272  0.28182424  0.33885076  1
  H+  H171  1  0.85837550  0.88086338  0.66355467  1
  H+  H172  1  0.82655006  0.45549512  0.80075562  1
  H+  H173  1  0.12028612  0.38879925  0.34431248  1
  H+  H174  1  0.88608182  0.27434575  0.97748822  1
  H+  H175  1  0.86329520  0.88360848  1.00110656  1
  H+  H176  1  0.90047136  0.77471409  0.50484663  1
  H+  H177  1  0.44098932  0.90202641  0.86679611  1
  H+  H178  1  0.13839358  0.11658690  0.49898869  1
  H+  H179  1  0.46609875  0.38034958  0.19168382  1
  H+  H180  1  0.86191458  0.13358204  -0.01491288  1
  H+  H181  1  0.64361398  0.60392458  0.33662269  1
  H+  H182  1  0.10051946  0.86431950  0.81045890  1
  H+  H183  1  0.35011805  0.37823789  0.66550033  1
  H+  H184  1  0.03102036  0.39126304  0.34175450  1
  H+  H185  1  0.38074185  0.86440842  0.17607707  1
  H+  H186  1  0.23144756  0.86960938  0.50678068  1
  H+  H187  1  0.40727145  0.29333846  1.01391295  1
  H+  H188  1  0.14525688  0.86159670  0.32925472  1
  H+  H189  1  0.21034314  0.35514035  0.65830077  1
  H+  H190  1  0.37608501  0.29732315  0.87867445  1
  H+  H191  1  0.98887131  0.61832949  0.32625065  1
  H+  H192  1  0.39218555  0.86578149  0.66213822  1
  H+  H193  1  0.61441892  0.23671868  0.34348326  1
  H+  H194  1  0.67662657  0.09051807  0.24901704  1
  H+  H195  1  0.12218687  0.73576588  0.66531222  1
  H+  H196  1  0.62042371  0.11871988  0.67959045  1
  H+  H197  1  0.96556826  0.34788463  0.17920959  1
  H+  H198  1  0.87548100  0.61220130  1.02056750  1
  H+  H199  1  0.11206163  0.22482128  0.16164427  1
  H+  H200  1  0.47519226  0.86118350  0.50898396  1
  H+  H201  1  0.11846050  0.89296429  0.49453926  1
  H+  H202  1  0.59543352  0.91715204  0.76728963  1
  H+  H203  1  0.90234255  0.62921426  0.64756852  1
  H+  H204  1  0.66232487  0.31597045  0.52049473  1
  H+  H205  1  0.62675032  0.60474030  0.84870749  1
  H+  H206  1  0.60283983  0.55829686  0.18200061  1
  H+  H207  1  0.53732506  0.12970549  0.17067973  1
  H+  H208  1  0.80306039  0.88334746  0.33925193  1
  H+  H209  1  0.88456639  0.70296133  0.71496228  1
  H+  H210  1  0.09286133  0.22977002  0.79617652  1
  H+  H211  1  0.37654814  0.50981359  0.83421789  1
  H+  H212  1  0.49348978  0.63329129  0.17932656  1
  H+  H213  1  0.47949870  0.36717429  0.50308690  1
  H+  H214  1  0.88542482  0.51825675  0.17511426  1
  H+  H215  1  0.36965182  -0.02543491  0.49584148  1
  H+  H216  1  0.12130546  0.13431137  0.33807747  1
  H+  H217  1  0.52917673  0.88075582  0.00880354  1
  H+  H218  1  0.51903988  0.13655653  0.00628140  1
  H+  H219  1  0.36455467  0.63670969  0.67462278  1
  H+  H220  1  0.33420703  0.43069733  0.10831210  1
  H+  H221  1  0.13460732  0.61201827  0.83352735  1
  H+  H222  1  0.75033971  0.61922348  0.83758090  1
  H+  H223  1  0.97335452  0.34816033  0.48933002  1
  H+  H224  1  0.14301022  0.78065079  0.50495161  1
  H+  H225  1  0.82274969  0.15319887  -0.07044393  1
  H+  H226  1  0.75086239  0.13395668  0.66542515  1
  H+  H227  1  0.08549658  0.16094906  0.07780207  1
  H+  H228  1  0.10545942  0.72655757  0.16113406  1
  H+  H229  1  0.67812687  0.83617014  0.89819580  1
  H+  H230  1  0.16888029  0.07503737  0.97497936  1
  H+  H231  1  0.85509129  0.86561625  0.81074341  1
  H+  H232  1  0.03556305  0.64428100  0.48994523  1
  H+  H233  1  0.14474370  0.51920455  0.33871677  1
  H+  H234  1  -0.02188886  0.87658719  0.64803323  1
  H+  H235  1  0.87060495  0.75037692  0.82709765  1
  H+  H236  1  0.39706882  0.11357683  0.65039387  1
  H+  H237  1  0.85866039  0.01939677  0.33092825  1
  H+  H238  1  0.89351714  0.02618865  0.99323499  1
  H+  H239  1  0.89778843  0.53058906  0.32603494  1
  H+  H240  1  0.64885106  0.11206297  0.18634475  1
  H+  H241  1  0.60088333  0.37172305  0.83724648  1
  H+  H242  1  0.27837800  0.86436353  -0.00273695  1
  H+  H243  1  0.86945017  -0.02756431  0.16643886  1
  H+  H244  1  0.37773391  0.08284255  0.85615464  1
  H+  H245  1  0.33509499  0.17415211  0.43340103  1
  H+  H246  1  0.61474183  0.49167846  0.48456692  1
  H+  H247  1  0.88814915  0.35824004  0.48454661  1
  H+  H248  1  0.38658625  0.02602959  0.33585226  1
  H+  H249  1  0.62335453  0.41001152  0.49913592  1
  H+  H250  1  0.49142174  0.64295404  0.49057825  1
  H+  H251  1  0.77095563  0.63115459  0.76979452  1
  H+  H252  1  -0.02914571  0.87050587  0.19236185  1
  H+  H253  1  0.28292090  0.40835210  0.81291165  1
  H+  H254  1  0.09861980  0.67298268  0.43189840  1
  H+  H255  1  0.36429897  0.23957440  0.49583790  1
  H+  H256  1  0.97230336  0.78233750  0.96220681  1
  H+  H257  1  0.40959757  0.13469406  1.00055927  1
  H+  H258  1  0.27297781  0.13129589  0.64323122  1
  H+  H259  1  0.12678817  0.35805688  0.16736076  1
  H+  H260  1  0.74263672  0.97604905  0.28652307  1
  H+  H261  1  0.84328830  0.09989898  0.33555109  1
  H+  H262  1  0.84724065  0.61943722  0.16850265  1
  H+  H263  1  0.62761438  0.97948524  0.67363179  1
  H+  H264  1  0.53323231  0.89432592  0.67328072  1
  H+  H265  1  0.88175858  0.85079126  0.49981637  1
  H+  H266  1  0.51721974  0.38130231  0.83918835  1
  H+  H267  1  0.77209820  0.12740790  0.17720502  1
  H+  H268  1  0.61028653  0.91723850  0.32972372  1
  H+  H269  1  0.88414693  0.74904203  0.65422948  1
  H+  H270  1  0.13783778  0.86112518  0.18334162  1
  H+  H271  1  0.62222250  0.97330157  0.82977033  1
  H+  H272  1  0.47856382  0.62198280  0.84033845  1
  H+  H273  1  0.03599146  0.13955328  0.33347319  1
  H+  H274  1  0.95643689  1.13603999  0.83268339  1
  H+  H275  1  0.85589017  0.59015523  0.81457496  1
  H+  H276  1  0.86768515  0.37832284  0.16647345  1
  H+  H277  1  0.78126626  0.39440257  0.33712589  1
  H+  H278  1  0.78675311  0.32251720  0.66939570  1
  H+  H279  1  0.14304109  0.61864663  0.65578615  1
  H+  H280  1  0.63090722  0.02015727  1.00363042  1
  H+  H281  1  0.65332581  0.36079913  -0.00935017  1
  H+  H282  1  0.89237280  0.20819704  0.83570125  1
  H+  H283  1  0.36029879  0.88129926  0.49629127  1
  H+  H284  1  0.76195313  0.87338052  0.66766226  1
  H+  H285  1  0.49134790  0.09531096  0.50457707  1
  H+  H286  1  0.27361161  0.64242461  0.82907857  1
  H+  H287  1  0.57741231  0.66458871  0.77367085  1
  H+  H288  1  0.07980332  0.13896494  0.81607248  1
  H+  H289  1  0.09106741  0.37689499  0.66217901  1
  H+  H290  1  0.43358399  0.07669129  0.56286525  1
  H+  H291  1  0.84117213  0.92073696  0.10186957  1
  H+  H292  1  0.14906286  0.81776719  0.88503143  1
  H+  H293  1  0.51378601  0.72157450  0.44788837  1
  H+  H294  1  0.74614626  0.62496466  0.68080493  1
  H+  H295  1  0.92050449  0.84376796  0.58639873  1
  H+  H296  1  0.91633213  0.58259962  0.23291167  1
  H+  H297  1  0.08342981  0.66343396  0.75380171  1
  H+  H298  1  0.90722779  0.06968504  0.23692242  1
  H+  H299  1  0.66607308  0.31648627  0.90237020  1
  H+  H300  1  0.90818201  0.08225717  0.57984705  1
  H+  H301  1  0.66081652  0.82745197  0.60267493  1
  H+  H302  1  0.34918597  0.46471237  0.67151559  1
  H+  H303  1  0.42824614  0.37204506  0.92325626  1
  H+  H304  1  0.79695587  0.41026794  0.48840411  1
  H+  H305  1  0.42109152  0.58627483  0.93746412  1
  H+  H306  1  0.34290996  0.66915104  0.06278570  1
  H+  H307  1  0.91464755  0.32774940  0.27339630  1
  H+  H308  1  0.16550946  0.58503157  0.93347140  1
  H+  H309  1  0.31718280  0.67381134  0.15625691  1
  H+  H310  1  0.33249833  0.66789288  0.73157628  1
  H+  H311  1  0.43157227  0.06381116  0.24509253  1
  H+  H312  1  0.71016062  0.37994778  0.57293589  1
  H+  H313  1  0.08351023  0.42488230  0.74869186  1
  H+  H314  1  0.42850414  0.59778017  0.23628078  1
  H+  H315  1  0.74265809  0.36078653  0.17596559  1
  H+  H316  1  0.92606658  0.33153870  0.88794800  1
  H+  H317  1  0.32602521  0.90334547  0.09248059  1
  H+  H318  1  0.42539807  0.07899213  0.94893505  1
  H+  H319  1  0.82782385  0.15492992  0.11679612  1
  H+  H320  1  0.34867664  0.18212160  0.06934233  1
  H+  H321  1  0.33024832  0.91726000  0.72735673  1
  H+  H322  1  0.84867221  0.67415114  0.43171564  1
  H+  H323  1  0.41018712  0.33425496  0.28013643  1
  H+  H324  1  0.86057154  0.24321166  0.74056294  1
  H+  H325  1  0.41528189  0.58174083  0.60764148  1
  H+  H326  1  0.02965687  0.89397190  0.49113463  1
  H+  H327  1  0.58830291  0.17314515  0.40155053  1
  H+  H328  1  0.32028524  0.15622449  0.70390220  1
  H+  H329  1  0.77301883  0.37033921  0.75300913  1
  H+  H330  1  0.11360600  0.22235945  0.49372609  1
  H+  H331  1  0.61365346  0.72141279  0.67882351  1
  H+  H332  1  0.92452701  0.84216282  0.27793839  1
  H+  H333  1  0.58050038  0.41230648  0.74301480  1
  H+  H334  1  0.06521819  0.41899499  0.10620926  1
  H+  H335  1  0.41252997  0.83684172  0.27280632  1
  H+  H336  1  0.63535531  0.36950867  0.15683093  1
  H+  H337  1  0.65412597  0.06541628  0.90450677  1
  H+  H338  1  0.62739264  0.40061919  0.68606388  1
  H+  H339  1  0.15330709  0.11630297  0.89133961  1
  H+  H340  1  0.89490006  0.58950105  0.95682181  1
  H+  H341  1  0.33235653  0.66888678  0.43930829  1
  H+  H342  1  0.06137523  0.15342297  0.71409107  1
  H+  H343  1  0.91640327  0.81684824  0.88184508  1
  H+  H344  1  0.58341511  0.41149027  0.40278990  1
  H+  H345  1  0.82167000  0.66108028  0.09239503  1
  H+  H346  1  0.22918556  0.61276855  0.65689215  1
  H+  H347  1  0.66432926  0.89325342  0.19893826  1
  H+  H348  1  0.07621686  0.90543498  0.74470311  1
  H+  H349  1  0.37867686  0.51927229  0.51309288  1
  H+  H350  1  0.04224008  1.00514950  0.03139414  1
  H+  H351  1  0.41956025  0.83310254  0.57040511  1
  H+  H352  1  0.17153622  0.59502974  0.57063684  1
  H+  H353  1  0.70066893  0.09311316  0.60432231  1
  H+  H354  1  0.61476327  0.41929371  0.06091205  1
  H+  H355  1  0.16652672  0.33352066  0.85669274  1
  H+  H356  1  0.62421053  0.25276549  0.84384220  1
  H+  H357  1  0.14464522  0.33326407  0.95912093  1
  H+  H358  1  0.42309971  0.33689741  0.56404342  1
  H+  H359  1  0.15955028  0.32538434  0.56608283  1
  H+  H360  1  0.73626791  0.62346339  0.48678896  1
  H+  H361  1  0.33613175  0.42410211  0.44065146  1
  H+  H362  1  0.66654962  0.56897914  0.27691515  1
  H+  H363  1  0.37029920  0.39582731  0.34966806  1
  H+  H364  1  0.84082848  0.40836840  0.10474332  1
  H+  H365  1  0.08750362  0.16594221  0.43250604  1
  H+  H366  1  0.27720561  0.88990047  0.34300040  1
  H+  H367  1  0.82287842  0.89712523  0.73957693  1
  H+  H368  1  0.17612822  0.08629248  0.24038990  1
  H+  H369  1  0.84838857  0.43162164  0.42500484  1
  H+  H370  1  0.17456806  0.83007377  0.27022232  1
  H+  H371  1  0.14613404  0.02198597  0.33107402  1
  H+  H372  1  0.16929253  0.83994504  0.59676593  1
  H+  H373  1  0.57555328  0.66301736  0.40324039  1
  H+  H374  1  0.06930430  0.90769834  0.12698063  1
  H+  H375  1  0.89718150  0.55241267  0.86032213  1
  H+  H376  1  0.62367393  0.63973699  0.69424039  1
  H+  H377  1  0.57706652  0.14619018  0.77472356  1
  H+  H378  1  0.02816407  0.52648676  0.24017436  1
  H+  H379  1  0.36884570  0.97882449  0.66921701  1
  H+  H380  1  0.57682836  0.91402338  0.43176880  1
  H+  H381  1  0.43427057  0.82477090  0.93561299  1
  H+  H382  1  0.37497519  0.15375770  0.16609224  1
  H+  H383  1  0.91729953  0.11193028  0.89842824  1
  O2-  O384  1  0.08330255  0.16156621  0.14995739  1
  O2-  O385  1  0.08502914  0.16166465  0.47763176  1
  O2-  O386  1  0.05347314  0.16755536  0.79204048  1
  O2-  O387  1  0.06544356  0.40882208  0.15067018  1
  O2-  O388  1  0.07072256  0.40003108  0.48092399  1
  O2-  O389  1  0.09490241  0.42755225  0.79413786  1
  O2-  O390  1  0.07165629  0.66765518  0.14271769  1
  O2-  O391  1  0.09833699  0.67506162  0.47786832  1
  O2-  O392  1  0.07409358  0.65781246  0.79931436  1
  O2-  O393  1  0.08297996  0.91688708  0.17001348  1
  O2-  O394  1  0.09115326  0.92519134  0.47746962  1
  O2-  O395  1  0.06814283  0.89331353  0.79307196  1
  O2-  O396  1  0.34328607  0.17971348  0.14865885  1
  O2-  O397  1  0.32992571  0.17720462  0.48004047  1
  O2-  O398  1  0.27423289  0.16298159  0.77533436  1
  O2-  O399  1  0.33937381  0.43026721  0.15312548  1
  O2-  O400  1  0.33344202  0.42101975  0.48630260  1
  O2-  O401  1  0.34844505  0.44273264  0.81737713  1
  O2-  O402  1  0.37240186  0.69270345  0.13588073  1
  O2-  O403  1  0.32788525  0.66672146  0.48507370  1
  O2-  O404  1  0.33512957  0.67101724  0.81497052  1
  O2-  O405  1  0.32100132  0.90431990  0.13831274  1
  O2-  O406  1  0.33215493  0.91322370  0.48086999  1
  O2-  O407  1  0.31776555  0.90020214  0.80941217  1
  O2-  O408  1  0.59556483  0.16924163  0.15339809  1
  O2-  O409  1  0.60526801  0.14144458  0.47621044  1
  O2-  O410  1  0.57644433  0.15190748  0.82000887  1
  O2-  O411  1  0.59804517  0.39208133  0.13575189  1
  O2-  O412  1  0.58483779  0.42711111  0.47944324  1
  O2-  O413  1  0.57534011  0.40598175  0.82179959  1
  O2-  O414  1  0.59721954  0.70587525  0.14806714  1
  O2-  O415  1  0.53983041  0.68992214  0.46520220  1
  O2-  O416  1  0.57462451  0.66310474  0.81946716  1
  O2-  O417  1  0.57616776  0.92489330  0.08836939  1
  O2-  O418  1  0.57830117  0.91084570  0.47756583  1
  O2-  O419  1  0.59350750  0.91217273  0.81262740  1
  O2-  O420  1  0.83295328  0.16066094  0.16073077  1
  O2-  O421  1  0.83345390  0.17493692  0.44479760  1
  O2-  O422  1  0.87329058  0.24926044  0.82020799  1
  O2-  O423  1  0.84097886  0.41241180  0.14985753  1
  O2-  O424  1  0.85494218  0.43337503  0.47063828  1
  O2-  O425  1  0.79092501  0.39072836  0.79671413  1
  O2-  O426  1  0.81262353  0.64573996  0.15353851  1
  O2-  O427  1  0.84536757  0.67233315  0.47728335  1
  O2-  O428  1  0.80308405  0.64363674  0.80906592  1
  O2-  O429  1  0.82792706  0.91563305  0.14575431  1
  O2-  O430  1  0.80454913  0.85413552  0.46969602  1
  O2-  O431  1  0.82471177  0.89505541  0.79450972  1
  O2-  O432  1  0.17249597  0.08389016  0.19454343  1
  O2-  O433  1  0.17388249  0.08983614  0.51339400  1
  O2-  O434  1  0.12611418  0.09006987  0.85224022  1
  O2-  O435  1  0.15653034  0.32483118  0.17330430  1
  O2-  O436  1  0.16200673  0.32243296  0.52058566  1
  O2-  O437  1  0.17986114  0.34895134  0.81406202  1
  O2-  O438  1  0.07884610  0.54618120  0.21470946  1
  O2-  O439  1  0.17268969  0.59950905  0.52343659  1
  O2-  O440  1  0.16766195  0.58588937  0.85021434  1
  O2-  O441  1  0.16584852  0.82645637  0.19164013  1
  O2-  O442  1  0.17010689  0.84017224  0.52156929  1
  O2-  O443  1  0.14791041  0.81881513  0.83947824  1
  O2-  O444  1  0.44571759  0.04950689  0.20383600  1
  O2-  O445  1  0.43167616  0.07210401  0.51790784  1
  O2-  O446  1  0.40781406  0.05317489  0.86942186  1
  O2-  O447  1  0.40515765  0.33964675  0.19728550  1
  O2-  O448  1  0.41885891  0.33432317  0.51830696  1
  O2-  O449  1  0.41505347  0.35934394  0.87952780  1
  O2-  O450  1  0.43193647  0.59809020  0.19061722  1
  O2-  O451  1  0.40730499  0.58059882  0.52847025  1
  O2-  O452  1  0.41594785  0.59003510  0.85553387  1
  O2-  O453  1  0.42213485  0.85274460  0.19816722  1
  O2-  O454  1  0.41524396  0.82914523  0.52495020  1
  O2-  O455  1  0.43698752  0.84816440  0.85393779  1
  O2-  O456  1  0.67629472  0.08173469  0.20457780  1
  O2-  O457  1  0.71193005  0.06604085  0.51837139  1
  O2-  O458  1  0.66046186  0.06573707  0.85993678  1
  O2-  O459  1  0.68107439  0.33237267  0.19085772  1
  O2-  O460  1  0.69933940  0.37701649  0.52847172  1
  O2-  O461  1  0.65616104  0.31509777  0.85721546  1
  O2-  O462  1  0.64389293  0.54141355  0.19552238  1
  O2-  O463  1  0.67224883  0.59775500  0.48699623  1
  O2-  O464  1  0.65740166  0.57608938  0.86524990  1
  O2-  O465  1  0.66555268  0.87214387  0.15739044  1
  O2-  O466  1  0.65843618  0.83124460  0.52717534  1
  O2-  O467  1  0.67580402  0.83164022  0.85307089  1
  O2-  O468  1  0.93479987  0.04859519  0.20862068  1
  O2-  O469  1  0.90900819  0.08782863  0.50203112  1
  O2-  O470  1  0.90599239  0.12607664  0.85739672  1
  O2-  O471  1  0.90625550  0.32141864  0.19688574  1
  O2-  O472  1  0.90705984  0.31598553  0.49338560  1
  O2-  O473  1  0.93777837  0.33433033  0.84330533  1
  O2-  O474  1  0.90962292  0.57964323  0.18747539  1
  O2-  O475  1  0.93509020  0.59407641  0.51090635  1
  O2-  O476  1  0.88875288  0.55756488  0.81706791  1
  O2-  O477  1  0.91138040  0.83929581  0.20750592  1
  O2-  O478  1  0.92572374  0.83644906  0.51742703  1
  O2-  O479  1  0.90904736  0.81309305  0.83697809  1
  O2-  O480  1  0.17427278  0.08333970  0.31611460  1
  O2-  O481  1  0.15974508  0.07728434  0.63634576  1
  O2-  O482  1  0.20165517  0.13795787  0.97182594  1
  O2-  O483  1  0.17257444  0.34398729  0.32453704  1
  O2-  O484  1  0.14977252  0.32767784  0.64262159  1
  O2-  O485  1  0.15107550  0.33613994  1.00308647  1
  O2-  O486  1  0.17812355  0.58189127  0.32455813  1
  O2-  O487  1  0.16990676  0.58585267  0.63899709  1
  O2-  O488  1  0.16738666  0.58584991  0.97869954  1
  O2-  O489  1  0.17554107  0.83032102  0.31568532  1
  O2-  O490  1  0.16745824  0.84025166  0.64274449  1
  O2-  O491  1  0.16425370  0.81653046  0.96254534  1
  O2-  O492  1  0.41525916  0.08560640  0.31773078  1
  O2-  O493  1  0.42834965  0.08151271  0.64323924  1
  O2-  O494  1  0.43970410  0.10217320  0.99094990  1
  O2-  O495  1  0.41541682  0.33363261  0.32487519  1
  O2-  O496  1  0.42253256  0.33448351  0.63975489  1
  O2-  O497  1  0.43806193  0.35773202  1.00423370  1
  O2-  O498  1  0.42204129  0.59004749  0.31335078  1
  O2-  O499  1  0.41378089  0.58097359  0.65298545  1
  O2-  O500  1  0.42029100  0.58328489  0.98257632  1
  O2-  O501  1  0.41218623  0.83294446  0.31862298  1
  O2-  O502  1  0.42557169  0.83789209  0.64894157  1
  O2-  O503  1  0.43174813  0.82470947  0.98046359  1
  O2-  O504  1  0.67090471  0.09850506  0.33136503  1
  O2-  O505  1  0.69362575  0.09130461  0.64879585  1
  O2-  O506  1  0.65562425  0.08015198  0.98703672  1
  O2-  O507  1  0.67385572  0.33707534  0.31586188  1
  O2-  O508  1  0.69114191  0.35205704  0.65239061  1
  O2-  O509  1  0.67644853  0.32298118  0.97817769  1
  O2-  O510  1  0.67497891  0.57509220  0.32138896  1
  O2-  O511  1  0.69516568  0.59965081  0.70752624  1
  O2-  O512  1  0.67790696  0.59750732  0.99976335  1
  O2-  O513  1  0.68583522  0.92224346  0.27751281  1
  O2-  O514  1  0.66502595  0.82711332  0.64835641  1
  O2-  O515  1  0.67436333  0.83574883  0.98110743  1
  O2-  O516  1  0.84039421  0.05499086  0.30767484  1
  O2-  O517  1  0.91413739  0.08298556  0.62507458  1
  O2-  O518  1  0.92372728  0.08759410  0.98104058  1
  O2-  O519  1  0.92053851  0.33851047  0.31851116  1
  O2-  O520  1  0.87060260  0.30799944  0.66506913  1
  O2-  O521  1  0.91546178  0.33686490  0.96793190  1
  O2-  O522  1  0.92898249  0.59080976  0.30980383  1
  O2-  O523  1  0.92952623  0.59412489  0.63528442  1
  O2-  O524  1  0.90401781  0.58324647  0.99969862  1
  O2-  O525  1  0.93521600  0.84380980  0.32372473  1
  O2-  O526  1  0.91771928  0.84486688  0.63341972  1
  O2-  O527  1  0.94375517  0.81644093  0.96395378  1
  O2-  O528  1  0.08778594  0.16566666  0.03131946  1
  O2-  O529  1  0.09204641  0.16605282  0.35304230  1
  O2-  O530  1  0.07199642  0.15525530  0.66951328  1
  O2-  O531  1  0.06721263  0.42437996  0.02641865  1
  O2-  O532  1  0.09061761  0.42195558  0.35787563  1
  O2-  O533  1  0.06131471  0.40847316  0.67636080  1
  O2-  O534  1  0.08144545  0.66703328  0.02116162  1
  O2-  O535  1  0.09299366  0.66629450  0.35653367  1
  O2-  O536  1  0.09374058  0.67430699  0.67941155  1
  O2-  O537  1  0.06639007  0.97383328  0.01064047  1
  O2-  O538  1  0.10023434  0.92017005  0.35423002  1
  O2-  O539  1  0.08365424  0.91894985  0.68107646  1
  O2-  O540  1  0.35752095  0.19123434  0.02446412  1
  O2-  O541  1  0.33779017  0.16959231  0.36353961  1
  O2-  O542  1  0.33278210  0.15990766  0.65996574  1
  O2-  O543  1  0.32060966  0.42516971  0.02572626  1
  O2-  O544  1  0.34172957  0.42754923  0.36460744  1
  O2-  O545  1  0.31561189  0.40269974  0.68124579  1
  O2-  O546  1  0.33642562  0.66207286  0.01741364  1
  O2-  O547  1  0.34204785  0.67033845  0.36292409  1
  O2-  O548  1  0.33322731  0.66785661  0.68648244  1
  O2-  O549  1  0.33382823  0.89766332  0.01807362  1
  O2-  O550  1  0.33791744  0.92277506  0.35838258  1
  O2-  O551  1  0.33359043  0.91729270  0.68243522  1
  O2-  O552  1  0.58879883  0.16586260  0.02273093  1
  O2-  O553  1  0.57987629  0.17527986  0.35735391  1
  O2-  O554  1  0.59499665  0.15194235  0.69767907  1
  O2-  O555  1  0.61637701  0.43025507  0.01593948  1
  O2-  O556  1  0.58279731  0.40977765  0.35716759  1
  O2-  O557  1  0.59013144  0.42356753  0.69844942  1
  O2-  O558  1  0.58601982  0.66721066  0.02682538  1
  O2-  O559  1  0.58816494  0.65565254  0.35972912  1
  O2-  O560  1  0.58376626  0.66295725  0.69732390  1
  O2-  O561  1  0.59065834  0.91781182  0.02347198  1
  O2-  O562  1  0.57343314  0.92855921  0.35756849  1
  O2-  O563  1  0.59355209  0.91948146  0.68860718  1
  O2-  O564  1  0.82649306  0.16073635  -0.02622964  1
  O2-  O565  1  0.82941954  0.17678601  0.37754226  1
  O2-  O566  1  0.85077517  0.22792467  0.69608286  1
  O2-  O567  1  0.83341109  0.40755838  0.02352094  1
  O2-  O568  1  0.84268156  0.42703067  0.35031817  1
  O2-  O569  1  0.73417393  0.31688169  0.69230240  1
  O2-  O570  1  0.82630165  0.66719532  0.04261508  1
  O2-  O571  1  0.84722333  0.67339896  0.35479560  1
  O2-  O572  1  0.86439712  0.69006541  0.67304644  1
  O2-  O573  1  0.83971382  0.91761205  0.01782689  1
  O2-  O574  1  0.85680594  0.92673736  0.35740038  1
  O2-  O575  1  0.82370753  0.90388782  0.68444422  1
