# generated using pymatgen
data_H2O
_symmetry_space_group_name_H-M   'P 1'
_cell_length_a   17.98711165
_cell_length_b   17.99104519
_cell_length_c   22.00077708
_cell_angle_alpha   90.00210589
_cell_angle_beta   90.02266904
_cell_angle_gamma   120.00978405
_symmetry_Int_Tables_number   1
_chemical_formula_structural   H2O
_chemical_formula_sum   'H384 O192'
_cell_volume   6165.14934500
_cell_formula_units_Z   192
loop_
 _symmetry_equiv_pos_site_id
 _symmetry_equiv_pos_as_xyz
  1  'x, y, z'
loop_
 _atom_type_symbol
 _atom_type_oxidation_number
  H+  1.0
  O2-  -2.0
loop_
 _atom_site_type_symbol
 _atom_site_label
 _atom_site_symmetry_multiplicity
 _atom_site_fract_x
 _atom_site_fract_y
 _atom_site_fract_z
 _atom_site_occupancy
  H+  H0  1  0.09260773  0.93547132  0.39502124  1
  H+  H1  1  0.87206279  0.38444806  0.50201999  1
  H+  H2  1  0.52522995  0.38842683  0.68107641  1
  H+  H3  1  0.36717284  0.98554712  -0.00665082  1
  H+  H4  1  0.77294172  0.13335607  0.33878261  1
  H+  H5  1  0.10983028  0.63057843  0.66723877  1
  H+  H6  1  0.39317252  0.51190692  0.64755849  1
  H+  H7  1  0.73057890  0.35991005  0.32993848  1
  H+  H8  1  0.63913330  0.35833943  -0.00361329  1
  H+  H9  1  0.23610057  0.13719128  0.34797588  1
  H+  H10  1  -0.02330269  0.87072851  0.82901845  1
  H+  H11  1  0.53511980  0.89207857  0.48851984  1
  H+  H12  1  0.88313920  0.91276833  0.33091146  1
  H+  H13  1  0.87742296  0.67282559  0.32088134  1
  H+  H14  1  0.73085303  0.35889122  0.50819683  1
  H+  H15  1  0.61408130  0.87908984  0.32962306  1
  H+  H16  1  0.39692198  0.83026057  0.66085888  1
  H+  H17  1  0.92150262  0.32557710  0.60403135  1
  H+  H18  1  0.13829248  0.02245001  0.83946423  1
  H+  H19  1  0.87319907  0.47712434  0.83127189  1
  H+  H20  1  0.11516211  0.47545538  0.66668729  1
  H+  H21  1  0.52714361  0.66231307  0.80388524  1
  H+  H22  1  0.40183931  0.87317986  0.50390938  1
  H+  H23  1  0.65405173  0.65177124  0.84637856  1
  H+  H24  1  0.77476164  0.40053788  0.00755167  1
  H+  H25  1  -0.07093604  0.13926755  0.49930283  1
  H+  H26  1  0.78059999  0.14071099  0.49491769  1
  H+  H27  1  0.88416437  0.26228388  0.32540702  1
  H+  H28  1  0.64507308  0.86994475  0.17829869  1
  H+  H29  1  0.62171223  0.89275881  0.66972004  1
  H+  H30  1  0.86478567  0.22299191  0.82027088  1
  H+  H31  1  0.26901463  0.13481901  0.01581759  1
  H+  H32  1  0.61348626  0.88331762  0.00991029  1
  H+  H33  1  0.61449957  0.13189484  0.16438924  1
  H+  H34  1  0.64704616  0.79401462  0.49911245  1
  H+  H35  1  0.12788336  0.26603558  0.50482968  1
  H+  H36  1  0.13296961  0.03103841  0.66054513  1
  H+  H37  1  0.36068792  0.46963502  1.01190353  1
  H+  H38  1  0.36683065  0.64800340  0.71211358  1
  H+  H39  1  0.12091455  0.25824434  0.32888362  1
  H+  H40  1  0.36161666  0.24368492  0.65174618  1
  H+  H41  1  0.15117441  0.04815399  0.33488885  1
  H+  H42  1  0.62030527  0.22806513  0.83045414  1
  H+  H43  1  0.11051863  0.46340968  0.34410837  1
  H+  H44  1  0.48627158  0.37022512  0.32695081  1
  H+  H45  1  0.61774653  0.97928120  0.66806841  1
  H+  H46  1  0.88820820  0.54720801  0.99378846  1
  H+  H47  1  0.73524724  0.62890718  0.32688761  1
  H+  H48  1  0.89177272  0.62514294  0.15947189  1
  H+  H49  1  0.61513296  0.70382467  -0.00952535  1
  H+  H50  1  0.28885688  0.90586233  0.16536890  1
  H+  H51  1  0.80682490  0.69250582  -0.00299612  1
  H+  H52  1  0.66789963  0.58555805  0.56015682  1
  H+  H53  1  0.48239501  0.35697824  0.17445169  1
  H+  H54  1  0.09741263  0.09967364  0.51495509  1
  H+  H55  1  0.16715384  0.71404000  0.80395185  1
  H+  H56  1  0.88076659  0.83631065  0.00099422  1
  H+  H57  1  0.64563566  0.60946504  0.02518662  1
  H+  H58  1  0.52093780  0.65795161  0.48127970  1
  H+  H59  1  0.14256789  0.51712577  0.16702126  1
  H+  H60  1  0.36794362  0.72923556  0.01188365  1
  H+  H61  1  0.42275423  0.09609106  0.27410103  1
  H+  H62  1  1.01102445  0.11174948  0.34274342  1
  H+  H63  1  -0.03823324  0.04961796  0.47635228  1
  H+  H64  1  0.03407540  0.64589612  0.00588983  1
  H+  H65  1  0.65228241  0.28920145  0.66036513  1
  H+  H66  1  0.13690358  0.35963199  0.65736821  1
  H+  H67  1  0.61060860  0.38425347  0.68024266  1
  H+  H68  1  0.36394064  0.44459849  0.83187723  1
  H+  H69  1  0.08338219  0.91472809  0.07012080  1
  H+  H70  1  0.37775642  0.35611350  0.64296604  1
  H+  H71  1  0.14636797  0.52871244  -0.00581865  1
  H+  H72  1  0.36436497  0.12605636  0.84546449  1
  H+  H73  1  0.91969099  0.32338359  1.04013276  1
  H+  H74  1  0.13866261  0.79213850  0.33016506  1
  H+  H75  1  0.86453894  0.55621030  0.30626357  1
  H+  H76  1  0.37364171  0.15144737  0.35418014  1
  H+  H77  1  0.23221119  0.35769485  -0.00613081  1
  H+  H78  1  0.71526007  0.86464686  0.32210546  1
  H+  H79  1  0.03583867  0.89436911  0.48544696  1
  H+  H80  1  0.12747259  0.34958971  0.33135582  1
  H+  H81  1  0.09084609  0.66486420  0.75767167  1
  H+  H82  1  0.96589360  0.59807138  0.66290208  1
  H+  H83  1  -0.10206632  0.77355365  0.49211245  1
  H+  H84  1  0.77712369  0.13064751  0.66466779  1
  H+  H85  1  0.13741575  0.26445025  0.83858827  1
  H+  H86  1  1.02380639  0.13034303  0.83036928  1
  H+  H87  1  0.94578150  0.10482769  0.21896596  1
  H+  H88  1  0.86694307  0.10299943  0.18515998  1
  H+  H89  1  0.61785967  0.22604295  0.33984594  1
  H+  H90  1  0.34712767  0.93480247  0.40501060  1
  H+  H91  1  0.62212513  0.47420928  0.49358038  1
  H+  H92  1  0.88501082  0.74941762  0.81860214  1
  H+  H93  1  0.39833557  0.03286195  0.18155404  1
  H+  H94  1  0.89840312  0.28011015  0.50978834  1
  H+  H95  1  0.89310067  0.36617233  0.83293044  1
  H+  H96  1  0.22137280  0.60637428  0.65528768  1
  H+  H97  1  0.52570753  0.89017776  0.16788672  1
  H+  H98  1  0.62307485  0.48515405  0.33901897  1
  H+  H99  1  0.73255502  0.36005431  0.84469316  1
  H+  H100  1  0.89378354  0.86119931  0.62683312  1
  H+  H101  1  0.36668222  0.22794482  0.17073716  1
  H+  H102  1  0.62147862  0.39445873  0.33576215  1
  H+  H103  1  0.36722021  0.47168760  0.15422161  1
  H+  H104  1  0.12559736  0.59490296  0.84218356  1
  H+  H105  1  0.52695233  0.13932928  0.34173030  1
  H+  H106  1  0.02341955  0.87702951  0.01070021  1
  H+  H107  1  0.58075954  0.92540570  0.76656557  1
  H+  H108  1  0.12316430  0.73270092  0.00321474  1
  H+  H109  1  0.23425565  0.87593106  0.33189508  1
  H+  H110  1  0.38607223  0.36170276  0.99682950  1
  H+  H111  1  0.87584141  0.75957165  0.33501313  1
  H+  H112  1  0.64846143  0.63131768  0.65068750  1
  H+  H113  1  0.64953248  0.11802002  0.65732025  1
  H+  H114  1  0.88956379  0.51388926  0.51126320  1
  H+  H115  1  0.85624528  0.22016620  0.15935257  1
  H+  H116  1  -0.00959997  0.89067195  0.32319615  1
  H+  H117  1  0.62011978  0.74353124  0.32805142  1
  H+  H118  1  0.37814109  0.24145670  0.34738339  1
  H+  H119  1  0.62775609  0.89949785  0.49015032  1
  H+  H120  1  0.61943213  0.47230936  0.02106147  1
  H+  H121  1  0.11734733  0.89260495  0.15920132  1
  H+  H122  1  0.11636109  0.98202921  0.15545440  1
  H+  H123  1  0.41230122  0.85210123  0.75607910  1
  H+  H124  1  0.72914694  0.11204208  0.84223286  1
  H+  H125  1  0.62026182  0.97469611  0.00677909  1
  H+  H126  1  0.88975760  0.86814225  0.17095776  1
  H+  H127  1  0.54143453  0.64270723  0.32678225  1
  H+  H128  1  0.76462775  0.87666057  0.16076506  1
  H+  H129  1  0.25599686  0.88998968  0.83528049  1
  H+  H130  1  0.13170831  0.03492436  0.50852136  1
  H+  H131  1  0.41113469  0.15217339  0.50650039  1
  H+  H132  1  0.88083825  0.85877356  0.83411403  1
  H+  H133  1  0.36687914  0.22632043  0.84970110  1
  H+  H134  1  0.17669929  0.84904197  0.23119764  1
  H+  H135  1  0.11168216  0.22250307  0.99699544  1
  H+  H136  1  0.88301155  0.01094141  0.99772037  1
  H+  H137  1  0.37103912  0.90041499  0.34510456  1
  H+  H138  1  1.01861138  0.63704940  0.50689308  1
  H+  H139  1  0.87982104  0.46135302  0.34840402  1
  H+  H140  1  0.10973382  0.13634536  0.35205484  1
  H+  H141  1  0.73444365  0.62741718  0.65416725  1
  H+  H142  1  0.43661738  0.97161111  0.66017164  1
  H+  H143  1  0.28456726  0.63706783  0.16285998  1
  H+  H144  1  0.30988622  0.71371187  0.77976557  1
  H+  H145  1  0.21867491  0.61171403  0.33280739  1
  H+  H146  1  0.38177891  1.00426272  0.49881718  1
  H+  H147  1  0.13923612  0.27728943  0.17048643  1
  H+  H148  1  0.12887395  0.38898907  1.00121555  1
  H+  H149  1  0.13240166  0.01819789  0.99888985  1
  H+  H150  1  0.78103105  0.86705642  -0.00444381  1
  H+  H151  1  0.62597377  0.22659631  0.01212050  1
  H+  H152  1  0.38180637  0.56148044  0.78046938  1
  H+  H153  1  0.16418182  0.32376385  0.59983656  1
  H+  H154  1  0.87732020  0.11680587  0.66831945  1
  H+  H155  1  0.25391915  0.85818461  0.65826275  1
  H+  H156  1  0.15735483  0.79022861  0.17194082  1
  H+  H157  1  0.37691505  0.33587089  0.84576662  1
  H+  H158  1  0.98759418  0.37006825  0.51171889  1
  H+  H159  1  0.22663229  0.11145169  0.17283284  1
  H+  H160  1  0.98209341  0.35200410  0.66237081  1
  H+  H161  1  0.67456052  0.08395231  0.93582674  1
  H+  H162  1  0.14242965  0.35637369  0.83555110  1
  H+  H163  1  0.85656186  0.97403616  0.83977693  1
  H+  H164  1  0.70688881  0.73895182  0.91781819  1
  H+  H165  1  0.64041535  0.35647941  0.84500727  1
  H+  H166  1  0.40534193  0.49042765  0.31018783  1
  H+  H167  1  1.00422773  0.65558794  0.33514409  1
  H+  H168  1  -0.02488082  0.11005470  0.66992010  1
  H+  H169  1  0.47053827  0.59898974  1.00463458  1
  H+  H170  1  0.10541715  0.22201401  0.67350417  1
  H+  H171  1  0.75716878  0.88681083  0.67675320  1
  H+  H172  1  0.36563633  0.89624437  -0.01197401  1
  H+  H173  1  0.49234949  0.85427755  0.65052531  1
  H+  H174  1  0.49183610  0.11626791  0.84178252  1
  H+  H175  1  0.12836238  0.90286348  0.48318077  1
  H+  H176  1  0.08912107  0.71036486  0.67035235  1
  H+  H177  1  0.61096244  0.74709640  0.15130414  1
  H+  H178  1  0.08565151  0.65024968  0.35472913  1
  H+  H179  1  0.88710780  0.11118199  0.84189192  1
  H+  H180  1  0.25648751  0.64208838  0.83181739  1
  H+  H181  1  0.47806272  0.86437901  1.00215907  1
  H+  H182  1  0.86713585  0.41020586  1.00830846  1
  H+  H183  1  0.14116850  0.11489249  0.16122973  1
  H+  H184  1  0.52781539  0.38617453  0.00868883  1
  H+  H185  1  0.64609779  0.62666135  0.32997813  1
  H+  H186  1  0.87127224  0.22105235  0.66774166  1
  H+  H187  1  -0.03000785  0.10470466  -0.00223399  1
  H+  H188  1  0.87364162  0.38014845  0.68245057  1
  H+  H189  1  0.35446931  0.36718975  0.33615187  1
  H+  H190  1  0.37906725  0.64377211  0.80226262  1
  H+  H191  1  0.67992494  0.84619011  0.59459380  1
  H+  H192  1  0.85589885  0.11213931  0.01551642  1
  H+  H193  1  0.12786414  0.58807299  0.30241360  1
  H+  H194  1  0.98328228  0.87514352  0.17197498  1
  H+  H195  1  0.59558034  0.41757542  0.43301705  1
  H+  H196  1  0.37893298  0.71138537  0.65744474  1
  H+  H197  1  0.36175706  0.14177152  0.02101824  1
  H+  H198  1  0.34742559  0.97559505  0.82325138  1
  H+  H199  1  0.11835014  0.46743826  0.82622070  1
  H+  H200  1  0.38853432  0.59729243  0.64097402  1
  H+  H201  1  -0.02594646  0.35199116  0.32793349  1
  H+  H202  1  0.61328641  0.36600412  0.16448567  1
  H+  H203  1  0.38988991  0.63161119  0.28895919  1
  H+  H204  1  0.63810418  0.77958226  0.65111590  1
  H+  H205  1  0.12039892  0.77940464  0.84393232  1
  H+  H206  1  0.25205222  0.62235665  0.50364935  1
  H+  H207  1  0.64613308  0.02885611  0.50135031  1
  H+  H208  1  0.86982067  0.63771646  0.66976150  1
  H+  H209  1  0.76096666  0.11533007  1.01091571  1
  H+  H210  1  0.12323989  0.90758933  0.33533247  1
  H+  H211  1  0.37481551  0.90152936  0.16832856  1
  H+  H212  1  0.10930892  0.13522061  0.67214188  1
  H+  H213  1  0.54445521  0.15676030  0.67114862  1
  H+  H214  1  0.04222883  0.39204087  -0.00274835  1
  H+  H215  1  0.52684574  0.63975723  0.66104633  1
  H+  H216  1  0.37877361  0.78437653  0.85208808  1
  H+  H217  1  0.40103961  -0.04158132  0.63708542  1
  H+  H218  1  0.49127345  0.12864976  0.00973762  1
  H+  H219  1  0.26913511  0.36524942  0.82648148  1
  H+  H220  1  0.34842765  0.71363692  0.49887921  1
  H+  H221  1  0.10749706  0.89239728  0.82396082  1
  H+  H222  1  0.87953854  1.01911819  0.67488638  1
  H+  H223  1  0.25230296  0.84023468  0.62703203  1
  H+  H224  1  0.64426900  0.11239842  0.99756373  1
  H+  H225  1  0.63623048  0.10778027  0.32737793  1
  H+  H226  1  0.39029625  0.03507659  0.33266376  1
  H+  H227  1  0.13821438  0.86676836  0.99639460  1
  H+  H228  1  0.36535621  0.15081931  0.65981665  1
  H+  H229  1  0.39350054  0.77755614  0.17978749  1
  H+  H230  1  0.42477041  0.65217104  0.31278201  1
  H+  H231  1  0.63801507  1.02227082  0.17644364  1
  H+  H232  1  0.14391278  0.65359974  0.15864701  1
  H+  H233  1  0.88294800  0.53117783  0.16930324  1
  H+  H234  1  0.11969585  0.48521215  0.50153511  1
  H+  H235  1  0.35825599  0.21145049  0.44470349  1
  H+  H236  1  0.97345123  0.35498043  0.16982042  1
  H+  H237  1  0.35449494  0.45521259  0.48456427  1
  H+  H238  1  0.87984333  0.74119732  0.15524003  1
  H+  H239  1  0.48072512  0.86797380  0.33213127  1
  H+  H240  1  0.37993525  0.87272686  0.85552417  1
  H+  H241  1  0.99175086  0.62290961  0.84041866  1
  H+  H242  1  0.26836724  0.37615610  0.66860315  1
  H+  H243  1  0.78008767  0.56396596  0.44040747  1
  H+  H244  1  0.89009992  0.65345246  0.81989924  1
  H+  H245  1  0.86352278  0.46372263  0.68007352  1
  H+  H246  1  0.52612340  0.36585615  0.83831213  1
  H+  H247  1  0.34383901  0.65486565  0.35447252  1
  H+  H248  1  -0.01264147  0.87936035  0.65302952  1
  H+  H249  1  0.26582922  0.14074268  0.65995154  1
  H+  H250  1  0.63696675  0.02597129  0.84209030  1
  H+  H251  1  0.83749594  0.88015982  0.70156190  1
  H+  H252  1  0.08049145  0.15924690  0.76953251  1
  H+  H253  1  0.22215219  0.34754746  0.50127891  1
  H+  H254  1  0.29628044  0.91172366  0.49751374  1
  H+  H255  1  0.11524147  0.39161342  0.49775106  1
  H+  H256  1  0.62872806  0.50380152  0.17986352  1
  H+  H257  1  0.52270348  0.89905695  0.82727327  1
  H+  H258  1  0.26902331  0.12386800  0.84274982  1
  H+  H259  1  0.39143455  0.60893203  0.16964717  1
  H+  H260  1  0.66249674  0.57336185  0.23127216  1
  H+  H261  1  0.11154683  0.38163072  0.15954544  1
  H+  H262  1  0.10933741  0.13140146  0.00112046  1
  H+  H263  1  0.27873382  0.64112371  0.01043294  1
  H+  H264  1  0.62383663  0.23170829  0.49274018  1
  H+  H265  1  0.74323672  0.87764274  0.50231748  1
  H+  H266  1  0.40849477  0.06160900  0.64918491  1
  H+  H267  1  0.38382065  0.27161786  1.00203008  1
  H+  H268  1  0.91440109  0.32563340  0.22951652  1
  H+  H269  1  0.02858815  0.14049689  0.14362631  1
  H+  H270  1  0.71881496  0.61049200  0.49837126  1
  H+  H271  1  0.26492509  0.36873546  0.33333097  1
  H+  H272  1  0.38490372  0.60489968  1.00985890  1
  H+  H273  1  0.83666552  0.65614698  0.41362262  1
  H+  H274  1  0.64333402  0.26434380  0.17648610  1
  H+  H275  1  0.69812593  0.59066021  1.07384010  1
  H+  H276  1  0.02679500  0.96370541  0.70788188  1
  H+  H277  1  0.13569567  0.60265681  0.51275301  1
  H+  H278  1  0.08052949  0.84641886  0.67170933  1
  H+  H279  1  0.38348003  0.78780519  0.33890488  1
  H+  H280  1  0.88031408  0.73272470  0.66500989  1
  H+  H281  1  0.72811978  0.85940468  0.86833736  1
  H+  H282  1  0.39479961  0.36291925  0.17427226  1
  H+  H283  1  0.14269439  0.11323304  0.84226119  1
  H+  H284  1  0.73095360  0.35701171  0.17513716  1
  H+  H285  1  0.18921229  0.84044462  0.44083773  1
  H+  H286  1  0.63587934  0.01750837  0.32487231  1
  H+  H287  1  0.22952398  0.87209462  0.98096518  1
  H+  H288  1  0.85183556  0.96502486  0.15646614  1
  H+  H289  1  0.86471448  0.02739149  0.29131866  1
  H+  H290  1  0.43791269  0.12340218  0.59268666  1
  H+  H291  1  0.08007469  0.41130821  0.40657709  1
  H+  H292  1  0.67266409  0.32987459  0.93767591  1
  H+  H293  1  0.43753217  0.12720712  0.95302002  1
  H+  H294  1  0.66305217  0.33834418  0.59892100  1
  H+  H295  1  0.14239245  0.61686898  0.99282710  1
  H+  H296  1  0.67321891  0.33116573  0.26952799  1
  H+  H297  1  0.88436030  0.89923973  0.48403341  1
  H+  H298  1  0.90494080  0.64346457  0.98646497  1
  H+  H299  1  0.33015807  0.40295791  0.06754414  1
  H+  H300  1  0.52723268  0.13726622  0.16462037  1
  H+  H301  1  0.08919122  0.17502554  0.08717790  1
  H+  H302  1  0.91611435  0.60331424  0.24366091  1
  H+  H303  1  0.86733710  0.36871114  0.34151699  1
  H+  H304  1  0.15295007  0.83715450  0.90490459  1
  H+  H305  1  0.45837193  0.56731454  0.88543227  1
  H+  H306  1  0.08591760  0.41116035  0.09800393  1
  H+  H307  1  0.16599438  0.07729216  0.93934308  1
  H+  H308  1  0.40757078  0.31584108  0.91193348  1
  H+  H309  1  0.67446314  0.60371258  0.89766915  1
  H+  H310  1  0.67599711  0.08721774  0.59602189  1
  H+  H311  1  0.16312644  0.57567894  0.90330529  1
  H+  H312  1  0.58397234  0.67718998  0.05993658  1
  H+  H313  1  0.40552817  0.31945973  0.58316163  1
  H+  H314  1  0.82334290  0.89963023  0.06269348  1
  H+  H315  1  0.93231575  0.82848186  0.55297504  1
  H+  H316  1  0.49411813  0.13859303  0.50327080  1
  H+  H317  1  0.83230035  0.15739957  0.76503961  1
  H+  H318  1  0.30592411  0.66813210  0.41582251  1
  H+  H319  1  0.59455013  0.16554252  0.07190245  1
  H+  H320  1  0.59019729  0.91549372  0.39154571  1
  H+  H321  1  0.82145597  0.14649737  0.07948113  1
  H+  H322  1  0.16288293  0.57667146  0.59317658  1
  H+  H323  1  0.52309135  0.65555903  0.14487355  1
  H+  H324  1  0.58715616  0.68088946  0.72035436  1
  H+  H325  1  0.47221487  0.61337179  0.89192788  1
  H+  H326  1  0.42914650  0.04556497  0.89107872  1
  H+  H327  1  0.61976350  0.13876179  0.83027569  1
  H+  H328  1  0.39681307  0.12168164  0.18083798  1
  H+  H329  1  0.33317442  0.40011498  0.72485150  1
  H+  H330  1  0.03028390  0.37990467  0.81835556  1
  H+  H331  1  0.32138319  0.39518231  0.42626159  1
  H+  H332  1  0.85807155  0.68067156  0.75429324  1
  H+  H333  1  0.33415647  0.16876368  0.11187047  1
  H+  H334  1  0.08074408  0.92675876  0.76274307  1
  H+  H335  1  0.43093142  0.56873088  0.21793544  1
  H+  H336  1  0.61431391  0.73964122  0.82763958  1
  H+  H337  1  0.92840866  0.33255033  0.88607025  1
  H+  H338  1  0.02913438  0.12797598  0.43553171  1
  H+  H339  1  0.42165111  0.83678388  0.94206533  1
  H+  H340  1  0.58329897  0.39573689  0.10420810  1
  H+  H341  1  0.33237610  0.86124744  0.75759856  1
  H+  H342  1  0.42586469  0.33386872  0.26715929  1
  H+  H343  1  0.87088844  0.70567516  0.08864957  1
  H+  H344  1  0.06436468  0.66984353  0.44400339  1
  H+  H345  1  0.11995208  0.83202651  0.61332496  1
  H+  H346  1  0.14146872  0.77750537  0.49392674  1
  H+  H347  1  0.86779836  0.27964992  0.98291896  1
  H+  H348  1  0.84053310  0.40729376  0.44050005  1
  H+  H349  1  0.83360288  0.42344811  0.10227039  1
  H+  H350  1  0.88352077  0.59836602  0.50441562  1
  H+  H351  1  0.11227299  0.68343719  0.10136200  1
  H+  H352  1  0.76347563  0.13023107  0.16405552  1
  H+  H353  1  0.58163806  0.40035932  0.77827728  1
  H+  H354  1  0.18035094  0.57037489  0.22782086  1
  H+  H355  1  0.92851751  0.85750718  0.26354515  1
  H+  H356  1  0.66750545  0.83537986  0.24041391  1
  H+  H357  1  0.27821521  0.38360402  0.16277879  1
  H+  H358  1  0.42788876  0.83198435  0.55798569  1
  H+  H359  1  0.58036748  0.69541157  0.42285097  1
  H+  H360  1  0.59626951  0.17075381  0.73262230  1
  H+  H361  1  0.09304645  0.41727449  0.72717786  1
  H+  H362  1  0.34488223  0.67345279  0.10525475  1
  H+  H363  1  0.86559727  0.38965247  0.15896296  1
  H+  H364  1  0.64326004  0.36284136  0.50136726  1
  H+  H365  1  0.37114959  0.59330332  0.49662557  1
  H+  H366  1  0.66932263  0.08276566  0.23641347  1
  H+  H367  1  0.49074227  0.51067602  0.27664153  1
  H+  H368  1  0.90585813  0.57036527  0.60434001  1
  H+  H369  1  0.83759651  0.16245804  0.39485548  1
  H+  H370  1  0.41280685  0.56648368  0.54963155  1
  H+  H371  1  0.64577098  0.11814688  0.50327188  1
  H+  H372  1  0.84440758  0.41606465  0.77193001  1
  H+  H373  1  0.85475447  0.93593787  0.42918408  1
  H+  H374  1  0.91380204  0.08184634  0.90327798  1
  H+  H375  1  0.58395854  0.91839147  0.10768138  1
  H+  H376  1  0.92928324  0.59968261  0.89733377  1
  H+  H377  1  0.16153705  0.32819002  0.23371277  1
  H+  H378  1  0.17527029  0.33111224  0.93219780  1
  H+  H379  1  0.42050821  0.83730930  0.23931471  1
  H+  H380  1  0.36735376  0.32902854  0.49072897  1
  H+  H381  1  0.80881097  0.91491534  0.78324017  1
  H+  H382  1  0.15864249  0.08988129  0.59896808  1
  H+  H383  1  0.59121008  0.16946889  0.43348199  1
  O2-  O384  1  0.08883041  0.17718802  0.13311034  1
  O2-  O385  1  0.00730023  0.11104994  0.47833236  1
  O2-  O386  1  0.08417829  0.16002043  0.81493143  1
  O2-  O387  1  0.07899787  0.40924379  0.14292055  1
  O2-  O388  1  0.08548163  0.42208188  0.48356633  1
  O2-  O389  1  0.09249865  0.40922620  0.80745265  1
  O2-  O390  1  0.12370494  0.69280697  0.14539749  1
  O2-  O391  1  0.07693306  0.67142486  0.48774761  1
  O2-  O392  1  0.10502870  0.67551767  0.80350375  1
  O2-  O393  1  0.08394851  0.91900637  0.14242707  1
  O2-  O394  1  0.09659773  0.93319827  0.47284791  1
  O2-  O395  1  0.08179034  0.92705008  0.80893035  1
  O2-  O396  1  0.33664531  0.16647744  0.15695521  1
  O2-  O397  1  0.35599394  0.21263867  0.49085463  1
  O2-  O398  1  0.33380234  0.15706357  0.83253625  1
  O2-  O399  1  0.33657638  0.40822701  0.14481099  1
  O2-  O400  1  0.32246866  0.39324127  0.47190791  1
  O2-  O401  1  0.33085792  0.38902738  0.81181522  1
  O2-  O402  1  0.34626607  0.67176969  0.15081833  1
  O2-  O403  1  0.31448094  0.65467971  0.48272238  1
  O2-  O404  1  0.31560820  0.68620719  0.81691097  1
  O2-  O405  1  0.35091272  0.93768248  0.15447360  1
  O2-  O406  1  0.35713284  0.94362137  0.48484631  1
  O2-  O407  1  0.31576316  0.91267449  0.81921168  1
  O2-  O408  1  0.58732523  0.16409611  0.14706940  1
  O2-  O409  1  0.59095423  0.16915471  0.47903177  1
  O2-  O410  1  0.58762670  0.16697675  0.81475804  1
  O2-  O411  1  0.57968916  0.39290433  0.14933656  1
  O2-  O412  1  0.60194902  0.41487556  0.47742656  1
  O2-  O413  1  0.58558886  0.39778616  0.82403841  1
  O2-  O414  1  0.57008402  0.70327618  0.12203672  1
  O2-  O415  1  0.57253147  0.70873900  0.46554348  1
  O2-  O416  1  0.59015530  0.68773001  0.80145829  1
  O2-  O417  1  0.58664298  0.92284121  0.15250536  1
  O2-  O418  1  0.59559750  0.92727504  0.47399536  1
  O2-  O419  1  0.58178588  0.93195788  0.81137044  1
  O2-  O420  1  0.82438984  0.15839980  0.14536138  1
  O2-  O421  1  0.84268829  0.17348085  0.48087325  1
  O2-  O422  1  0.83393362  0.16047420  0.81016595  1
  O2-  O423  1  0.83293007  0.41867528  0.14749117  1
  O2-  O424  1  0.84097963  0.41359100  0.48537361  1
  O2-  O425  1  0.84346653  0.41610347  0.81900048  1
  O2-  O426  1  0.85855634  0.68748264  0.13133347  1
  O2-  O427  1  0.82234504  0.62224247  0.45289262  1
  O2-  O428  1  0.86104013  0.68394303  0.80156317  1
  O2-  O429  1  0.82384227  0.90618381  0.13999773  1
  O2-  O430  1  0.86227886  0.93831641  0.47416161  1
  O2-  O431  1  0.82023658  0.91253127  0.82709508  1
  O2-  O432  1  0.16302001  0.07841082  0.17713787  1
  O2-  O433  1  0.14359677  0.08908891  0.52875267  1
  O2-  O434  1  0.17187868  0.08203317  0.85792032  1
  O2-  O435  1  0.16748397  0.33590781  0.18847226  1
  O2-  O436  1  0.16381601  0.32389930  0.52082532  1
  O2-  O437  1  0.17233416  0.32600328  0.85185164  1
  O2-  O438  1  0.17899736  0.57646430  0.18316802  1
  O2-  O439  1  0.16597286  0.57346745  0.52747165  1
  O2-  O440  1  0.16070093  0.57041621  0.85712904  1
  O2-  O441  1  0.17865232  0.85091110  0.18624727  1
  O2-  O442  1  0.17983866  0.84066508  0.48456162  1
  O2-  O443  1  0.15195693  0.83918614  0.85828377  1
  O2-  O444  1  0.43039141  0.09500271  0.19649916  1
  O2-  O445  1  0.43404628  0.11495586  0.52069509  1
  O2-  O446  1  0.43062805  0.08452249  0.85943223  1
  O2-  O447  1  0.42252307  0.33156538  0.19186273  1
  O2-  O448  1  0.40322496  0.30474455  0.50691117  1
  O2-  O449  1  0.40486869  0.30571436  0.86551246  1
  O2-  O450  1  0.42081026  0.57441632  0.17416970  1
  O2-  O451  1  0.40524900  0.56461183  0.50468903  1
  O2-  O452  1  0.41428356  0.62393796  0.77953690  1
  O2-  O453  1  0.42378261  0.83846372  0.19404578  1
  O2-  O454  1  0.42573884  0.83526068  0.51277280  1
  O2-  O455  1  0.41551568  0.84576631  0.86404939  1
  O2-  O456  1  0.67085494  0.08428540  0.19025377  1
  O2-  O457  1  0.67767604  0.08912498  0.51812088  1
  O2-  O458  1  0.67084633  0.08562508  0.86081314  1
  O2-  O459  1  0.67194952  0.32444073  0.19297075  1
  O2-  O460  1  0.66891102  0.32749726  0.51875896  1
  O2-  O461  1  0.67285993  0.32668750  0.86058223  1
  O2-  O462  1  0.65107377  0.56534477  0.18729806  1
  O2-  O463  1  0.66097826  0.57621494  0.51499020  1
  O2-  O464  1  0.69740965  0.65880107  0.87708573  1
  O2-  O465  1  0.67381475  0.83810442  0.19202337  1
  O2-  O466  1  0.68472421  0.85156010  0.51960534  1
  O2-  O467  1  0.67226187  0.82068059  0.88982076  1
  O2-  O468  1  0.88869422  0.06634564  0.20281284  1
  O2-  O469  1  0.88172053  0.13947474  0.52322948  1
  O2-  O470  1  0.91715764  0.08114801  0.85823885  1
  O2-  O471  1  0.91224476  0.32456973  0.18390637  1
  O2-  O472  1  0.92657528  0.33851035  0.52795031  1
  O2-  O473  1  0.92301853  0.33127878  0.84197524  1
  O2-  O474  1  0.91523540  0.59215193  0.18177462  1
  O2-  O475  1  0.91496550  0.57463645  0.52684978  1
  O2-  O476  1  0.93102823  0.59759108  0.85164442  1
  O2-  O477  1  0.92392816  0.84443121  0.18995562  1
  O2-  O478  1  0.93067798  0.83223689  0.50728009  1
  O2-  O479  1  0.91545340  0.83022978  0.84033306  1
  O2-  O480  1  0.17699421  0.11128589  0.33167472  1
  O2-  O481  1  0.16816068  0.09243518  0.64517371  1
  O2-  O482  1  0.16392884  0.07955421  0.98447606  1
  O2-  O483  1  0.15442431  0.31811553  0.31267337  1
  O2-  O484  1  0.16399401  0.32453713  0.64535582  1
  O2-  O485  1  0.17127773  0.32961037  0.97744213  1
  O2-  O486  1  0.16752052  0.56686524  0.30844779  1
  O2-  O487  1  0.16086426  0.57880962  0.64211716  1
  O2-  O488  1  0.17370404  0.58762177  0.97662442  1
  O2-  O489  1  0.17473893  0.85150717  0.31511008  1
  O2-  O490  1  0.08689793  0.80252297  0.64931775  1
  O2-  O491  1  0.16536304  0.83638367  0.97578198  1
  O2-  O492  1  0.42206629  0.09644250  0.31986756  1
  O2-  O493  1  0.43424256  0.12249414  0.63919841  1
  O2-  O494  1  0.43065811  0.10711158  0.99501699  1
  O2-  O495  1  0.42495084  0.33657214  0.31285381  1
  O2-  O496  1  0.40517701  0.32227729  0.62904821  1
  O2-  O497  1  0.41557726  0.32947699  0.98198145  1
  O2-  O498  1  0.45494422  0.53548478  0.28655261  1
  O2-  O499  1  0.42374898  0.57038275  0.62971700  1
  O2-  O500  1  0.40773586  0.56739756  0.99680671  1
  O2-  O501  1  0.41837534  0.84475359  0.31979253  1
  O2-  O502  1  0.43251961  0.81625484  0.63429815  1
  O2-  O503  1  0.41785039  0.83426757  0.98730390  1
  O2-  O504  1  0.66750617  0.07928968  0.31084091  1
  O2-  O505  1  0.67817279  0.08610830  0.64171533  1
  O2-  O506  1  0.67521684  0.08213024  0.98214126  1
  O2-  O507  1  0.67070393  0.33334676  0.31507784  1
  O2-  O508  1  0.66404099  0.34471091  0.64375957  1
  O2-  O509  1  0.67340275  0.33087038  0.98354995  1
  O2-  O510  1  0.67329378  0.59134742  0.31837284  1
  O2-  O511  1  0.67800558  0.60176745  0.63441396  1
  O2-  O512  1  0.68601423  0.58584935  1.03007438  1
  O2-  O513  1  0.65681939  0.83347835  0.30594448  1
  O2-  O514  1  0.67356504  0.84258825  0.64047651  1
  O2-  O515  1  0.70116824  0.78614508  0.93969254  1
  O2-  O516  1  0.89378301  0.02837883  0.32956061  1
  O2-  O517  1  0.91161500  0.07912739  0.65797332  1
  O2-  O518  1  0.90717263  0.07323920  0.98674829  1
  O2-  O519  1  0.91504159  0.32423888  0.30996314  1
  O2-  O520  1  0.92044770  0.31833681  0.64945474  1
  O2-  O521  1  0.91355220  0.33517015  0.99757861  1
  O2-  O522  1  0.91511123  0.60912158  0.29336461  1
  O2-  O523  1  0.90488435  0.57156816  0.64980833  1
  O2-  O524  1  0.92617700  0.60419052  0.97468890  1
  O2-  O525  1  0.92867406  0.86209679  0.30951380  1
  O2-  O526  1  0.92980656  0.83498565  0.62815620  1
  O2-  O527  1  0.91065369  0.80746529  0.98200211  1
  O2-  O528  1  0.07780209  0.16233282  0.01304728  1
  O2-  O529  1  0.06515699  0.15441089  0.36216650  1
  O2-  O530  1  0.07534067  0.16131991  0.68927807  1
  O2-  O531  1  0.09902753  0.42038654  0.01646134  1
  O2-  O532  1  0.07736957  0.40455799  0.36092844  1
  O2-  O533  1  0.08872565  0.41443742  0.68203985  1
  O2-  O534  1  0.09528346  0.67196430  0.01790816  1
  O2-  O535  1  0.05900406  0.68537050  0.35978995  1
  O2-  O536  1  0.07486933  0.65348806  0.68762677  1
  O2-  O537  1  0.08380879  0.91442245  0.02360247  1
  O2-  O538  1  0.09084720  0.93599431  0.34953102  1
  O2-  O539  1  0.05852627  0.93783107  0.69049728  1
  O2-  O540  1  0.32853817  0.17048650  0.03208674  1
  O2-  O541  1  0.34901899  0.18614758  0.37083351  1
  O2-  O542  1  0.32975179  0.17795058  0.67218613  1
  O2-  O543  1  0.33035546  0.40518542  0.02190811  1
  O2-  O544  1  0.32519780  0.39978545  0.34887557  1
  O2-  O545  1  0.33086926  0.40467551  0.68023248  1
  O2-  O546  1  0.33751908  0.66922423  0.02802556  1
  O2-  O547  1  0.30651690  0.67641042  0.36870887  1
  O2-  O548  1  0.34256499  0.65109751  0.67252863  1
  O2-  O549  1  0.33682362  0.92830071  -0.02560303  1
  O2-  O550  1  0.33798314  0.92828395  0.36013871  1
  O2-  O551  1  0.35576259  0.82789757  0.73703961  1
  O2-  O552  1  0.59551208  0.16512488  0.02585800  1
  O2-  O553  1  0.58852025  0.16553966  0.35493817  1
  O2-  O554  1  0.60145803  0.17177981  0.68755260  1
  O2-  O555  1  0.58681323  0.40823310  0.02476190  1
  O2-  O556  1  0.58961858  0.42294994  0.35061109  1
  O2-  O557  1  0.57722038  0.40507640  0.70450763  1
  O2-  O558  1  0.58470807  0.65354373  0.01731531  1
  O2-  O559  1  0.59647955  0.68164067  0.34647852  1
  O2-  O560  1  0.58662439  0.67985588  0.67523219  1
  O2-  O561  1  0.58727926  0.91599063  0.02469098  1
  O2-  O562  1  0.58400746  0.91317105  0.34658719  1
  O2-  O563  1  0.58731988  0.91921670  0.68411530  1
  O2-  O564  1  0.82213978  0.14151270  0.03114736  1
  O2-  O565  1  0.83481064  0.16623012  0.35037595  1
  O2-  O566  1  0.83789740  0.15794510  0.68210560  1
  O2-  O567  1  0.83531194  0.43816562  0.02278160  1
  O2-  O568  1  0.84013703  0.40203450  0.35967018  1
  O2-  O569  1  0.84849190  0.41098491  0.70337312  1
  O2-  O570  1  0.86871444  0.71994627  0.00756778  1
  O2-  O571  1  0.84802587  0.69699985  0.34569574  1
  O2-  O572  1  0.84878033  0.67642378  0.68620847  1
  O2-  O573  1  0.83541138  0.90320670  0.01764943  1
  O2-  O574  1  0.84721957  0.93791992  0.34852439  1
  O2-  O575  1  0.81402961  0.91867409  0.70143883  1
