# generated using pymatgen
data_H2O
_symmetry_space_group_name_H-M   'P 1'
_cell_length_a   17.98148631
_cell_length_b   17.99162320
_cell_length_c   21.99332854
_cell_angle_alpha   90.00722778
_cell_angle_beta   90.04143876
_cell_angle_gamma   119.99518643
_symmetry_Int_Tables_number   1
_chemical_formula_structural   H2O
_chemical_formula_sum   'H384 O192'
_cell_volume   6162.23715352
_cell_formula_units_Z   192
loop_
 _symmetry_equiv_pos_site_id
 _symmetry_equiv_pos_as_xyz
  1  'x, y, z'
loop_
 _atom_type_symbol
 _atom_type_oxidation_number
  H+  1.0
  O2-  -2.0
loop_
 _atom_site_type_symbol
 _atom_site_label
 _atom_site_symmetry_multiplicity
 _atom_site_fract_x
 _atom_site_fract_y
 _atom_site_fract_z
 _atom_site_occupancy
  H+  H0  1  0.73432748  0.61321509  0.16503199  1
  H+  H1  1  0.85476030  0.37501145  0.00471708  1
  H+  H2  1  0.35125462  0.34666350  0.52976034  1
  H+  H3  1  0.76269664  0.88131016  0.67987303  1
  H+  H4  1  0.57971334  0.66294497  0.26386226  1
  H+  H5  1  0.47581429  0.11788918  0.66548223  1
  H+  H6  1  0.48005364  0.12358545  0.31219482  1
  H+  H7  1  0.20271839  0.34600777  0.83902643  1
  H+  H8  1  0.74679979  0.37913371  0.82681500  1
  H+  H9  1  0.89736468  0.37633076  0.32589411  1
  H+  H10  1  0.40277159  0.82423434  0.24921696  1
  H+  H11  1  0.13989749  0.60560433  0.66287827  1
  H+  H12  1  0.57853781  0.16778173  0.76192824  1
  H+  H13  1  0.60492536  0.23058195  0.00423251  1
  H+  H14  1  0.13361676  0.34898747  0.33077315  1
  H+  H15  1  0.00531074  0.65094881  0.17115273  1
  H+  H16  1  0.86385502  0.02186169  0.51302642  1
  H+  H17  1  0.88774514  0.86428794  0.83702221  1
  H+  H18  1  0.24263632  0.60492438  0.17451629  1
  H+  H19  1  0.88487101  0.34652360  0.17373969  1
  H+  H20  1  0.27285818  0.88754130  0.16161106  1
  H+  H21  1  0.10993325  0.89113759  0.15718798  1
  H+  H22  1  0.61244037  0.09436455  0.84442245  1
  H+  H23  1  0.37145445  0.27164173  0.65735574  1
  H+  H24  1  0.88281903  0.36495159  0.84788004  1
  H+  H25  1  0.67411363  0.32355034  0.59534467  1
  H+  H26  1  0.94820951  0.83796794  0.33388790  1
  H+  H27  1  0.12954768  0.78635960  0.17871952  1
  H+  H28  1  0.10715191  0.61594450  0.34212511  1
  H+  H29  1  0.85291642  0.13038596  0.67589920  1
  H+  H30  1  0.36921722  0.35160954  0.85614237  1
  H+  H31  1  0.27124544  0.88143309  1.00900245  1
  H+  H32  1  0.13056505  0.34773410  0.18211026  1
  H+  H33  1  0.38567951  0.78080295  1.00309053  1
  H+  H34  1  0.51074866  0.39324242  0.83199060  1
  H+  H35  1  0.60748424  0.13336657  0.67631315  1
  H+  H36  1  0.65650238  0.83528878  0.71943449  1
  H+  H37  1  0.88427474  0.76653696  -0.01070676  1
  H+  H38  1  0.11705461  0.01456731  0.65316555  1
  H+  H39  1  0.85810584  0.88125602  0.35106985  1
  H+  H40  1  0.64636615  0.60464121  0.31276238  1
  H+  H41  1  0.41149976  0.34370026  0.60708808  1
  H+  H42  1  0.63516986  0.03762710  1.00689160  1
  H+  H43  1  0.41590942  0.08460152  0.22479671  1
  H+  H44  1  0.23344273  0.89198494  0.48432056  1
  H+  H45  1  0.02167666  0.88466125  0.82334055  1
  H+  H46  1  0.13289420  0.52088530  1.00167304  1
  H+  H47  1  0.09364073  0.65475020  0.17667088  1
  H+  H48  1  0.22685222  0.12135124  0.32474296  1
  H+  H49  1  0.22052669  0.61332359  -0.00198243  1
  H+  H50  1  0.45907016  0.59006702  0.31492893  1
  H+  H51  1  0.62211836  0.92007476  0.32164524  1
  H+  H52  1  0.77218180  0.14344553  0.01003374  1
  H+  H53  1  0.64193711  0.05194558  0.49847427  1
  H+  H54  1  0.36483098  0.00894494  0.50671751  1
  H+  H55  1  0.70977153  0.77571605  0.37451303  1
  H+  H56  1  0.10621372  0.59408210  0.84721639  1
  H+  H57  1  0.86710003  0.38600321  0.67546468  1
  H+  H58  1  0.57881468  0.34695521  0.53794009  1
  H+  H59  1  0.60520272  0.58403389  0.51263257  1
  H+  H60  1  0.88431058  0.10381221  0.17048797  1
  H+  H61  1  0.59502261  0.21920517  0.82534012  1
  H+  H62  1  0.73023424  0.37581215  0.50137802  1
  H+  H63  1  0.64580748  1.03018582  0.16056820  1
  H+  H64  1  0.97782062  0.61386750  0.66869139  1
  H+  H65  1  0.10695461  0.88410561  0.66888778  1
  H+  H66  1  0.60427064  0.37385418  1.01728929  1
  H+  H67  1  0.63572858  0.86627777  0.84326245  1
  H+  H68  1  0.86879867  0.51643036  0.83603469  1
  H+  H69  1  0.87891655  0.54842457  0.19656718  1
  H+  H70  1  0.26297575  0.11402260  0.14819097  1
  H+  H71  1  0.37679192  0.24612491  0.00069705  1
  H+  H72  1  1.01236106  0.38088740  0.83514492  1
  H+  H73  1  0.60067934  0.47572435  0.68038505  1
  H+  H74  1  0.34791816  0.72010446  0.49931057  1
  H+  H75  1  0.84759881  0.88480022  0.50450256  1
  H+  H76  1  0.35338403  0.38950744  0.68268583  1
  H+  H77  1  0.89220670  0.52267054  0.66649858  1
  H+  H78  1  0.17398558  0.17900033  0.50894209  1
  H+  H79  1  0.39812238  0.37101953  0.34393810  1
  H+  H80  1  0.73355608  0.12137015  0.16184740  1
  H+  H81  1  0.34162224  0.48992662  0.48466220  1
  H+  H82  1  0.11935714  0.45926091  0.16652374  1
  H+  H83  1  0.71956785  0.85008857  0.52763698  1
  H+  H84  1  0.35239024  0.11221643  0.14756848  1
  H+  H85  1  0.37428128  0.84837048  0.18670227  1
  H+  H86  1  0.16808365  0.08215790  0.22733029  1
  H+  H87  1  0.77633203  0.39156775  0.33737936  1
  H+  H88  1  0.11283065  0.13306667  0.16127851  1
  H+  H89  1  0.45696107  0.25019602  0.50355852  1
  H+  H90  1  0.22440280  0.86706945  0.65729234  1
  H+  H91  1  0.87356169  1.01697972  0.66686841  1
  H+  H92  1  0.32633303  0.82220070  0.51414247  1
  H+  H93  1  0.85402953  0.88260914  0.67673983  1
  H+  H94  1  0.25666345  0.39902069  0.48470852  1
  H+  H95  1  0.76485192  0.13340700  0.67652133  1
  H+  H96  1  0.86903034  -0.02421245  0.16021229  1
  H+  H97  1  0.96367746  0.11690415  0.99994490  1
  H+  H98  1  0.59348487  0.95936872  0.82915393  1
  H+  H99  1  0.65316210  0.56552163  0.60207033  1
  H+  H100  1  0.37592483  0.18874856  0.40580001  1
  H+  H101  1  0.87943141  0.28061111  0.33227267  1
  H+  H102  1  0.25602439  0.97750999  0.44963072  1
  H+  H103  1  0.78922687  0.62801660  0.47996189  1
  H+  H104  1  0.39010866  0.03807809  0.31966495  1
  H+  H105  1  1.01961970  0.37954964  0.68131215  1
  H+  H106  1  0.91102782  0.33128262  0.42785893  1
  H+  H107  1  0.72012206  0.36310493  -0.00421640  1
  H+  H108  1  0.52043665  0.12962504  0.15561262  1
  H+  H109  1  0.71873786  0.60637949  0.65825612  1
  H+  H110  1  0.27887373  0.47018220  0.81536937  1
  H+  H111  1  0.61530061  0.22635965  0.67093095  1
  H+  H112  1  0.12220734  0.13160983  0.82004683  1
  H+  H113  1  0.36219285  0.64271719  0.68101748  1
  H+  H114  1  0.40502205  0.27783249  0.34768342  1
  H+  H115  1  0.90643172  0.82081651  0.23422604  1
  H+  H116  1  0.13038621  0.35566080  0.51487116  1
  H+  H117  1  0.71536905  0.34445875  0.17604908  1
  H+  H118  1  0.98680403  0.61689155  0.33241487  1
  H+  H119  1  0.46678325  0.07161685  0.51011707  1
  H+  H120  1  0.14708766  0.58493519  0.16662661  1
  H+  H121  1  0.85792937  0.63242777  0.67401495  1
  H+  H122  1  0.38088561  0.77458632  0.66309770  1
  H+  H123  1  0.22584221  0.36265338  0.99017755  1
  H+  H124  1  0.05185492  0.06316935  0.40239610  1
  H+  H125  1  0.82239572  0.12964960  0.76927180  1
  H+  H126  1  0.33440309  0.91212751  0.10423995  1
  H+  H127  1  0.35404230  0.45980104  0.33127656  1
  H+  H128  1  0.37207736  0.44917434  0.01861360  1
  H+  H129  1  0.61496338  0.71636995  0.15087499  1
  H+  H130  1  0.34095404  0.31278542  0.50595678  1
  H+  H131  1  -0.02607019  0.10553289  0.17249689  1
  H+  H132  1  0.72976335  0.35558752  0.65573477  1
  H+  H133  1  0.49937823  0.38200044  0.34935281  1
  H+  H134  1  0.63121343  0.89810291  0.14363520  1
  H+  H135  1  0.35966710  0.65068905  0.00857702  1
  H+  H136  1  0.88160605  0.02410460  0.99690175  1
  H+  H137  1  0.50573847  0.35952910  0.02362608  1
  H+  H138  1  0.36221269  0.54401230  0.96936765  1
  H+  H139  1  0.20226268  0.10306585  0.63838308  1
  H+  H140  1  0.64491031  0.28382375  0.49589952  1
  H+  H141  1  0.94734404  0.84200088  0.51424062  1
  H+  H142  1  0.62493683  0.84552058  1.00600072  1
  H+  H143  1  1.02223812  0.37767164  0.48329015  1
  H+  H144  1  1.00478497  0.61413989  0.83403967  1
  H+  H145  1  0.62214703  0.73913648  0.82408540  1
  H+  H146  1  0.02510731  0.37039717  0.33855689  1
  H+  H147  1  0.35914813  -0.02734417  1.00769405  1
  H+  H148  1  0.67201502  0.82421861  0.09029309  1
  H+  H149  1  0.63910533  0.62552938  0.83619988  1
  H+  H150  1  0.61385118  0.13601315  0.15176714  1
  H+  H151  1  0.62225385  0.39373116  0.35324587  1
  H+  H152  1  0.60213575  0.93262782  -0.03592796  1
  H+  H153  1  0.96600114  0.60069493  0.99535899  1
  H+  H154  1  0.63213294  0.48529920  0.34114916  1
  H+  H155  1  0.35585836  0.13210589  0.66153054  1
  H+  H156  1  0.51633598  0.62402280  1.00605673  1
  H+  H157  1  0.62433724  0.26001074  0.17543037  1
  H+  H158  1  0.86175620  0.72519763  0.82582821  1
  H+  H159  1  0.62834043  0.13235227  0.50937090  1
  H+  H160  1  0.35580367  0.70605988  0.33452427  1
  H+  H161  1  0.32093526  0.13752693  0.05911391  1
  H+  H162  1  -0.03846649  0.10640689  0.66689391  1
  H+  H163  1  0.96825374  0.85757151  0.66578702  1
  H+  H164  1  0.16120352  0.32661876  0.61361927  1
  H+  H165  1  0.13372149  0.84859856  0.99611649  1
  H+  H166  1  0.62865910  1.02074816  0.66025555  1
  H+  H167  1  0.18875306  0.71512917  0.72648874  1
  H+  H168  1  0.13975044  0.51293828  0.50442401  1
  H+  H169  1  0.17000596  0.86473334  0.22877024  1
  H+  H170  1  0.89126898  0.53364612  0.32774238  1
  H+  H171  1  0.36072563  0.11926287  0.99711739  1
  H+  H172  1  0.10230519  0.62645318  0.01241466  1
  H+  H173  1  0.26377896  0.38720861  0.68219301  1
  H+  H174  1  0.67493485  0.09827672  0.24686753  1
  H+  H175  1  0.76577685  0.14879947  0.50493756  1
  H+  H176  1  0.50016856  0.82345232  0.52439853  1
  H+  H177  1  0.61923204  0.13034964  0.32035882  1
  H+  H178  1  0.79759192  0.68575649  0.32459529  1
  H+  H179  1  0.11276045  0.34295894  0.84094314  1
  H+  H180  1  1.11233240  0.39095640  1.00864513  1
  H+  H181  1  0.89950299  0.61686014  0.51236792  1
  H+  H182  1  0.76097795  0.15559358  0.34020787  1
  H+  H183  1  0.84999301  0.91800634  0.09913454  1
  H+  H184  1  0.35621334  0.72345103  0.17258454  1
  H+  H185  1  0.38235631  0.15703395  0.33894057  1
  H+  H186  1  0.33730058  0.68468863  0.73695747  1
  H+  H187  1  0.68636564  0.96799964  0.45761556  1
  H+  H188  1  0.86566978  0.64862118  0.16600705  1
  H+  H189  1  0.40653505  0.14846486  0.49814771  1
  H+  H190  1  0.10552834  0.82440713  0.50600327  1
  H+  H191  1  0.77226007  0.93138508  0.32425990  1
  H+  H192  1  0.10847370  0.22201521  0.67779843  1
  H+  H193  1  0.38797370  0.01470729  0.17069973  1
  H+  H194  1  0.27160734  0.87761947  0.82731361  1
  H+  H195  1  0.88686545  0.86301705  0.17581390  1
  H+  H196  1  0.23552700  0.09097717  -0.01511152  1
  H+  H197  1  0.02431429  0.37539908  0.16619699  1
  H+  H198  1  0.85328605  0.71901031  0.50911057  1
  H+  H199  1  0.22166251  0.59170731  0.33143427  1
  H+  H200  1  1.00306439  1.11175416  0.32348360  1
  H+  H201  1  0.12797891  0.35489255  0.67199471  1
  H+  H202  1  0.53485720  0.86697292  0.51421455  1
  H+  H203  1  0.85425282  0.44413492  0.15066755  1
  H+  H204  1  0.76936001  0.63840240  0.82656554  1
  H+  H205  1  0.63749444  0.26877162  0.33323002  1
  H+  H206  1  0.23481059  0.11215567  0.83179945  1
  H+  H207  1  0.86796095  0.48524213  0.49318186  1
  H+  H208  1  0.61396422  0.72126918  0.52505977  1
  H+  H209  1  0.64127826  0.49655095  0.44638720  1
  H+  H210  1  0.11473474  0.95364812  0.00127609  1
  H+  H211  1  0.38303608  0.64269090  0.50041219  1
  H+  H212  1  0.38057042  0.00581033  0.83554130  1
  H+  H213  1  0.12199150  0.62553487  0.49643036  1
  H+  H214  1  0.41430955  0.82858850  0.35980498  1
  H+  H215  1  0.13652125  0.76254853  0.99287382  1
  H+  H216  1  0.63945681  0.60179566  0.16978746  1
  H+  H217  1  0.35918541  0.88805148  0.67039001  1
  H+  H218  1  0.87370396  1.03593247  0.81605931  1
  H+  H219  1  0.54441360  0.08202912  0.36667978  1
  H+  H220  1  0.36603698  0.63891886  0.16070964  1
  H+  H221  1  0.60522661  0.88305845  0.67038965  1
  H+  H222  1  0.35771760  0.61857530  0.33771416  1
  H+  H223  1  0.85753004  0.13473222  0.00699695  1
  H+  H224  1  0.13827064  0.75792897  0.50758914  1
  H+  H225  1  0.23100016  0.35248501  0.32921902  1
  H+  H226  1  0.38175718  0.27006149  0.85070536  1
  H+  H227  1  0.46974205  0.09662198  0.83410300  1
  H+  H228  1  0.86137735  0.39377149  0.48078267  1
  H+  H229  1  0.22602092  0.60470657  0.66474137  1
  H+  H230  1  0.37194305  0.12864069  0.83208758  1
  H+  H231  1  0.86788135  0.88261438  0.00220877  1
  H+  H232  1  0.35292543  0.35458480  1.01410979  1
  H+  H233  1  0.41824144  0.42931515  0.19869432  1
  H+  H234  1  0.03833098  0.95956392  0.36691325  1
  H+  H235  1  0.97511370  0.85280259  0.99004144  1
  H+  H236  1  0.88391691  0.26977969  0.99875628  1
  H+  H237  1  0.11611351  0.50161761  0.84894184  1
  H+  H238  1  0.86069480  0.73298198  0.15789090  1
  H+  H239  1  0.14287438  0.86561191  0.83842183  1
  H+  H240  1  0.13627374  0.74135965  0.68434855  1
  H+  H241  1  0.62796716  0.53195703  0.83599963  1
  H+  H242  1  0.36052573  -0.02208707  0.67528833  1
  H+  H243  1  0.38098160  0.52808561  0.66919616  1
  H+  H244  1  0.62831950  0.47667267  0.15872025  1
  H+  H245  1  0.47155618  0.60479672  0.17203551  1
  H+  H246  1  0.10477738  0.21401690  0.82334081  1
  H+  H247  1  0.87083279  0.22077819  0.16255387  1
  H+  H248  1  0.60647553  0.62237415  1.00502268  1
  H+  H249  1  0.24281535  0.92443444  0.31312286  1
  H+  H250  1  0.11150385  0.97337898  0.82038813  1
  H+  H251  1  -0.02267328  0.76707208  0.46356920  1
  H+  H252  1  0.64170436  0.03712856  0.30705045  1
  H+  H253  1  0.39659529  0.26271334  0.20612232  1
  H+  H254  1  0.50179331  0.42575587  0.20206131  1
  H+  H255  1  0.08007887  0.65647012  0.78263612  1
  H+  H256  1  0.77821151  0.87974604  0.01039267  1
  H+  H257  1  0.13262550  0.25906381  0.18211415  1
  H+  H258  1  0.01748534  0.88451482  0.16041799  1
  H+  H259  1  0.60979000  0.73233069  0.67773360  1
  H+  H260  1  0.37855444  0.90762848  0.33296322  1
  H+  H261  1  0.26535706  0.37841651  0.16887657  1
  H+  H262  1  0.87873421  0.26112093  0.67056038  1
  H+  H263  1  0.47227269  0.61395612  0.52195040  1
  H+  H264  1  0.85704788  0.62946738  0.00647991  1
  H+  H265  1  0.97180036  0.36162191  1.00141735  1
  H+  H266  1  0.46959655  0.86272121  0.65388886  1
  H+  H267  1  0.50867251  0.39071019  0.68216162  1
  H+  H268  1  0.40307409  0.28259068  0.17514309  1
  H+  H269  1  0.38448323  0.68539886  0.82955928  1
  H+  H270  1  0.85390116  0.46446488  0.00753172  1
  H+  H271  1  0.42497534  0.61556684  0.92527780  1
  H+  H272  1  0.40113004  0.56056472  0.83613065  1
  H+  H273  1  0.67327354  0.77761948  0.38998732  1
  H+  H274  1  0.10329223  0.12763134  0.67102679  1
  H+  H275  1  0.47528708  0.10816507  0.98907513  1
  H+  H276  1  0.77975964  0.89566679  0.82994078  1
  H+  H277  1  0.12792359  1.02013037  0.16903572  1
  H+  H278  1  0.61586304  0.37913972  0.16563127  1
  H+  H279  1  0.63393047  0.12484246  -0.00078596  1
  H+  H280  1  0.87834041  0.76762356  0.66699485  1
  H+  H281  1  0.52191047  0.19372541  0.46263467  1
  H+  H282  1  0.72268132  0.61504425  -0.00829472  1
  H+  H283  1  0.58495958  0.17889315  0.42009011  1
  H+  H284  1  0.19889506  0.97885037  0.29341304  1
  H+  H285  1  0.47250067  0.61633937  0.66664635  1
  H+  H286  1  0.66722288  0.83647374  0.90262873  1
  H+  H287  1  0.10484494  0.24758102  0.01162703  1
  H+  H288  1  0.51301066  0.88170371  0.00055652  1
  H+  H289  1  0.72295732  0.89432400  0.26270255  1
  H+  H290  1  0.32728828  0.67093495  0.07125284  1
  H+  H291  1  0.82522068  0.40889683  0.73083637  1
  H+  H292  1  0.94984126  0.11476665  0.26952072  1
  H+  H293  1  0.07684356  0.90571096  0.06504801  1
  H+  H294  1  0.81692142  0.38694349  0.09327849  1
  H+  H295  1  0.10562256  0.16232140  0.00764813  1
  H+  H296  1  0.83270842  0.66630398  0.06456145  1
  H+  H297  1  0.41656145  0.07664550  0.60651886  1
  H+  H298  1  0.57307193  0.91467582  0.72589850  1
  H+  H299  1  0.92575814  0.58153608  0.56990330  1
  H+  H300  1  0.83920551  0.16728855  0.09971177  1
  H+  H301  1  0.38998865  0.87114269  1.00284203  1
  H+  H302  1  0.72195380  0.46632403  0.88032660  1
  H+  H303  1  0.57737523  0.40142124  0.09018730  1
  H+  H304  1  0.16858027  0.56366621  0.26963822  1
  H+  H305  1  0.62624462  0.75500801  0.00716466  1
  H+  H306  1  0.82523916  0.65938200  0.73281205  1
  H+  H307  1  0.12279479  0.06534052  0.32695420  1
  H+  H308  1  0.08633882  0.65257901  0.40121802  1
  H+  H309  1  0.17431385  0.07623136  0.89006248  1
  H+  H310  1  0.83207598  0.91740988  0.76760913  1
  H+  H311  1  0.07511220  0.41019472  0.77544568  1
  H+  H312  1  0.83533999  0.42967786  0.39580791  1
  H+  H313  1  0.89604345  0.08192248  0.57118344  1
  H+  H314  1  0.06940432  0.66059758  0.06836142  1
  H+  H315  1  0.08622965  0.90303785  0.34443380  1
  H+  H316  1  0.31932264  0.43096945  0.77169733  1
  H+  H317  1  0.15981363  0.33187693  0.93262109  1
  H+  H318  1  0.73719392  0.85825825  0.14453452  1
  H+  H319  1  0.07947854  0.91414324  0.72915626  1
  H+  H320  1  0.52288257  0.91039124  0.32821668  1
  H+  H321  1  0.09236365  0.40272970  0.43307074  1
  H+  H322  1  0.16463399  0.31844749  0.26675990  1
  H+  H323  1  0.34841898  0.66737389  0.43243582  1
  H+  H324  1  0.37595291  0.18761250  0.77768369  1
  H+  H325  1  0.56601937  0.42097418  0.76769263  1
  H+  H326  1  0.36865146  0.82955112  0.82343336  1
  H+  H327  1  0.11632893  0.45654971  0.33757475  1
  H+  H328  1  0.29251203  0.13883841  0.70880612  1
  H+  H329  1  0.16926484  0.57045462  0.56359983  1
  H+  H330  1  0.63537639  0.40802465  0.84513629  1
  H+  H331  1  0.32871423  0.90694633  0.76614004  1
  H+  H332  1  0.90451990  0.57041031  0.93659464  1
  H+  H333  1  0.41198287  0.31784128  0.94756657  1
  H+  H334  1  0.64310011  0.07058750  0.90553058  1
  H+  H335  1  0.52570339  0.31091152  0.59581376  1
  H+  H336  1  0.08256975  0.41151115  0.07181607  1
  H+  H337  1  0.91377797  0.32033189  0.61162133  1
  H+  H338  1  0.14899413  0.56858044  0.91062953  1
  H+  H339  1  0.51462330  0.86428380  0.81849874  1
  H+  H340  1  0.08287711  0.17294344  0.10647455  1
  H+  H341  1  0.15555191  0.09618304  0.54127226  1
  H+  H342  1  0.60607494  0.63833380  0.67205603  1
  H+  H343  1  0.03373868  0.62893009  0.49776566  1
  H+  H344  1  0.81026288  0.17623130  0.40569899  1
  H+  H345  1  0.87251448  0.60746742  0.83887007  1
  H+  H346  1  0.14017314  0.07624561  0.98592525  1
  H+  H347  1  0.32114586  0.41688476  0.39632218  1
  H+  H348  1  0.65836752  0.32261763  0.27278264  1
  H+  H349  1  0.92202728  0.97757541  0.36488707  1
  H+  H350  1  0.66162584  0.35458638  0.93846650  1
  H+  H351  1  0.41596439  0.07026074  0.92888115  1
  H+  H352  1  0.49385061  0.64449411  0.83464493  1
  H+  H353  1  0.03230291  0.85735014  0.43190052  1
  H+  H354  1  0.17182546  0.83456919  0.89747072  1
  H+  H355  1  0.92339919  0.60659658  0.25718352  1
  H+  H356  1  0.57685703  0.17106347  0.06446615  1
  H+  H357  1  0.89849325  0.82957042  0.57786076  1
  H+  H358  1  0.32064282  0.39853706  0.10774166  1
  H+  H359  1  0.15995496  0.82542892  0.60021561  1
  H+  H360  1  0.10974875  0.46888930  0.67947113  1
  H+  H361  1  0.60369006  0.70272084  0.32903830  1
  H+  H362  1  0.67008326  0.82251832  0.59191100  1
  H+  H363  1  0.65745360  0.08736690  0.60464221  1
  H+  H364  1  0.58654564  0.67615972  0.76408262  1
  H+  H365  1  0.58153326  0.67284448  0.46127275  1
  H+  H366  1  0.84890902  0.13434876  0.50255981  1
  H+  H367  1  0.91583697  0.33883817  0.90728899  1
  H+  H368  1  0.82637320  0.91765478  0.44361682  1
  H+  H369  1  0.36248352  0.80193490  0.57435400  1
  H+  H370  1  0.39697905  0.56537490  0.25952955  1
  H+  H371  1  0.40468520  0.58619967  0.57702341  1
  H+  H372  1  0.08502376  0.15931290  0.75089073  1
  H+  H373  1  0.68494229  0.57739444  0.25962113  1
  H+  H374  1  0.91915353  0.32932070  0.23680814  1
  H+  H375  1  0.91627287  0.83040253  0.89497868  1
  H+  H376  1  0.66571818  0.59069599  0.93162875  1
  H+  H377  1  0.32911030  0.93454806  0.38513704  1
  H+  H378  1  0.59641678  0.93112917  0.09176384  1
  H+  H379  1  0.57319362  0.64280841  0.10342621  1
  H+  H380  1  0.37803818  0.52034520  0.16816510  1
  H+  H381  1  0.87902190  0.26956613  0.48334169  1
  H+  H382  1  0.61866036  0.96571530  0.41002377  1
  H+  H383  1  0.76190900  0.30693033  0.79837834  1
  O2-  O384  1  0.08237027  0.16599102  0.15126495  1
  O2-  O385  1  0.12318173  0.24566606  0.52473993  1
  O2-  O386  1  0.08743945  0.15717322  0.80324580  1
  O2-  O387  1  0.08446690  0.39984045  0.15007683  1
  O2-  O388  1  0.08580240  0.40467750  0.47795400  1
  O2-  O389  1  0.07522710  0.40797986  0.82110109  1
  O2-  O390  1  0.06527010  0.67834771  0.15217738  1
  O2-  O391  1  0.09386071  0.65921422  0.48207487  1
  O2-  O392  1  0.06665183  0.63623297  0.82524820  1
  O2-  O393  1  0.07568473  0.91748502  0.14143383  1
  O2-  O394  1  0.02257845  0.82603398  0.47238766  1
  O2-  O395  1  0.08143892  0.91291381  0.80641233  1
  O2-  O396  1  0.31785315  0.13348223  0.12600628  1
  O2-  O397  1  0.43177229  0.20153963  0.47342781  1
  O2-  O398  1  0.35038309  0.16886118  0.81786794  1
  O2-  O399  1  0.32377818  0.41433847  0.15106137  1
  O2-  O400  1  0.29983546  0.44428028  0.45782204  1
  O2-  O401  1  0.31122593  0.43982850  0.81639417  1
  O2-  O402  1  0.33074993  0.66567247  0.14922563  1
  O2-  O403  1  0.37111371  0.68584405  0.47490005  1
  O2-  O404  1  0.35034663  0.71129049  0.81373567  1
  O2-  O405  1  0.33426229  0.91262090  0.14975668  1
  O2-  O406  1  0.28204798  0.94363900  0.46226453  1
  O2-  O407  1  0.33290007  0.90288979  0.81112226  1
  O2-  O408  1  0.58108012  0.16609853  0.14037596  1
  O2-  O409  1  0.57181370  0.18300398  0.46339867  1
  O2-  O410  1  0.57340592  0.16215990  0.80829880  1
  O2-  O411  1  0.59104514  0.41357347  0.14724419  1
  O2-  O412  1  0.67634295  0.54262418  0.47587367  1
  O2-  O413  1  0.56939214  0.42561004  0.81493403  1
  O2-  O414  1  0.57985810  0.65213593  0.14862805  1
  O2-  O415  1  0.57668450  0.66067374  0.50473143  1
  O2-  O416  1  0.58865127  0.67803114  0.81015173  1
  O2-  O417  1  0.60422592  0.93352596  0.13591420  1
  O2-  O418  1  0.63772750  0.97730810  0.45375120  1
  O2-  O419  1  0.57644846  0.90258766  0.80908965  1
  O2-  O420  1  0.83731731  0.16177899  0.14533710  1
  O2-  O421  1  0.82292520  0.16989624  0.48588814  1
  O2-  O422  1  0.81916219  0.10458713  0.81045404  1
  O2-  O423  1  0.81802004  0.38416311  0.13950525  1
  O2-  O424  1  0.83197831  0.42750253  0.47340212  1
  O2-  O425  1  0.79020879  0.36881060  0.80523419  1
  O2-  O426  1  0.83366163  0.67191672  0.14294310  1
  O2-  O427  1  0.85016537  0.66785717  0.48910787  1
  O2-  O428  1  0.83049882  0.66340107  0.81245310  1
  O2-  O429  1  0.84277201  0.91439672  0.14442753  1
  O2-  O430  1  0.81607083  0.91347351  0.48850136  1
  O2-  O431  1  0.83888980  0.92362583  0.81320639  1
  O2-  O432  1  0.16302683  0.08167170  0.18181873  1
  O2-  O433  1  0.18855847  0.13276633  0.50723179  1
  O2-  O434  1  0.17394866  0.08408907  0.84488554  1
  O2-  O435  1  0.16291712  0.32003594  0.19895288  1
  O2-  O436  1  0.16887918  0.33539206  0.53352680  1
  O2-  O437  1  0.14324147  0.31107443  0.85439228  1
  O2-  O438  1  0.17985539  0.56494787  0.18968677  1
  O2-  O439  1  0.17044364  0.57338125  0.51876898  1
  O2-  O440  1  0.14187416  0.56367026  0.86431953  1
  O2-  O441  1  0.16680608  0.84913165  0.18470978  1
  O2-  O442  1  0.15518996  0.81836310  0.52122535  1
  O2-  O443  1  0.17690352  0.83953144  0.85258991  1
  O2-  O444  1  0.41862823  0.07822662  0.17989780  1
  O2-  O445  1  0.41260362  0.05713788  0.53019182  1
  O2-  O446  1  0.40991494  0.06735146  0.85056060  1
  O2-  O447  1  0.47176820  0.45157141  0.22215694  1
  O2-  O448  1  0.52036094  0.32738027  0.55446669  1
  O2-  O449  1  0.40644053  0.32899037  0.86826126  1
  O2-  O450  1  0.41030861  0.58045786  0.18458843  1
  O2-  O451  1  0.40932200  0.58912946  0.53116581  1
  O2-  O452  1  0.43262146  0.62045830  0.85044028  1
  O2-  O453  1  0.39125109  0.80888156  0.20518699  1
  O2-  O454  1  0.32652991  0.77586514  0.53680125  1
  O2-  O455  1  0.40352450  0.80102576  0.83303232  1
  O2-  O456  1  0.67127558  0.09236836  0.17382078  1
  O2-  O457  1  0.65652000  0.10219295  0.52629078  1
  O2-  O458  1  0.62257442  0.05093493  0.86372767  1
  O2-  O459  1  0.65650118  0.32027201  0.19294233  1
  O2-  O460  1  0.67113231  0.33895687  0.51831046  1
  O2-  O461  1  0.68545649  0.40671082  0.86756932  1
  O2-  O462  1  0.67438105  0.57488477  0.18146216  1
  O2-  O463  1  0.61469122  0.53484596  0.52280830  1
  O2-  O464  1  0.66643072  0.59186072  0.85061946  1
  O2-  O465  1  0.67353131  0.82507199  0.13520669  1
  O2-  O466  1  0.66381679  0.81104475  0.54797157  1
  O2-  O467  1  0.66986845  0.83897913  0.85801202  1
  O2-  O468  1  0.91272339  0.07163347  0.18536048  1
  O2-  O469  1  0.89050993  0.08261972  0.52641228  1
  O2-  O470  1  0.89739521  0.09916971  0.81080278  1
  O2-  O471  1  0.92180643  0.32556349  0.19130755  1
  O2-  O472  1  0.91335423  0.33363742  0.47231723  1
  O2-  O473  1  0.92082831  0.34416295  0.86204890  1
  O2-  O474  1  0.91689445  0.60851487  0.20624420  1
  O2-  O475  1  0.92778510  0.58287903  0.52483916  1
  O2-  O476  1  0.89844848  0.57257159  0.85561194  1
  O2-  O477  1  0.91469396  0.82906458  0.18957821  1
  O2-  O478  1  0.89056545  0.82574030  0.53254513  1
  O2-  O479  1  0.91632721  0.83094813  0.84938387  1
  O2-  O480  1  0.17705888  0.07546251  0.30370713  1
  O2-  O481  1  0.13915730  0.07433104  0.63728378  1
  O2-  O482  1  0.17465076  0.05577296  0.96584363  1
  O2-  O483  1  0.16847010  0.32154801  0.31422033  1
  O2-  O484  1  0.15981782  0.32486966  0.65903220  1
  O2-  O485  1  0.16522512  0.34137001  0.97761599  1
  O2-  O486  1  0.16259266  0.55831569  0.31462623  1
  O2-  O487  1  0.16560379  0.57103679  0.64945306  1
  O2-  O488  1  0.15945061  0.57972625  0.98296229  1
  O2-  O489  1  0.18873363  0.91963024  0.29684367  1
  O2-  O490  1  0.16230257  0.83103448  0.64563777  1
  O2-  O491  1  0.16835227  0.82353248  0.97979104  1
  O2-  O492  1  0.41800759  0.09930629  0.30300171  1
  O2-  O493  1  0.41431000  0.08591143  0.65104655  1
  O2-  O494  1  0.41464300  0.07368896  0.97422473  1
  O2-  O495  1  0.43624442  0.34497152  0.33639285  1
  O2-  O496  1  0.40169936  0.33501460  0.65094854  1
  O2-  O497  1  0.40895412  0.31085124  0.99262995  1
  O2-  O498  1  0.39680896  0.56239152  0.30552079  1
  O2-  O499  1  0.41023096  0.58793506  0.65331859  1
  O2-  O500  1  0.41261222  0.60126185  0.97003908  1
  O2-  O501  1  0.42749863  0.86299544  0.32301153  1
  O2-  O502  1  0.40664405  0.83250863  0.64357578  1
  O2-  O503  1  0.42137619  0.84109437  0.98942853  1
  O2-  O504  1  0.67417885  0.09951247  0.29290211  1
  O2-  O505  1  0.65936615  0.08363525  0.64983326  1
  O2-  O506  1  0.66597762  0.09442005  0.98740631  1
  O2-  O507  1  0.66296185  0.32765898  0.31813387  1
  O2-  O508  1  0.67072027  0.31831064  0.64051566  1
  O2-  O509  1  0.65863071  0.33851242  0.98213843  1
  O2-  O510  1  0.68705297  0.58394379  0.30496807  1
  O2-  O511  1  0.65688955  0.57662308  0.64643247  1
  O2-  O512  1  0.66250064  0.58608263  0.97662232  1
  O2-  O513  1  0.71881132  0.91738274  0.30169400  1
  O2-  O514  1  0.65824106  0.82902219  0.67544385  1
  O2-  O515  1  0.66204343  0.81902172  1.00162041  1
  O2-  O516  1  0.98380427  0.14878950  0.30444185  1
  O2-  O517  1  0.90173127  0.07830767  0.65234057  1
  O2-  O518  1  0.90459710  0.08456451  0.98427394  1
  O2-  O519  1  0.92266966  0.33968855  0.31514495  1
  O2-  O520  1  0.91285217  0.32352161  0.65586153  1
  O2-  O521  1  0.91223677  0.33185065  0.98491511  1
  O2-  O522  1  0.92605811  0.59551661  0.31663731  1
  O2-  O523  1  0.91999088  0.58389207  0.65170182  1
  O2-  O524  1  0.90449410  0.56842950  0.98175364  1
  O2-  O525  1  0.88736802  0.80666633  0.31441405  1
  O2-  O526  1  0.90641878  0.82882375  0.65355889  1
  O2-  O527  1  0.91536698  0.82693139  0.97355921  1
  O2-  O528  1  0.07562452  0.18734637  0.02829956  1
  O2-  O529  1  0.03531702  0.03410193  0.36325611  1
  O2-  O530  1  0.07841767  0.16064866  0.69323866  1
  O2-  O531  1  0.08082775  0.41810326  0.02666184  1
  O2-  O532  1  0.08642078  0.39525835  0.35224433  1
  O2-  O533  1  0.07958773  0.40961542  0.69745505  1
  O2-  O534  1  0.06940528  0.65577285  0.02349485  1
  O2-  O535  1  0.08195708  0.65070196  0.35607401  1
  O2-  O536  1  0.13121187  0.69150826  0.70919578  1
  O2-  O537  1  0.07739083  0.89660076  0.01991777  1
  O2-  O538  1  0.03599843  0.89670660  0.36673314  1
  O2-  O539  1  0.07632702  0.91414617  0.68351678  1
  O2-  O540  1  0.32513324  0.14498395  0.01177540  1
  O2-  O541  1  0.36011902  0.19023789  0.36241948  1
  O2-  O542  1  0.31990715  0.16026602  0.66952435  1
  O2-  O543  1  0.32559586  0.39049756  0.02497924  1
  O2-  O544  1  0.32801760  0.40255759  0.35213816  1
  O2-  O545  1  0.32427568  0.42066213  0.69805837  1
  O2-  O546  1  0.32245002  0.67157118  0.02575170  1
  O2-  O547  1  0.33091814  0.65127926  0.35653485  1
  O2-  O548  1  0.32945918  0.67235441  0.69237728  1
  O2-  O549  1  0.33066079  0.91432291  0.02631206  1
  O2-  O550  1  0.34354377  0.94050538  0.34160341  1
  O2-  O551  1  0.32683055  0.91598534  0.68650990  1
  O2-  O552  1  0.57615551  0.17003714  0.01858190  1
  O2-  O553  1  0.57426872  0.13788168  0.34637043  1
  O2-  O554  1  0.57927201  0.16687889  0.68991940  1
  O2-  O555  1  0.56711140  0.39389447  0.03853474  1
  O2-  O556  1  0.59911910  0.43136203  0.36574046  1
  O2-  O557  1  0.56724860  0.41777689  0.69943023  1
  O2-  O558  1  0.57364138  0.64906079  0.02507609  1
  O2-  O559  1  0.57293466  0.64823663  0.30708625  1
  O2-  O560  1  0.57499637  0.66643949  0.68880989  1
  O2-  O561  1  0.58088296  0.91202220  0.00501936  1
  O2-  O562  1  0.58973873  0.94697533  0.33767714  1
  O2-  O563  1  0.57329150  0.91514441  0.68057301  1
  O2-  O564  1  0.83326159  0.17118796  0.02373830  1
  O2-  O565  1  0.80970393  0.19889703  0.36481253  1
  O2-  O566  1  0.82509392  0.16301762  0.69248713  1
  O2-  O567  1  0.82102356  0.40257493  0.02028074  1
  O2-  O568  1  0.83728076  0.42600722  0.35029666  1
  O2-  O569  1  0.83863436  0.41957130  0.68685974  1
  O2-  O570  1  0.83056229  0.66419405  0.01910307  1
  O2-  O571  1  0.85000523  0.72510053  0.34789663  1
  O2-  O572  1  0.82450414  0.65987977  0.68737925  1
  O2-  O573  1  0.83995046  0.91328326  0.02106789  1
  O2-  O574  1  0.85896270  0.93320725  0.36695616  1
  O2-  O575  1  0.82622078  0.91527956  0.69159872  1
