# generated using pymatgen
data_H2O
_symmetry_space_group_name_H-M   'P 1'
_cell_length_a   18.00726615
_cell_length_b   18.01141334
_cell_length_c   22.01706203
_cell_angle_alpha   89.98972414
_cell_angle_beta   90.00046538
_cell_angle_gamma   120.03587358
_symmetry_Int_Tables_number   1
_chemical_formula_structural   H2O
_chemical_formula_sum   'H384 O192'
_cell_volume   6181.99230753
_cell_formula_units_Z   192
loop_
 _symmetry_equiv_pos_site_id
 _symmetry_equiv_pos_as_xyz
  1  'x, y, z'
loop_
 _atom_type_symbol
 _atom_type_oxidation_number
  H+  1.0
  O2-  -2.0
loop_
 _atom_site_type_symbol
 _atom_site_label
 _atom_site_symmetry_multiplicity
 _atom_site_fract_x
 _atom_site_fract_y
 _atom_site_fract_z
 _atom_site_occupancy
  H+  H0  1  0.42276167  0.34081321  0.44498726  1
  H+  H1  1  0.84299579  0.13319300  0.01563488  1
  H+  H2  1  0.70491817  0.87109226  0.66618471  1
  H+  H3  1  1.03284186  0.90918853  1.00804732  1
  H+  H4  1  0.89870584  0.01696622  0.85717903  1
  H+  H5  1  0.43840569  0.58128637  0.91440112  1
  H+  H6  1  0.60691113  0.19841442  1.00892250  1
  H+  H7  1  0.33796315  0.93883490  0.77654716  1
  H+  H8  1  0.61476174  0.50751067  0.83248015  1
  H+  H9  1  0.13340279  0.82978013  0.61781104  1
  H+  H10  1  0.43821983  0.43899580  0.06108677  1
  H+  H11  1  0.64661803  0.10893686  0.50628728  1
  H+  H12  1  0.91984265  0.08210662  0.22554221  1
  H+  H13  1  0.60270880  0.21246738  0.16354647  1
  H+  H14  1  0.59985636  0.55861988  0.51373915  1
  H+  H15  1  0.12158524  1.00362830  0.48362510  1
  H+  H16  1  0.99945618  0.64576972  0.15337054  1
  H+  H17  1  0.12150980  0.72918160  0.82245946  1
  H+  H18  1  0.63219522  0.46409072  0.49467724  1
  H+  H19  1  0.86030510  0.65268917  0.00632281  1
  H+  H20  1  0.87703554  0.39167061  0.50036954  1
  H+  H21  1  0.88630868  0.77757431  0.16813947  1
  H+  H22  1  0.36951925  0.13855416  0.32361351  1
  H+  H23  1  0.50042554  0.87679096  0.67952482  1
  H+  H24  1  0.86786042  0.64185495  0.33553520  1
  H+  H25  1  0.48034836  0.38810075  0.83540711  1
  H+  H26  1  0.86527586  0.97644059  0.15070671  1
  H+  H27  1  0.38164307  0.24633236  0.83652123  1
  H+  H28  1  0.63607383  0.86872666  0.99214586  1
  H+  H29  1  0.10153095  0.46623449  0.83394276  1
  H+  H30  1  0.86874109  0.47625516  0.65393266  1
  H+  H31  1  0.85560180  0.93011012  0.55605016  1
  H+  H32  1  0.67247606  0.85153874  0.89909973  1
  H+  H33  1  0.61437450  0.85729954  0.30200466  1
  H+  H34  1  0.13129477  0.84995611  0.84895427  1
  H+  H35  1  0.64359816  0.61368724  0.65561403  1
  H+  H36  1  0.10598845  0.62574803  0.66712485  1
  H+  H37  1  0.03519606  0.38868368  0.34920517  1
  H+  H38  1  0.92166010  0.06690170  0.63370696  1
  H+  H39  1  0.01368083  0.37282046  0.68111285  1
  H+  H40  1  0.23093983  0.86994113  -0.00253451  1
  H+  H41  1  0.67601663  0.03471379  0.03773136  1
  H+  H42  1  0.63421440  0.10126361  0.65460804  1
  H+  H43  1  0.01614916  0.14164836  0.83150081  1
  H+  H44  1  0.09085559  0.18263924  0.07818368  1
  H+  H45  1  0.48046117  0.11386957  0.66622775  1
  H+  H46  1  -0.02765511  0.82450261  0.84370013  1
  H+  H47  1  0.77808061  0.28437983  0.38538116  1
  H+  H48  1  0.28330584  0.63362791  0.16517837  1
  H+  H49  1  0.28407192  0.17955017  0.67203341  1
  H+  H50  1  0.64244831  0.35709993  0.67048081  1
  H+  H51  1  0.91656036  0.83582709  0.22750539  1
  H+  H52  1  0.90249147  0.79913468  0.99292723  1
  H+  H53  1  0.61784275  0.21604373  0.68167814  1
  H+  H54  1  0.49081242  0.37720922  1.00492312  1
  H+  H55  1  0.12536855  -0.02446870  0.64871878  1
  H+  H56  1  0.40757886  0.80718725  0.82792253  1
  H+  H57  1  0.38759575  0.03129695  0.65643336  1
  H+  H58  1  0.35132402  0.63475277  0.65141977  1
  H+  H59  1  0.59548328  0.10264305  0.01589412  1
  H+  H60  1  0.76759685  0.64408746  0.00773046  1
  H+  H61  1  0.32178283  0.70537552  0.75334665  1
  H+  H62  1  0.13740785  0.36696320  0.85420126  1
  H+  H63  1  0.60059472  0.16942702  0.44145236  1
  H+  H64  1  0.61470825  0.37599493  0.33473706  1
  H+  H65  1  0.49793098  0.89508768  0.83259898  1
  H+  H66  1  0.28572507  0.89646324  0.47290937  1
  H+  H67  1  0.26948355  0.88427225  0.64578350  1
  H+  H68  1  0.12494161  0.15489246  0.01946489  1
  H+  H69  1  0.78341347  0.38264423  0.50693210  1
  H+  H70  1  0.15486730  0.52733297  0.17712655  1
  H+  H71  1  0.38158443  0.86165337  0.66954236  1
  H+  H72  1  0.76439138  0.62720026  0.48265172  1
  H+  H73  1  0.72277075  0.10477033  0.17686097  1
  H+  H74  1  0.13603997  0.86249366  0.46974754  1
  H+  H75  1  0.73147261  0.35790450  0.66628241  1
  H+  H76  1  0.23467534  0.11910491  0.31038610  1
  H+  H77  1  0.61484194  0.53640106  0.17427667  1
  H+  H78  1  0.39351626  0.48494353  0.03087275  1
  H+  H79  1  0.36641326  0.13139546  1.03184008  1
  H+  H80  1  0.66461114  0.07056798  0.59399586  1
  H+  H81  1  0.02779487  0.89382655  0.16016466  1
  H+  H82  1  0.97104577  0.33128345  0.84400977  1
  H+  H83  1  0.38828786  0.38267195  0.83613739  1
  H+  H84  1  -0.00330355  0.82500095  0.69042930  1
  H+  H85  1  0.12147583  0.90660545  0.00745754  1
  H+  H86  1  0.38014547  0.14507022  0.69032968  1
  H+  H87  1  0.87749386  0.50992726  0.49757306  1
  H+  H88  1  0.48942020  0.10752507  0.51097697  1
  H+  H89  1  0.14875558  0.04212239  1.00941160  1
  H+  H90  1  0.37185501  0.38054335  0.19446864  1
  H+  H91  1  0.90314525  0.54024665  0.84331757  1
  H+  H92  1  0.74605077  0.36178805  0.14967803  1
  H+  H93  1  0.84835147  0.91913748  0.78742063  1
  H+  H94  1  0.36762482  0.84600003  0.16275592  1
  H+  H95  1  0.96600538  0.11858943  1.00774771  1
  H+  H96  1  0.11853911  0.13883803  0.31660851  1
  H+  H97  1  0.59952805  -0.02838484  0.66105143  1
  H+  H98  1  0.13099017  0.75671945  0.66186671  1
  H+  H99  1  1.02842155  0.38950762  0.16572759  1
  H+  H100  1  0.47656763  0.12523354  0.30042843  1
  H+  H101  1  0.84108182  0.94880050  0.68852131  1
  H+  H102  1  0.51632991  0.64671822  0.33725717  1
  H+  H103  1  0.64325984  0.52321913  0.66029556  1
  H+  H104  1  0.43771042  0.25664416  0.12802317  1
  H+  H105  1  0.01889409  0.87408738  0.46744849  1
  H+  H106  1  0.15475387  0.52214246  0.33463009  1
  H+  H107  1  0.67813437  0.35109613  1.02785195  1
  H+  H108  1  0.42724111  0.61023005  0.70987977  1
  H+  H109  1  0.75508809  0.09695361  0.67355944  1
  H+  H110  1  0.60266359  -0.03505653  0.17046276  1
  H+  H111  1  0.81623101  0.39126435  0.81254827  1
  H+  H112  1  0.37013564  -0.01314399  0.32620695  1
  H+  H113  1  0.82683973  0.65799052  0.42307481  1
  H+  H114  1  0.15713071  0.15398998  0.85452905  1
  H+  H115  1  0.22907035  0.36497456  0.32924687  1
  H+  H116  1  0.62404557  0.18150715  0.82853103  1
  H+  H117  1  0.10743718  0.12900744  0.46990651  1
  H+  H118  1  0.89832138  0.28175694  0.50302940  1
  H+  H119  1  0.41388326  0.54156814  0.18575376  1
  H+  H120  1  0.47821056  0.86686792  0.99209365  1
  H+  H121  1  0.62875561  0.63661733  0.84461142  1
  H+  H122  1  0.78293196  0.14155781  0.48996674  1
  H+  H123  1  0.52480176  0.11261487  0.83939661  1
  H+  H124  1  1.02610984  0.62667282  0.32548004  1
  H+  H125  1  0.40778099  0.07760728  0.24684602  1
  H+  H126  1  0.39436144  0.27687115  0.33817901  1
  H+  H127  1  0.88397758  0.76145795  0.49152314  1
  H+  H128  1  0.63230704  0.10285802  0.17709455  1
  H+  H129  1  0.87041358  0.88637082  0.50077940  1
  H+  H130  1  0.44097730  0.33601134  0.18518037  1
  H+  H131  1  0.12021418  0.98818049  0.31584524  1
  H+  H132  1  0.58955761  0.91487942  0.42361484  1
  H+  H133  1  0.28444265  0.64614739  0.34680003  1
  H+  H134  1  0.27470544  0.39715592  0.17602339  1
  H+  H135  1  0.37938631  0.77149934  0.66692054  1
  H+  H136  1  0.66784361  0.58676008  0.27005417  1
  H+  H137  1  0.52336094  0.65680122  0.82962606  1
  H+  H138  1  0.09036981  0.82854115  0.70141091  1
  H+  H139  1  0.55139578  0.37104036  0.48473354  1
  H+  H140  1  0.38828106  0.54204343  0.49084936  1
  H+  H141  1  0.73588777  0.11443341  0.32502017  1
  H+  H142  1  0.52925251  0.09795693  0.36689820  1
  H+  H143  1  0.09679532  0.73742177  0.16267235  1
  H+  H144  1  0.98663493  0.37271546  0.50891968  1
  H+  H145  1  0.34732977  0.42640864  0.12208523  1
  H+  H146  1  0.11787325  0.71147604  0.32651947  1
  H+  H147  1  0.37084920  0.34970228  0.98983481  1
  H+  H148  1  0.36399600  0.49540283  0.83870050  1
  H+  H149  1  0.66068550  0.83932820  0.59932738  1
  H+  H150  1  0.29453338  0.15947179  0.84486764  1
  H+  H151  1  0.34107839  0.91883007  0.59489926  1
  H+  H152  1  0.65738207  0.35636269  0.51526269  1
  H+  H153  1  0.48676081  0.36636921  0.33960681  1
  H+  H154  1  0.86235326  0.82400432  0.85004950  1
  H+  H155  1  0.97810886  0.86609476  0.31616019  1
  H+  H156  1  0.11751341  0.22737336  0.32484896  1
  H+  H157  1  0.86393506  0.61919878  0.16523979  1
  H+  H158  1  0.22009708  0.61860749  0.99884210  1
  H+  H159  1  0.85796825  0.14297093  0.67226349  1
  H+  H160  1  0.63587880  0.91897267  0.83152003  1
  H+  H161  1  0.41134713  0.34772600  0.25748741  1
  H+  H162  1  0.04903074  0.15429723  0.65230520  1
  H+  H163  1  0.14734730  0.60546268  0.32540029  1
  H+  H164  1  0.23434311  0.37865288  0.66504744  1
  H+  H165  1  0.37464352  0.90621523  0.82917090  1
  H+  H166  1  0.53307949  0.63617151  0.66527556  1
  H+  H167  1  0.99396934  0.12969579  0.48185717  1
  H+  H168  1  0.05501607  0.91971110  0.83550795  1
  H+  H169  1  0.61655014  0.42144010  0.84246425  1
  H+  H170  1  0.89083662  0.61024244  0.64340221  1
  H+  H171  1  0.61165620  0.66482944  0.47228106  1
  H+  H172  1  0.77397502  0.62809124  0.65834176  1
  H+  H173  1  0.84942157  0.73262508  0.82854506  1
  H+  H174  1  0.61673584  0.06352702  0.84036532  1
  H+  H175  1  0.13944303  0.36829377  0.17610643  1
  H+  H176  1  0.11494980  0.65398040  0.01383622  1
  H+  H177  1  0.27912161  0.14321870  1.03335712  1
  H+  H178  1  0.36356220  0.48186954  0.34571485  1
  H+  H179  1  0.71654143  0.63682388  0.85363443  1
  H+  H180  1  0.88921861  0.77648866  0.32308293  1
  H+  H181  1  0.27603019  0.40452170  0.84030848  1
  H+  H182  1  0.64967129  0.52108942  0.32420585  1
  H+  H183  1  0.24079048  0.87021000  0.32945400  1
  H+  H184  1  0.98735175  0.64620203  0.99300659  1
  H+  H185  1  0.15341598  0.06658523  0.85994304  1
  H+  H186  1  0.61717497  0.52141252  0.00445139  1
  H+  H187  1  0.07624268  0.40621693  0.77487376  1
  H+  H188  1  0.86991341  0.60261711  0.49326361  1
  H+  H189  1  0.97930726  0.11514856  0.31480271  1
  H+  H190  1  0.83896054  0.18268429  0.83130203  1
  H+  H191  1  0.53892113  0.39481235  0.68322508  1
  H+  H192  1  0.22268550  0.62162783  0.83652911  1
  H+  H193  1  0.22856921  0.86742708  0.84424052  1
  H+  H194  1  0.03090572  0.14013652  0.16290239  1
  H+  H195  1  0.37853285  -0.02058222  0.48862177  1
  H+  H196  1  0.13272341  0.38957344  0.51209827  1
  H+  H197  1  0.88471107  0.52447702  0.31350345  1
  H+  H198  1  0.19090020  0.17683859  0.64893331  1
  H+  H199  1  0.89089445  0.36211650  0.18169599  1
  H+  H200  1  0.57768728  0.86571245  0.18057521  1
  H+  H201  1  0.87536198  0.14977070  0.48471260  1
  H+  H202  1  0.12157854  0.89992697  0.32064367  1
  H+  H203  1  0.33806063  0.39356272  0.49410846  1
  H+  H204  1  0.31089340  0.66656001  0.60143398  1
  H+  H205  1  0.82475808  0.91172872  0.06371390  1
  H+  H206  1  0.48852099  0.61796821  0.00764504  1
  H+  H207  1  0.37635874  1.00496483  0.16821795  1
  H+  H208  1  0.36114987  0.66553580  0.79567663  1
  H+  H209  1  0.61262455  0.64703322  1.01679334  1
  H+  H210  1  0.90355079  0.27048204  0.32674409  1
  H+  H211  1  0.72386870  0.86677205  0.99109620  1
  H+  H212  1  0.62395382  0.97458590  0.33221533  1
  H+  H213  1  0.14389626  0.28252382  0.85518789  1
  H+  H214  1  0.63889278  0.78884616  0.50474668  1
  H+  H215  1  0.71289197  0.33427240  0.32711376  1
  H+  H216  1  0.40155988  0.78662890  0.32318469  1
  H+  H217  1  0.63082531  0.22516055  0.50321049  1
  H+  H218  1  0.22013148  0.37821985  0.50835033  1
  H+  H219  1  0.89569337  0.35262423  0.33337742  1
  H+  H220  1  0.61245970  0.88840284  0.48733918  1
  H+  H221  1  0.62203298  0.25328771  0.32336511  1
  H+  H222  1  0.13525768  0.36648954  0.00691085  1
  H+  H223  1  0.36682543  0.39351386  0.68964525  1
  H+  H224  1  0.88843496  0.35302408  0.65964664  1
  H+  H225  1  0.85675530  0.61760953  0.81772293  1
  H+  H226  1  0.90392803  0.04240073  0.49641546  1
  H+  H227  1  0.87561220  0.31333167  0.84802094  1
  H+  H228  1  0.14891668  0.28771443  0.65933558  1
  H+  H229  1  0.64485195  0.79933565  0.83667439  1
  H+  H230  1  0.02888866  0.64642271  0.82325311  1
  H+  H231  1  0.38714325  0.61746002  0.33877549  1
  H+  H232  1  0.37997611  0.64705697  0.16631807  1
  H+  H233  1  0.87166638  0.53375400  0.16181649  1
  H+  H234  1  0.10476057  0.98629473  0.67431258  1
  H+  H235  1  0.13496144  0.71860807  0.47087638  1
  H+  H236  1  0.39059894  0.03403571  0.85474895  1
  H+  H237  1  0.25035482  0.12897152  0.14806245  1
  H+  H238  1  0.81606301  0.37662638  0.41209514  1
  H+  H239  1  0.46347190  0.83670926  0.47136903  1
  H+  H240  1  0.91788747  0.43450360  0.80081399  1
  H+  H241  1  0.15617748  0.82245277  0.36749171  1
  H+  H242  1  0.40581851  0.12912442  0.85555825  1
  H+  H243  1  0.13455316  0.61771254  0.84191175  1
  H+  H244  1  0.86959501  0.13578849  0.33376590  1
  H+  H245  1  0.25929397  0.87206255  0.15683669  1
  H+  H246  1  0.62158572  0.12381785  0.34152753  1
  H+  H247  1  0.89152270  1.02622959  0.32180659  1
  H+  H248  1  0.51946344  0.65853690  0.48061139  1
  H+  H249  1  0.60186615  0.75552501  0.30862044  1
  H+  H250  1  0.86112208  0.22196648  0.16755456  1
  H+  H251  1  0.20300945  0.59774044  0.65315511  1
  H+  H252  1  0.81602364  0.42285508  -0.00845113  1
  H+  H253  1  0.46638772  0.09380226  0.16725243  1
  H+  H254  1  0.52912565  0.88981061  0.33296172  1
  H+  H255  1  0.11559570  0.51167614  0.66895301  1
  H+  H256  1  0.46887191  0.10434249  0.00958407  1
  H+  H257  1  0.75686388  0.64530093  0.15875602  1
  H+  H258  1  0.14139218  0.49826374  0.49295298  1
  H+  H259  1  0.85094157  0.97586449  0.00778810  1
  H+  H260  1  0.71297212  0.06862692  0.83692194  1
  H+  H261  1  0.39967962  0.62985408  0.88623749  1
  H+  H262  1  0.59541144  0.87523872  0.66295104  1
  H+  H263  1  0.90542404  0.84964623  0.64810796  1
  H+  H264  1  0.87270040  0.89389332  0.33722888  1
  H+  H265  1  0.64182423  0.01833778  0.49992110  1
  H+  H266  1  0.12237047  0.38614996  0.34912978  1
  H+  H267  1  0.12147881  0.74788998  0.01157004  1
  H+  H268  1  0.38092865  0.84642510  0.46753424  1
  H+  H269  1  0.41825110  0.58807776  0.27946580  1
  H+  H270  1  0.59738350  0.32833469  0.17175995  1
  H+  H271  1  0.61740946  0.72706416  0.66527905  1
  H+  H272  1  0.46398391  0.85575494  0.16788879  1
  H+  H273  1  0.36263551  -0.02757980  1.01134813  1
  H+  H274  1  -0.01809290  0.61298859  0.64373881  1
  H+  H275  1  0.12944492  0.26311110  1.01121614  1
  H+  H276  1  0.17030549  0.34165846  0.26946214  1
  H+  H277  1  0.34019757  0.22235628  0.51757348  1
  H+  H278  1  0.90201952  0.36985742  0.99361593  1
  H+  H279  1  0.73179550  0.87318090  0.51346851  1
  H+  H280  1  0.77619078  0.63683357  0.33439926  1
  H+  H281  1  0.18628068  0.09666370  0.24634167  1
  H+  H282  1  0.16052802  0.03994375  0.15840636  1
  H+  H283  1  0.67108864  0.31646222  0.79821836  1
  H+  H284  1  0.60171961  0.61439080  0.18921332  1
  H+  H285  1  0.11461142  0.47935434  0.01065478  1
  H+  H286  1  0.89789538  0.88330786  -0.00534105  1
  H+  H287  1  0.40152194  0.87502339  0.32292422  1
  H+  H288  1  0.69469324  0.31307156  0.86532706  1
  H+  H289  1  0.81685403  0.67105177  0.09854469  1
  H+  H290  1  0.07860249  0.66263351  0.72508003  1
  H+  H291  1  0.42352368  0.33528305  0.62722078  1
  H+  H292  1  0.38557093  0.52635237  0.67243955  1
  H+  H293  1  0.84143742  0.16837190  0.39391569  1
  H+  H294  1  0.92574255  0.60580169  0.89967095  1
  H+  H295  1  0.12779465  0.86616505  0.17374017  1
  H+  H296  1  0.05795764  0.22075028  0.78781010  1
  H+  H297  1  0.35030703  0.93350041  0.38910338  1
  H+  H298  1  0.35191612  0.17463357  0.75392256  1
  H+  H299  1  0.90618577  0.55432961  0.99442306  1
  H+  H300  1  0.03745584  0.84044815  0.76612717  1
  H+  H301  1  0.16899718  0.35589001  0.57559741  1
  H+  H302  1  0.40708171  0.33895830  0.92605261  1
  H+  H303  1  0.09301941  0.16150231  0.71729808  1
  H+  H304  1  0.11512172  0.04573093  0.54477218  1
  H+  H305  1  0.92128389  0.31860952  0.94206527  1
  H+  H306  1  0.42536492  0.08523273  0.56614948  1
  H+  H307  1  0.65009705  0.32239274  0.22901088  1
  H+  H308  1  0.37414556  0.74689478  0.16182476  1
  H+  H309  1  0.37695767  0.73156967  -0.04333354  1
  H+  H310  1  0.84371530  0.22038514  1.01642907  1
  H+  H311  1  0.39114726  0.59923091  0.99771059  1
  H+  H312  1  0.36435652  0.88407219  0.00287068  1
  H+  H313  1  0.64808483  0.58170126  0.94549421  1
  H+  H314  1  0.16131358  0.59193840  0.94070708  1
  H+  H315  1  0.67720210  0.32444611  0.57868718  1
  H+  H316  1  0.86440419  0.88864816  0.15196945  1
  H+  H317  1  0.91478589  0.09037528  0.94566268  1
  H+  H318  1  0.10100198  0.64501790  0.42372095  1
  H+  H319  1  0.43444263  0.85771207  0.92699296  1
  H+  H320  1  0.79874964  1.00420569  0.70609798  1
  H+  H321  1  0.02782918  0.38718649  0.01041030  1
  H+  H322  1  0.24936156  0.13086206  0.51714786  1
  H+  H323  1  0.35293981  0.70318835  0.39844272  1
  H+  H324  1  0.32050384  0.90075097  0.09745065  1
  H+  H325  1  0.66266581  0.56995837  0.56730203  1
  H+  H326  1  0.41158843  0.08745485  0.95113467  1
  H+  H327  1  0.19038740  0.58328200  0.23674012  1
  H+  H328  1  0.40629243  0.28382196  0.68797097  1
  H+  H329  1  0.33111475  0.42712685  0.74331531  1
  H+  H330  1  0.08465019  0.16355705  0.41042660  1
  H+  H331  1  0.60950917  0.73318988  0.00674748  1
  H+  H332  1  0.36696420  0.39362863  0.34997569  1
  H+  H333  1  0.09810259  0.42898599  0.43878117  1
  H+  H334  1  0.15459140  0.82951198  0.23245040  1
  H+  H335  1  0.38494358  0.62497711  0.50853548  1
  H+  H336  1  0.54787158  0.71314018  0.20676259  1
  H+  H337  1  0.57922699  0.67810803  0.76716701  1
  H+  H338  1  0.87796705  0.09192326  0.84815548  1
  H+  H339  1  0.67085416  0.08231682  0.26733310  1
  H+  H340  1  0.88639635  0.75278551  0.64834749  1
  H+  H341  1  0.91460771  0.58224630  0.55534768  1
  H+  H342  1  0.07347571  0.68182182  0.09500825  1
  H+  H343  1  0.07894199  0.91648447  0.40708500  1
  H+  H344  1  0.58409348  0.14359685  0.73433257  1
  H+  H345  1  0.89237405  0.11433122  0.16755373  1
  H+  H346  1  0.19006941  0.11474772  0.95768014  1
  H+  H347  1  0.27072704  0.18331537  0.59369439  1
  H+  H348  1  0.85077016  0.43462650  0.71934151  1
  H+  H349  1  0.57335304  0.91050665  0.07763946  1
  H+  H350  1  0.17023357  0.83755630  0.93898467  1
  H+  H351  1  0.95145931  0.12343812  0.57530983  1
  H+  H352  1  0.91056740  0.58555787  0.25637059  1
  H+  H353  1  0.83351484  0.65081109  0.71706067  1
  H+  H354  1  0.82392030  0.16477114  0.10693049  1
  H+  H355  1  0.31615880  0.42013883  0.43040843  1
  H+  H356  1  0.19636585  0.63841029  0.48772962  1
  H+  H357  1  0.78367916  0.31142042  0.11749509  1
  H+  H358  1  0.08676109  0.41901853  0.10579315  1
  H+  H359  1  0.14298999  0.28046549  0.17744455  1
  H+  H360  1  0.33255964  0.14843674  0.38646196  1
  H+  H361  1  0.92300581  0.32480985  0.60456757  1
  H+  H362  1  0.76162874  0.56954639  0.79258206  1
  H+  H363  1  0.63960516  0.33708089  0.96276827  1
  H+  H364  1  0.78290987  0.89061669  0.84064699  1
  H+  H365  1  0.58513354  0.70314905  0.38811976  1
  H+  H366  1  0.92639918  0.33522253  0.23928086  1
  H+  H367  1  0.84154254  0.42432158  0.06037684  1
  H+  H368  1  0.50865616  0.35262926  0.10591202  1
  H+  H369  1  0.08925688  0.92408666  0.10166104  1
  H+  H370  1  0.34112991  0.71911328  0.50266505  1
  H+  H371  1  0.10918058  0.38600169  0.68168212  1
  H+  H372  1  0.60363002  0.43384956  0.73787625  1
  H+  H373  1  0.16821360  0.82734172  0.52305516  1
  H+  H374  1  0.80919458  0.12315290  0.77094540  1
  H+  H375  1  0.29986175  0.66156016  0.91810251  1
  H+  H376  1  0.12494167  0.14604639  0.15852318  1
  H+  H377  1  0.93069088  0.81895030  0.54932345  1
  H+  H378  1  0.78942713  0.89844512  0.35046555  1
  H+  H379  1  0.16664418  0.33426412  0.94708546  1
  H+  H380  1  0.44354352  0.37690538  0.51213014  1
  H+  H381  1  0.57566442  0.37943980  0.02478091  1
  H+  H382  1  0.57794369  0.15110685  0.10540946  1
  H+  H383  1  0.60452275  0.41410893  0.39704885  1
  O2-  O384  1  0.09245173  0.17623085  0.14865966  1
  O2-  O385  1  0.08429778  0.16540687  0.45595472  1
  O2-  O386  1  0.07236152  0.18312069  0.81075147  1
  O2-  O387  1  0.08883091  0.41829436  0.15088469  1
  O2-  O388  1  0.09966737  0.43644784  0.48500085  1
  O2-  O389  1  0.07548663  0.40548921  0.82119253  1
  O2-  O390  1  0.06281350  0.67755692  0.14198453  1
  O2-  O391  1  0.11758485  0.65772286  0.46694086  1
  O2-  O392  1  0.08747412  0.66971952  0.80563925  1
  O2-  O393  1  0.08965140  0.92200067  0.14720688  1
  O2-  O394  1  0.07944274  0.90815910  0.45250163  1
  O2-  O395  1  0.03798144  0.85960709  0.82922902  1
  O2-  O396  1  0.34798608  0.17826488  0.11316931  1
  O2-  O397  1  0.30148565  0.17065012  0.54127234  1
  O2-  O398  1  0.35339705  0.18301865  0.82858973  1
  O2-  O399  1  0.33874648  0.42699447  0.16771250  1
  O2-  O400  1  0.31127908  0.42410563  0.47671621  1
  O2-  O401  1  0.33366204  0.43645494  0.82089178  1
  O2-  O402  1  0.34445100  0.66905575  0.14779486  1
  O2-  O403  1  0.30872784  0.66083015  0.52522913  1
  O2-  O404  1  0.32947816  0.69648098  0.79633829  1
  O2-  O405  1  0.31964543  0.89869788  0.14301465  1
  O2-  O406  1  0.34830142  0.92308554  0.46583501  1
  O2-  O407  1  0.33659268  0.93148361  0.82055357  1
  O2-  O408  1  0.57699018  0.15157214  0.15061593  1
  O2-  O409  1  0.59902002  0.16551620  0.48634005  1
  O2-  O410  1  0.57954217  0.12190530  0.81949152  1
  O2-  O411  1  0.49147067  0.31420690  0.14193613  1
  O2-  O412  1  0.61340233  0.40638116  0.47646411  1
  O2-  O413  1  0.59304449  0.44771339  0.81563853  1
  O2-  O414  1  0.52837318  0.64757182  0.18536693  1
  O2-  O415  1  0.58191665  0.69697064  0.46671347  1
  O2-  O416  1  0.58242441  0.68638313  0.81187425  1
  O2-  O417  1  0.56797001  0.90587350  0.15355568  1
  O2-  O418  1  0.58041841  0.91428475  0.46862419  1
  O2-  O419  1  0.60823181  0.95269967  0.81490768  1
  O2-  O420  1  0.82806387  0.16210405  0.15247950  1
  O2-  O421  1  0.84165504  0.17818203  0.47283527  1
  O2-  O422  1  0.80520803  0.12251383  0.81669989  1
  O2-  O423  1  0.79928034  0.37009146  0.12861188  1
  O2-  O424  1  0.84033195  0.41616374  0.48512654  1
  O2-  O425  1  0.86926351  0.44440249  0.80008770  1
  O2-  O426  1  0.81668658  0.66768449  0.14445730  1
  O2-  O427  1  0.82503784  0.65413966  0.46986678  1
  O2-  O428  1  0.81307845  0.62633351  0.79395079  1
  O2-  O429  1  0.83350021  0.91674829  0.13541842  1
  O2-  O430  1  0.84547652  0.92296533  0.51237848  1
  O2-  O431  1  0.84523923  0.91097188  0.83157624  1
  O2-  O432  1  0.19229258  0.10178090  0.16912047  1
  O2-  O433  1  0.14356387  0.06036308  0.50529955  1
  O2-  O434  1  0.18659747  0.12618582  0.87323576  1
  O2-  O435  1  0.17238164  0.34095964  0.19256353  1
  O2-  O436  1  0.16199013  0.35370448  0.52937096  1
  O2-  O437  1  0.17142002  0.34158704  0.87177371  1
  O2-  O438  1  0.19025265  0.58708773  0.19169341  1
  O2-  O439  1  0.22957192  0.60653526  0.49044479  1
  O2-  O440  1  0.16798266  0.59162896  0.85926238  1
  O2-  O441  1  0.15128653  0.82728338  0.18788538  1
  O2-  O442  1  0.17270419  0.83578646  0.47920862  1
  O2-  O443  1  0.16958226  0.82731434  0.85965988  1
  O2-  O444  1  0.40621192  0.06570849  0.18202866  1
  O2-  O445  1  0.42813359  0.07321619  0.52281837  1
  O2-  O446  1  0.42955174  0.09288498  0.87084439  1
  O2-  O447  1  0.39663612  0.34122332  0.21290170  1
  O2-  O448  1  0.43060056  0.32707455  0.48691571  1
  O2-  O449  1  0.41966523  0.35205665  0.84789214  1
  O2-  O450  1  0.43692979  0.59979386  0.20355460  1
  O2-  O451  1  0.42460281  0.60231744  0.50302901  1
  O2-  O452  1  0.42804080  0.59763030  0.87270633  1
  O2-  O453  1  0.40083108  0.81767014  0.17667837  1
  O2-  O454  1  0.39994919  0.80315221  0.46730704  1
  O2-  O455  1  0.43670940  0.86499788  0.84641027  1
  O2-  O456  1  0.66264649  0.07317360  0.19306464  1
  O2-  O457  1  0.67553702  0.07623033  0.51944901  1
  O2-  O458  1  0.64887035  0.03103439  0.85254858  1
  O2-  O459  1  0.64715480  0.32203386  0.18368071  1
  O2-  O460  1  0.68557183  0.32592663  0.53358166  1
  O2-  O461  1  0.70617614  0.30169743  0.82397325  1
  O2-  O462  1  0.64514399  0.59463079  0.19034543  1
  O2-  O463  1  0.65537724  0.56308750  0.52137603  1
  O2-  O464  1  0.65506428  0.60318591  0.86243078  1
  O2-  O465  1  0.56088851  0.78702076  0.22772793  1
  O2-  O466  1  0.67026846  0.84646802  0.52505742  1
  O2-  O467  1  0.67889006  0.85835261  0.85320500  1
  O2-  O468  1  0.92619826  0.08687881  0.18021953  1
  O2-  O469  1  0.93509015  0.10494470  0.50353392  1
  O2-  O470  1  0.92174781  0.07957297  0.86545819  1
  O2-  O471  1  0.92293433  0.33357995  0.19354342  1
  O2-  O472  1  0.92595383  0.34018677  0.52218045  1
  O2-  O473  1  0.91230980  0.29071328  0.86086466  1
  O2-  O474  1  0.90084644  0.59231303  0.17764434  1
  O2-  O475  1  0.90408809  0.57477707  0.50904165  1
  O2-  O476  1  0.92547386  0.60130534  0.85398257  1
  O2-  O477  1  0.92247656  0.83762553  0.18223252  1
  O2-  O478  1  0.92093134  0.82222499  0.50542716  1
  O2-  O479  1  0.88138018  0.78117771  0.85630088  1
  O2-  O480  1  0.17682667  0.09021708  0.29154013  1
  O2-  O481  1  0.25238348  0.19439678  0.63913307  1
  O2-  O482  1  0.18394221  0.10674655  1.00220149  1
  O2-  O483  1  0.16846754  0.33585999  0.31490240  1
  O2-  O484  1  0.17480479  0.34918750  0.64761054  1
  O2-  O485  1  0.16271911  0.33148344  0.99297392  1
  O2-  O486  1  0.18570418  0.58144387  0.31773150  1
  O2-  O487  1  0.13997614  0.56849183  0.64863670  1
  O2-  O488  1  0.15978454  0.59099479  0.98615041  1
  O2-  O489  1  0.17553563  0.83420038  0.32523626  1
  O2-  O490  1  0.15728799  0.82314624  0.65591385  1
  O2-  O491  1  0.16914304  0.84236729  0.98409208  1
  O2-  O492  1  0.41467550  0.08919819  0.29460601  1
  O2-  O493  1  0.42048754  0.09457447  0.65260648  1
  O2-  O494  1  0.40792349  0.08159432  0.99634382  1
  O2-  O495  1  0.42302198  0.34057223  0.33235101  1
  O2-  O496  1  0.43040084  0.34376737  0.67108771  1
  O2-  O497  1  0.40211159  0.32456171  0.96997310  1
  O2-  O498  1  0.41379851  0.58272619  0.32486055  1
  O2-  O499  1  0.41738104  0.59056393  0.66781762  1
  O2-  O500  1  0.42717465  0.57323233  0.99231905  1
  O2-  O501  1  0.43584476  0.84805742  0.31216234  1
  O2-  O502  1  0.40842826  0.82954161  0.68675683  1
  O2-  O503  1  0.42200542  0.83962757  0.97027077  1
  O2-  O504  1  0.67370176  0.08395768  0.31331311  1
  O2-  O505  1  0.65921259  0.06569929  0.64006870  1
  O2-  O506  1  0.61736732  0.01151066  1.02172323  1
  O2-  O507  1  0.65542947  0.31311269  0.30835386  1
  O2-  O508  1  0.66848940  0.32223995  0.65731946  1
  O2-  O509  1  0.62751020  0.31345468  1.00382341  1
  O2-  O510  1  0.68156139  0.58238540  0.31297151  1
  O2-  O511  1  0.67201966  0.58131726  0.64018677  1
  O2-  O512  1  0.65541658  0.58101002  0.98993529  1
  O2-  O513  1  0.62503473  0.81432668  0.27775376  1
  O2-  O514  1  0.64989347  0.83266159  0.64480153  1
  O2-  O515  1  0.66393493  0.83917441  0.97311525  1
  O2-  O516  1  0.91703597  0.08528807  0.30359750  1
  O2-  O517  1  0.95569436  0.12681927  0.62164644  1
  O2-  O518  1  0.90774945  0.09057805  0.99048062  1
  O2-  O519  1  0.93359441  0.33337732  0.31540243  1
  O2-  O520  1  0.91869909  0.32148985  0.64953520  1
  O2-  O521  1  0.92470110  0.33060012  0.98628024  1
  O2-  O522  1  0.91805841  0.58454680  0.30130685  1
  O2-  O523  1  0.92253890  0.58283921  0.62555113  1
  O2-  O524  1  0.92759135  0.61209963  0.97677837  1
  O2-  O525  1  0.91599875  0.83554418  0.30573824  1
  O2-  O526  1  0.93056968  0.81455711  0.63670475  1
  O2-  O527  1  0.93608447  0.86043791  0.98262201  1
  O2-  O528  1  0.09211435  0.18445964  0.03128149  1
  O2-  O529  1  0.08529791  0.16446735  0.33398860  1
  O2-  O530  1  0.10600959  0.17772270  0.67431921  1
  O2-  O531  1  0.08872817  0.41918583  0.02539992  1
  O2-  O532  1  0.09447417  0.41796369  0.36645756  1
  O2-  O533  1  0.07293092  0.40718282  0.70028789  1
  O2-  O534  1  0.08661181  0.68644225  0.02787828  1
  O2-  O535  1  0.08570403  0.65170842  0.34098138  1
  O2-  O536  1  0.07952446  0.66360512  0.67965789  1
  O2-  O537  1  0.09460891  0.93895544  0.02394374  1
  O2-  O538  1  0.08840110  0.92782184  0.33247168  1
  O2-  O539  1  0.03405638  0.81647244  0.72134793  1
  O2-  O540  1  0.34229088  0.16986275  0.04544292  1
  O2-  O541  1  0.33998255  0.16754844  0.34431495  1
  O2-  O542  1  0.35620843  0.18062332  0.70823113  1
  O2-  O543  1  0.38110463  0.43093163  0.05362566  1
  O2-  O544  1  0.33175018  0.42024466  0.36057613  1
  O2-  O545  1  0.33367364  0.42292420  0.69796914  1
  O2-  O546  1  0.34622159  0.66916870  -0.05503296  1
  O2-  O547  1  0.34724327  0.68093716  0.35705975  1
  O2-  O548  1  0.31914134  0.66607280  0.64658675  1
  O2-  O549  1  0.33136410  0.90979673  0.02107656  1
  O2-  O550  1  0.34230364  0.92789530  0.34385492  1
  O2-  O551  1  0.33281768  0.91678674  0.63896605  1
  O2-  O552  1  0.57281983  0.14089369  0.02686512  1
  O2-  O553  1  0.58537826  0.14837543  0.35948709  1
  O2-  O554  1  0.58593766  0.15276780  0.68993209  1
  O2-  O555  1  0.54366386  0.40957397  0.03224563  1
  O2-  O556  1  0.59079076  0.41047245  0.35299436  1
  O2-  O557  1  0.60162073  0.42547295  0.69311681  1
  O2-  O558  1  0.57968880  0.67600391  0.02660863  1
  O2-  O559  1  0.57886798  0.69055340  0.34380944  1
  O2-  O560  1  0.59299122  0.66697620  0.68060934  1
  O2-  O561  1  0.57733333  0.91769181  0.03139670  1
  O2-  O562  1  0.59251760  0.91319912  0.34489617  1
  O2-  O563  1  0.56857635  0.91023678  0.67873438  1
  O2-  O564  1  0.81117681  0.16096593  0.03176322  1
  O2-  O565  1  0.84126036  0.16893782  0.34845423  1
  O2-  O566  1  0.80703523  0.10436893  0.69630873  1
  O2-  O567  1  0.86546416  0.44404723  0.01857613  1
  O2-  O568  1  0.80021189  0.34386891  0.37274115  1
  O2-  O569  1  0.83913753  0.42018044  0.67575245  1
  O2-  O570  1  0.82744043  0.67874712  0.02301810  1
  O2-  O571  1  0.83727745  0.67028910  0.35209956  1
  O2-  O572  1  0.83605683  0.65687531  0.67186460  1
  O2-  O573  1  0.82308393  0.91385347  0.01721477  1
  O2-  O574  1  0.85126818  0.92997969  0.35645869  1
  O2-  O575  1  0.79262343  0.94586841  0.71042165  1
