# generated using pymatgen
data_H2O
_symmetry_space_group_name_H-M   'P 1'
_cell_length_a   17.90414883
_cell_length_b   17.93046093
_cell_length_c   21.94065335
_cell_angle_alpha   90.05919868
_cell_angle_beta   89.96908635
_cell_angle_gamma   119.97127377
_symmetry_Int_Tables_number   1
_chemical_formula_structural   H2O
_chemical_formula_sum   'H384 O192'
_cell_volume   6101.69828464
_cell_formula_units_Z   192
loop_
 _symmetry_equiv_pos_site_id
 _symmetry_equiv_pos_as_xyz
  1  'x, y, z'
loop_
 _atom_type_symbol
 _atom_type_oxidation_number
  H+  1.0
  O2-  -2.0
loop_
 _atom_site_type_symbol
 _atom_site_label
 _atom_site_symmetry_multiplicity
 _atom_site_fract_x
 _atom_site_fract_y
 _atom_site_fract_z
 _atom_site_occupancy
  H+  H0  1  0.39076745  0.27737016  0.17699163  1
  H+  H1  1  0.98476177  0.87593308  0.17863185  1
  H+  H2  1  0.72462618  0.86720750  0.33416791  1
  H+  H3  1  0.36809011  0.14633203  0.00603351  1
  H+  H4  1  0.88565019  0.77774786  0.33107173  1
  H+  H5  1  0.25285198  0.37650220  0.82669895  1
  H+  H6  1  0.63676207  1.02361285  0.17449935  1
  H+  H7  1  0.90181623  0.65101455  0.15254893  1
  H+  H8  1  0.90520054  0.06381156  0.59001491  1
  H+  H9  1  0.11429965  0.63958519  0.32988481  1
  H+  H10  1  0.05224601  0.40338794  0.76674060  1
  H+  H11  1  0.35003350  0.47091469  0.02933953  1
  H+  H12  1  0.13334648  0.76517294  0.66264039  1
  H+  H13  1  0.90010328  0.63274663  0.32651430  1
  H+  H14  1  0.88369066  0.76856146  0.82978636  1
  H+  H15  1  0.39805209  0.49921581  0.66069972  1
  H+  H16  1  0.85626258  0.21125046  0.32986243  1
  H+  H17  1  0.51921809  0.63700155  0.16581643  1
  H+  H18  1  0.38331298  0.24198466  0.33106898  1
  H+  H19  1  0.53131409  0.39709174  0.49791528  1
  H+  H20  1  0.37141484  0.61895509  0.32840795  1
  H+  H21  1  0.36189025  0.13359837  0.67179050  1
  H+  H22  1  0.62927964  0.00097285  0.83916914  1
  H+  H23  1  0.62017987  0.53645673  0.83874276  1
  H+  H24  1  0.09118212  0.62072303  0.66558338  1
  H+  H25  1  0.10830724  -0.01704686  0.48625770  1
  H+  H26  1  0.34413416  0.71512938  0.83250905  1
  H+  H27  1  0.81007595  0.66560722  0.57777587  1
  H+  H28  1  0.51927628  0.13248878  0.49384971  1
  H+  H29  1  0.35447804  0.72473152  0.50166482  1
  H+  H30  1  0.37549823  0.20232269  0.47016931  1
  H+  H31  1  0.36556025  0.35144431  0.84199747  1
  H+  H32  1  0.26423000  0.87783859  0.67871892  1
  H+  H33  1  0.09065535  0.67222435  0.09798681  1
  H+  H34  1  0.74953899  0.64255147  0.85282262  1
  H+  H35  1  0.32412313  0.14851476  0.41470206  1
  H+  H36  1  0.65682297  0.52435320  0.33172760  1
  H+  H37  1  0.34164446  0.72261067  0.67407690  1
  H+  H38  1  0.10959024  0.88301193  0.33385389  1
  H+  H39  1  0.13576920  0.77790329  0.49039597  1
  H+  H40  1  0.38858696  0.86717367  0.99513069  1
  H+  H41  1  0.72411772  0.86523798  0.66693304  1
  H+  H42  1  0.32052749  0.66281090  0.40779398  1
  H+  H43  1  0.62578945  0.61882439  0.68518877  1
  H+  H44  1  0.96190953  0.73453914  0.11612084  1
  H+  H45  1  0.86253115  0.48433793  0.48537946  1
  H+  H46  1  0.21660339  0.60990638  0.17266932  1
  H+  H47  1  0.87126724  0.01057484  0.32585968  1
  H+  H48  1  0.92494421  0.84855316  0.60219427  1
  H+  H49  1  0.39534627  0.53879471  0.51020088  1
  H+  H50  1  0.22166840  0.11976108  0.49486572  1
  H+  H51  1  0.61565563  0.12263258  0.00551915  1
  H+  H52  1  0.08132573  0.11160413  0.32947572  1
  H+  H53  1  0.78264870  0.63886962  0.34133188  1
  H+  H54  1  0.27617325  0.14026176  0.16147786  1
  H+  H55  1  0.40582372  0.82926868  0.57112264  1
  H+  H56  1  0.63453916  0.76792499  0.84579248  1
  H+  H57  1  0.34399351  0.97501804  0.83976414  1
  H+  H58  1  0.52124566  0.88675675  0.35267269  1
  H+  H59  1  0.84350012  0.67607899  0.40052235  1
  H+  H60  1  0.36066051  0.71830083  0.16611920  1
  H+  H61  1  0.71232677  0.44521755  -0.05208401  1
  H+  H62  1  0.86487377  0.10439325  0.48348290  1
  H+  H63  1  -0.01055471  0.30940009  0.36082345  1
  H+  H64  1  0.21640454  0.35799403  0.17933628  1
  H+  H65  1  0.91515856  0.44148496  0.79804541  1
  H+  H66  1  0.47149896  0.86222716  0.51442799  1
  H+  H67  1  0.45435902  0.59517984  0.82870566  1
  H+  H68  1  0.63771474  0.11366677  0.17667246  1
  H+  H69  1  0.75093423  0.58225415  0.97816442  1
  H+  H70  1  0.37516048  0.36220485  0.99892833  1
  H+  H71  1  0.40969015  0.07013211  0.60426823  1
  H+  H72  1  0.89254374  0.52363475  0.17551445  1
  H+  H73  1  0.91468001  0.83946036  0.27200792  1
  H+  H74  1  0.08634957  0.39121288  0.83114066  1
  H+  H75  1  0.86163300  0.97839917  0.66863895  1
  H+  H76  1  0.78146205  0.37309063  0.33696184  1
  H+  H77  1  0.89601877  0.12055292  0.16335002  1
  H+  H78  1  0.72813688  0.10377912  0.99033739  1
  H+  H79  1  0.27088022  0.88531076  0.48483404  1
  H+  H80  1  0.13549098  0.26936654  0.49912806  1
  H+  H81  1  0.79207437  0.90011547  -0.00334759  1
  H+  H82  1  0.41943505  0.59197055  1.08210074  1
  H+  H83  1  0.48047001  0.11752926  0.17058405  1
  H+  H84  1  0.25649319  0.37700942  0.66904238  1
  H+  H85  1  0.66013606  0.07616373  0.27012822  1
  H+  H86  1  0.07935447  0.41661510  0.21803160  1
  H+  H87  1  0.72115937  0.85330697  0.17216399  1
  H+  H88  1  0.11453552  0.52110510  0.84162431  1
  H+  H89  1  0.11543637  0.73430131  0.33286165  1
  H+  H90  1  -0.02690345  0.10529450  0.32179814  1
  H+  H91  1  0.91825414  0.32021177  -0.05200706  1
  H+  H92  1  0.07096268  0.15556800  0.72412058  1
  H+  H93  1  0.11757398  0.98055393  0.15655774  1
  H+  H94  1  0.61325891  0.46985713  0.00426354  1
  H+  H95  1  0.11578206  0.22557710  0.15688976  1
  H+  H96  1  0.37866228  0.01478876  0.66615970  1
  H+  H97  1  0.52758216  0.64328841  0.50237606  1
  H+  H98  1  0.47916712  0.36824543  0.17510722  1
  H+  H99  1  0.49954786  0.36620252  0.32750864  1
  H+  H100  1  0.42523077  0.42357798  0.34646178  1
  H+  H101  1  0.39023625  1.03186216  -0.00653283  1
  H+  H102  1  0.97098427  0.35572855  0.66322836  1
  H+  H103  1  0.92310013  0.39895131  0.49391103  1
  H+  H104  1  0.13628191  0.12549725  0.50145324  1
  H+  H105  1  0.63047564  0.02403802  0.51221308  1
  H+  H106  1  0.88049080  0.77276681  0.64733733  1
  H+  H107  1  0.86365448  0.89060463  0.34915910  1
  H+  H108  1  0.10451064  0.13138224  0.66423331  1
  H+  H109  1  0.24478893  0.13280745  0.98829863  1
  H+  H110  1  0.12121764  0.88149829  0.00166034  1
  H+  H111  1  0.72810678  0.36988348  0.17248908  1
  H+  H112  1  0.61457720  0.89175282  1.00371607  1
  H+  H113  1  0.12531541  0.51806195  0.17695069  1
  H+  H114  1  0.55782759  0.89362080  0.73514805  1
  H+  H115  1  0.62783081  0.38362036  0.34109489  1
  H+  H116  1  0.62847548  0.11606017  0.50740055  1
  H+  H117  1  0.16242532  0.33911473  0.27199457  1
  H+  H118  1  0.85280986  0.20089479  0.82763162  1
  H+  H119  1  0.88302656  0.34166490  0.32796824  1
  H+  H120  1  0.84002490  0.62800016  0.63040592  1
  H+  H121  1  0.86633447  0.12834498  1.00531186  1
  H+  H122  1  0.03977712  0.38744129  0.44026203  1
  H+  H123  1  0.62106308  0.89021168  0.16096920  1
  H+  H124  1  0.35955016  0.88196527  0.49184551  1
  H+  H125  1  0.22656641  0.86651574  0.32465803  1
  H+  H126  1  0.36725368  0.85189508  0.84516780  1
  H+  H127  1  0.16068584  0.78341547  -0.01964071  1
  H+  H128  1  0.01059139  0.63654936  0.81984835  1
  H+  H129  1  0.02808960  0.13595004  0.15263734  1
  H+  H130  1  0.21675072  0.62012779  0.32861532  1
  H+  H131  1  0.01797659  0.12188964  0.82004928  1
  H+  H132  1  0.61703172  0.13468583  0.34247324  1
  H+  H133  1  0.39546494  0.11918179  0.83857251  1
  H+  H134  1  0.63026382  0.36404552  0.66110770  1
  H+  H135  1  0.59135670  0.31268911  0.83803976  1
  H+  H136  1  0.21554562  0.60712592  0.50764868  1
  H+  H137  1  0.37599601  0.41230460  0.50201459  1
  H+  H138  1  0.58122541  0.62703026  0.07700280  1
  H+  H139  1  0.86154168  0.21528697  0.00895023  1
  H+  H140  1  0.62557813  0.62860060  0.49287198  1
  H+  H141  1  0.96265613  0.60779540  0.64998689  1
  H+  H142  1  0.37574199  0.29786092  0.51674806  1
  H+  H143  1  0.86637685  0.74444763  0.49647301  1
  H+  H144  1  0.84337051  0.30515039  0.86603717  1
  H+  H145  1  0.97170223  0.61900211  0.49523132  1
  H+  H146  1  0.19212010  0.10297883  0.34481375  1
  H+  H147  1  0.63631979  0.86873535  0.33372703  1
  H+  H148  1  0.38091468  0.61467170  0.02578660  1
  H+  H149  1  0.85651100  0.18952648  0.49149860  1
  H+  H150  1  0.88251933  1.01068454  0.84347546  1
  H+  H151  1  0.72293051  0.62348886  0.17648125  1
  H+  H152  1  0.35925069  0.72845889  0.00650240  1
  H+  H153  1  0.49728608  0.84908396  0.18322263  1
  H+  H154  1  0.36728607  0.23659358  1.00759426  1
  H+  H155  1  0.13834372  0.02373691  0.65673285  1
  H+  H156  1  0.37758339  0.51756048  0.17628894  1
  H+  H157  1  0.58136672  0.16110030  0.73227456  1
  H+  H158  1  0.34251034  0.63414191  0.67724445  1
  H+  H159  1  0.52142727  0.64276997  0.70098215  1
  H+  H160  1  0.77349589  0.34976540  0.82968616  1
  H+  H161  1  0.36853258  0.98302892  0.16119407  1
  H+  H162  1  0.79302766  0.40383566  1.00399132  1
  H+  H163  1  0.82787561  0.15943667  0.09824667  1
  H+  H164  1  -0.02097777  0.87672505  0.50527910  1
  H+  H165  1  0.77408955  0.13585468  0.16053826  1
  H+  H166  1  0.86402390  0.38862336  0.16427970  1
  H+  H167  1  0.09185295  0.46166767  0.66692366  1
  H+  H168  1  0.59192715  0.87135298  0.67517699  1
  H+  H169  1  0.36434422  0.97762192  0.33750835  1
  H+  H170  1  0.08566647  0.32999364  0.36480197  1
  H+  H171  1  0.69426829  0.61012228  0.64443437  1
  H+  H172  1  0.63441322  0.09267026  0.83658251  1
  H+  H173  1  0.36461077  0.22934480  0.82802838  1
  H+  H174  1  0.72614880  0.12066513  0.65379734  1
  H+  H175  1  0.35461944  0.72807503  0.35128421  1
  H+  H176  1  0.00446997  0.63814846  0.32571278  1
  H+  H177  1  0.72122197  0.10355218  0.32837723  1
  H+  H178  1  0.73031628  0.95664815  -0.04918249  1
  H+  H179  1  0.78152488  0.39012580  0.49227110  1
  H+  H180  1  0.51109578  0.65728445  0.34733572  1
  H+  H181  1  0.65196937  0.79124776  0.51223611  1
  H+  H182  1  0.50725897  0.39925038  0.82570185  1
  H+  H183  1  0.40063462  0.11799507  0.32175199  1
  H+  H184  1  0.60689937  0.73622252  0.34870714  1
  H+  H185  1  0.46948508  0.37621692  -0.00184489  1
  H+  H186  1  0.85897045  0.12928738  0.66284866  1
  H+  H187  1  0.11977774  0.52339210  0.50119036  1
  H+  H188  1  0.60159072  0.47641488  0.67486782  1
  H+  H189  1  0.61676638  0.23181642  0.16144020  1
  H+  H190  1  0.48001105  0.11879691  0.99493174  1
  H+  H191  1  0.90218540  1.02611673  -0.00366646  1
  H+  H192  1  0.23822289  0.12145812  0.83879063  1
  H+  H193  1  0.01818282  0.21495495  0.44066668  1
  H+  H194  1  0.51828570  0.59738318  1.02252462  1
  H+  H195  1  1.01711011  0.88146922  0.33624101  1
  H+  H196  1  0.86305191  0.88949042  0.67181028  1
  H+  H197  1  0.12636004  0.35795677  0.17806990  1
  H+  H198  1  0.13823310  0.86830776  0.49151223  1
  H+  H199  1  0.51159155  0.86968842  0.83253298  1
  H+  H200  1  0.60895171  0.72798439  0.16427135  1
  H+  H201  1  0.99176676  0.86186806  0.98937470  1
  H+  H202  1  0.33298009  0.91801497  0.39785977  1
  H+  H203  1  0.52881161  0.13565550  0.33912610  1
  H+  H204  1  0.02957665  0.88940031  0.67755447  1
  H+  H205  1  0.11680877  0.89083813  0.15990514  1
  H+  H206  1  0.72714527  0.86019065  0.83226829  1
  H+  H207  1  0.85361906  0.87196504  0.15894574  1
  H+  H208  1  0.37042191  0.85301525  0.66660823  1
  H+  H209  1  0.86961152  0.10310428  0.32066206  1
  H+  H210  1  0.13028634  0.27384695  0.99735358  1
  H+  H211  1  0.87585050  0.88893737  1.00014248  1
  H+  H212  1  0.87147118  0.49568084  0.81673107  1
  H+  H213  1  0.82195243  0.68836637  0.90245461  1
  H+  H214  1  0.21068460  0.45204438  0.88060456  1
  H+  H215  1  0.87527139  0.25686203  0.66430313  1
  H+  H216  1  0.64423796  0.34979744  0.96076629  1
  H+  H217  1  0.43386401  0.34306518  0.26947016  1
  H+  H218  1  0.87692805  0.09625207  0.84112615  1
  H+  H219  1  0.60351761  0.87164796  0.82837425  1
  H+  H220  1  0.36656063  0.89323770  0.15909844  1
  H+  H221  1  0.90449544  0.78362986  0.17725863  1
  H+  H222  1  0.20247579  0.59661464  0.65945576  1
  H+  H223  1  0.63568438  0.12354053  0.65648142  1
  H+  H224  1  0.62186570  0.62724686  0.85647804  1
  H+  H225  1  0.36560467  0.59603315  0.82890873  1
  H+  H226  1  0.62715132  0.27244323  0.66180042  1
  H+  H227  1  0.03204738  0.13578458  0.00161546  1
  H+  H228  1  0.76351137  0.37791637  0.66474397  1
  H+  H229  1  0.90728283  0.53070051  0.99350761  1
  H+  H230  1  0.26062738  0.38277886  1.01629505  1
  H+  H231  1  0.86764390  0.61320324  0.84967943  1
  H+  H232  1  0.72736814  0.62681510  0.49424378  1
  H+  H233  1  0.35771656  0.38415353  0.17062858  1
  H+  H234  1  0.09234658  0.16554462  0.06178703  1
  H+  H235  1  0.62256470  0.33581489  0.81267414  1
  H+  H236  1  0.38943446  0.11608923  0.17078432  1
  H+  H237  1  0.19848858  0.31894247  0.33074557  1
  H+  H238  1  0.61681301  0.89700725  0.50510838  1
  H+  H239  1  0.12515234  0.64221642  1.00706706  1
  H+  H240  1  0.10468432  0.63506169  0.48952508  1
  H+  H241  1  0.53332970  0.13492515  0.82969995  1
  H+  H242  1  0.22877791  0.35216610  0.50402542  1
  H+  H243  1  0.20892318  0.60497189  0.84312831  1
  H+  H244  1  0.51688632  0.13093344  0.67458126  1
  H+  H245  1  0.94430646  0.34047297  0.84638968  1
  H+  H246  1  0.63506654  0.77723562  0.67458308  1
  H+  H247  1  0.38489482  0.86572073  0.33249499  1
  H+  H248  1  0.76375029  0.11324683  0.82097912  1
  H+  H249  1  0.87488395  0.51723338  0.64411090  1
  H+  H250  1  0.27339808  0.13602502  0.67075889  1
  H+  H251  1  0.60999707  0.97606094  0.34715258  1
  H+  H252  1  -0.01243965  0.12358631  0.47441562  1
  H+  H253  1  0.66636687  0.07156499  0.93045250  1
  H+  H254  1  0.87659215  0.72998551  -0.00458561  1
  H+  H255  1  0.97612595  0.36641331  0.17529400  1
  H+  H256  1  -0.02428641  0.35534700  0.00995236  1
  H+  H257  1  0.11511948  0.63773764  0.15893679  1
  H+  H258  1  0.15605299  0.02718913  0.84103102  1
  H+  H259  1  0.35928034  0.63886154  0.50372283  1
  H+  H260  1  0.64114678  0.26980760  0.32509258  1
  H+  H261  1  0.96897425  0.10688331  0.64850219  1
  H+  H262  1  0.13981753  0.11764813  0.16941098  1
  H+  H263  1  0.89642276  0.88799982  0.51191374  1
  H+  H264  1  0.38142585  0.26893571  0.66161238  1
  H+  H265  1  0.37797167  0.09410553  0.50489174  1
  H+  H266  1  0.39698818  0.54422610  0.32673454  1
  H+  H267  1  0.63532992  0.27707320  0.50560724  1
  H+  H268  1  0.09235532  0.37145706  0.66711706  1
  H+  H269  1  0.90463350  0.61883927  0.99040918  1
  H+  H270  1  0.63474505  0.20945302  0.82936107  1
  H+  H271  1  0.38456699  1.00998908  0.50551790  1
  H+  H272  1  0.88536837  0.27566453  0.16776818  1
  H+  H273  1  0.28523113  0.89667566  0.00089162  1
  H+  H274  1  0.22767772  0.86475982  0.17005012  1
  H+  H275  1  0.63300971  0.62010246  0.17905079  1
  H+  H276  1  0.62455432  0.21412861  0.00623887  1
  H+  H277  1  0.54454692  0.67247549  0.87964630  1
  H+  H278  1  0.93583173  0.82368679  0.77325100  1
  H+  H279  1  0.14834001  0.13049479  -0.01297007  1
  H+  H280  1  0.13902302  0.85653321  0.66229734  1
  H+  H281  1  0.47430036  0.86026262  0.99398795  1
  H+  H282  1  0.09887366  0.63671692  0.82240278  1
  H+  H283  1  0.86724106  0.88271716  0.81578801  1
  H+  H284  1  0.22325098  0.60718388  -0.00318723  1
  H+  H285  1  0.98617464  0.61150187  0.17298727  1
  H+  H286  1  0.63796140  0.36932214  0.17184618  1
  H+  H287  1  0.11986260  1.00806006  0.32683884  1
  H+  H288  1  0.51629063  0.38404736  0.67333200  1
  H+  H289  1  1.04089153  0.64920011  1.00187405  1
  H+  H290  1  0.63715698  0.53020051  0.49523757  1
  H+  H291  1  0.91267355  0.58213564  0.89846532  1
  H+  H292  1  0.07793045  0.66281341  0.42745462  1
  H+  H293  1  0.16596500  0.08412326  0.59732705  1
  H+  H294  1  0.66382656  0.33399680  0.56616868  1
  H+  H295  1  0.56126172  0.50713302  0.03556370  1
  H+  H296  1  0.66954778  0.33153365  0.26569881  1
  H+  H297  1  0.13879055  0.77433807  0.16941262  1
  H+  H298  1  0.67175775  0.84107838  0.57502419  1
  H+  H299  1  0.58375328  0.91497299  0.10205806  1
  H+  H300  1  0.58906176  0.16775350  0.10387751  1
  H+  H301  1  0.83053066  0.15299327  0.72725623  1
  H+  H302  1  0.66655193  0.83578395  0.23519969  1
  H+  H303  1  0.40462014  0.33231174  0.90250831  1
  H+  H304  1  0.61360137  0.48212038  0.16466947  1
  H+  H305  1  0.10744447  0.47378884  0.02684624  1
  H+  H306  1  0.49633415  0.54272441  0.64076728  1
  H+  H307  1  0.57812180  0.67494299  0.43644809  1
  H+  H308  1  0.93731390  0.84257845  0.92756046  1
  H+  H309  1  0.60687115  0.97403915  0.00773501  1
  H+  H310  1  0.14772859  0.56764250  0.59747042  1
  H+  H311  1  0.16057580  0.36405420  0.91429720  1
  H+  H312  1  0.85412105  0.67342461  0.05527714  1
  H+  H313  1  0.81272946  0.62411291  0.74491163  1
  H+  H314  1  0.68665151  0.86608239  0.91868444  1
  H+  H315  1  1.07006472  0.89443816  0.82680136  1
  H+  H316  1  0.56844121  0.42842849  0.76679207  1
  H+  H317  1  0.92776318  0.59820981  0.26367557  1
  H+  H318  1  0.86097308  0.65190404  0.74466681  1
  H+  H319  1  0.33754114  0.17004842  0.76724526  1
  H+  H320  1  0.57277936  0.67897958  0.76377908  1
  H+  H321  1  0.83975213  0.42381520  0.10483306  1
  H+  H322  1  0.43143548  0.58712352  0.57307990  1
  H+  H323  1  0.05026792  0.15249186  0.38523476  1
  H+  H324  1  0.42373335  0.09192062  0.89974260  1
  H+  H325  1  0.07669467  0.91954191  0.42849023  1
  H+  H326  1  0.17005500  0.91266221  0.82321997  1
  H+  H327  1  0.34892947  0.62647786  0.15900510  1
  H+  H328  1  0.42263536  0.82881171  0.28061153  1
  H+  H329  1  0.40639889  0.58690953  0.23084103  1
  H+  H330  1  0.48617043  0.51708893  0.37197388  1
  H+  H331  1  0.92273334  0.08169072  0.93490945  1
  H+  H332  1  0.33602591  0.17215697  0.10217808  1
  H+  H333  1  0.10147828  0.92588028  0.73147460  1
  H+  H334  1  0.08640133  0.90740476  0.06151861  1
  H+  H335  1  0.68234518  0.55514124  0.92287958  1
  H+  H336  1  0.06328212  0.65328032  0.72490279  1
  H+  H337  1  0.47419772  0.76870351  0.22362982  1
  H+  H338  1  0.59615419  0.41527878  0.40042027  1
  H+  H339  1  0.37194268  0.35408907  0.66483924  1
  H+  H340  1  0.83419327  0.91944472  0.76317106  1
  H+  H341  1  0.12169107  0.26494576  0.65812918  1
  H+  H342  1  0.15826492  0.32236998  0.59893336  1
  H+  H343  1  0.31976799  0.91128162  0.73993278  1
  H+  H344  1  0.86745615  0.65221014  0.49436933  1
  H+  H345  1  0.91803013  0.07847570  0.21804781  1
  H+  H346  1  0.67786425  0.58869953  0.27635270  1
  H+  H347  1  0.32351321  0.67215605  0.06784174  1
  H+  H348  1  0.36866194  0.44764843  0.43808190  1
  H+  H349  1  0.15612886  0.57128514  0.94093410  1
  H+  H350  1  0.34397376  0.45889354  0.81817212  1
  H+  H351  1  0.84121161  0.40394008  0.39546478  1
  H+  H352  1  0.58168619  0.16494955  0.43464908  1
  H+  H353  1  0.83371221  0.42098694  0.71892674  1
  H+  H354  1  0.87363221  0.38932461  0.01187737  1
  H+  H355  1  0.20288008  0.85336806  0.92410652  1
  H+  H356  1  0.91083192  0.58630806  0.55462395  1
  H+  H357  1  0.87116726  0.35164266  0.66079305  1
  H+  H358  1  0.16886115  0.83608373  0.26321386  1
  H+  H359  1  0.79599728  0.92998198  0.50717894  1
  H+  H360  1  0.12559273  0.36022803  1.01158879  1
  H+  H361  1  0.16107197  0.59166929  0.26606015  1
  H+  H362  1  0.84300306  0.93439175  0.40694449  1
  H+  H363  1  0.72933076  0.33041790  0.89355755  1
  H+  H364  1  0.83396931  0.15057208  0.39047340  1
  H+  H365  1  0.10761232  0.12450909  0.81563715  1
  H+  H366  1  0.66263737  0.09259508  0.57861735  1
  H+  H367  1  0.34077439  0.92667106  0.06299322  1
  H+  H368  1  0.57776309  0.42896579  0.10325836  1
  H+  H369  1  0.42509114  0.08279639  0.26318062  1
  H+  H370  1  0.82456414  0.89779318  0.09721983  1
  H+  H371  1  0.30669486  0.15521416  0.30384127  1
  H+  H372  1  0.07783138  0.41742357  0.08840199  1
  H+  H373  1  0.40230320  0.82501315  0.90269572  1
  H+  H374  1  0.32126772  0.40607132  0.11091017  1
  H+  H375  1  0.58478781  0.92238677  0.44448352  1
  H+  H376  1  0.61998218  0.39499730  0.49805426  1
  H+  H377  1  0.31064666  0.39840594  0.73130306  1
  H+  H378  1  0.41875741  0.34582176  0.57799713  1
  H+  H379  1  0.31117830  0.66017706  0.77111555  1
  H+  H380  1  0.45665120  0.84545936  0.66573988  1
  H+  H381  1  0.18185285  0.09815915  0.92085740  1
  H+  H382  1  0.91304689  0.31609238  0.26594433  1
  H+  H383  1  0.16436669  0.08452569  0.23010105  1
  O2-  O384  1  0.09089988  0.16624097  0.13894877  1
  O2-  O385  1  0.03798805  0.17452658  0.45342737  1
  O2-  O386  1  0.07414135  0.14963644  0.79857971  1
  O2-  O387  1  0.07949800  0.41900111  0.17351148  1
  O2-  O388  1  0.03890417  0.43327294  0.46659802  1
  O2-  O389  1  0.04587784  0.40709706  0.81150758  1
  O2-  O390  1  0.08610658  0.67068449  0.14363979  1
  O2-  O391  1  0.07424469  0.66441799  0.47252317  1
  O2-  O392  1  0.06714126  0.65966174  0.79972942  1
  O2-  O393  1  0.08454886  0.91883387  0.14387793  1
  O2-  O394  1  0.07676219  0.92145258  0.47397140  1
  O2-  O395  1  0.12648280  0.93408511  0.80908255  1
  O2-  O396  1  0.33789869  0.17101281  0.14767293  1
  O2-  O397  1  0.32362577  0.14823357  0.46020276  1
  O2-  O398  1  0.33747867  0.16823680  0.81273032  1
  O2-  O399  1  0.32528930  0.41283162  0.15643823  1
  O2-  O400  1  0.34731893  0.44027810  0.48081135  1
  O2-  O401  1  0.30972338  0.39509038  0.80796502  1
  O2-  O402  1  0.32291780  0.66212119  0.14597178  1
  O2-  O403  1  0.32439230  0.66336046  0.48725778  1
  O2-  O404  1  0.31231900  0.65481312  0.81626007  1
  O2-  O405  1  0.33588917  0.92205784  0.14484115  1
  O2-  O406  1  0.33520936  0.91642597  0.47377231  1
  O2-  O407  1  0.31060914  0.91377731  0.82561213  1
  O2-  O408  1  0.58614754  0.16946903  0.14903397  1
  O2-  O409  1  0.58097403  0.16559012  0.48053741  1
  O2-  O410  1  0.59134340  0.15379410  0.81127563  1
  O2-  O411  1  0.58291508  0.42219245  0.14841389  1
  O2-  O412  1  0.59071894  0.42641427  0.48114443  1
  O2-  O413  1  0.56547764  0.44102469  0.81040500  1
  O2-  O414  1  0.58020252  0.66554518  0.15181290  1
  O2-  O415  1  0.58712416  0.67060157  0.48281159  1
  O2-  O416  1  0.57640149  0.67468907  0.84298197  1
  O2-  O417  1  0.58640689  0.91776641  0.14763224  1
  O2-  O418  1  0.58388938  0.92499587  0.49019163  1
  O2-  O419  1  0.57088031  0.90125613  0.81548905  1
  O2-  O420  1  0.83352844  0.16742500  0.14335650  1
  O2-  O421  1  0.85304211  0.14767010  0.46184325  1
  O2-  O422  1  0.82482679  0.14480751  0.80544111  1
  O2-  O423  1  0.83590838  0.42272475  0.15016976  1
  O2-  O424  1  0.84089129  0.42240742  0.47577733  1
  O2-  O425  1  0.86062080  0.44107417  0.79451310  1
  O2-  O426  1  0.90182195  0.69969447  0.12899104  1
  O2-  O427  1  0.83271821  0.68176111  0.48505036  1
  O2-  O428  1  0.81675776  0.67562612  0.85897791  1
  O2-  O429  1  0.80845783  0.88072659  0.14020067  1
  O2-  O430  1  0.85481142  0.95584548  0.48893699  1
  O2-  O431  1  0.83419007  0.91301597  0.80878221  1
  O2-  O432  1  0.17071364  0.08709432  0.18533225  1
  O2-  O433  1  0.16310041  0.09164507  0.51311440  1
  O2-  O434  1  0.17786817  0.08815401  0.85626275  1
  O2-  O435  1  0.15477748  0.32378353  0.19179862  1
  O2-  O436  1  0.18370944  0.30322336  0.52708396  1
  O2-  O437  1  0.17110266  0.39110710  0.87255293  1
  O2-  O438  1  0.15635727  0.58372140  0.18778328  1
  O2-  O439  1  0.15428433  0.58068483  0.52132965  1
  O2-  O440  1  0.14952658  0.57782743  0.86135894  1
  O2-  O441  1  0.16736078  0.83498214  0.18557517  1
  O2-  O442  1  0.17309298  0.84034685  0.49802162  1
  O2-  O443  1  0.22259705  0.88022424  0.85077867  1
  O2-  O444  1  0.41916923  0.08449513  0.18539619  1
  O2-  O445  1  0.41348767  0.07146987  0.52188561  1
  O2-  O446  1  0.42439160  0.08763511  0.85437568  1
  O2-  O447  1  0.41966568  0.33746581  0.19333838  1
  O2-  O448  1  0.42230641  0.35282164  0.53140177  1
  O2-  O449  1  0.40228533  0.32780394  0.85712255  1
  O2-  O450  1  0.40779883  0.58133111  0.18521308  1
  O2-  O451  1  0.42834010  0.59823019  0.52880653  1
  O2-  O452  1  0.39180473  0.55923644  0.83621116  1
  O2-  O453  1  0.44870458  0.80212348  0.20822020  1
  O2-  O454  1  0.40928514  0.83010947  0.52538794  1
  O2-  O455  1  0.39861131  0.82157717  0.85709513  1
  O2-  O456  1  0.66776219  0.08310167  0.19184562  1
  O2-  O457  1  0.65923355  0.08676100  0.52620475  1
  O2-  O458  1  0.66465091  0.06287813  0.85326326  1
  O2-  O459  1  0.66667751  0.33705822  0.18651813  1
  O2-  O460  1  0.66638423  0.33762965  0.52058813  1
  O2-  O461  1  0.74234544  0.30229248  0.85942189  1
  O2-  O462  1  0.66487184  0.58962225  0.19294270  1
  O2-  O463  1  0.66393404  0.59387719  0.50509156  1
  O2-  O464  1  0.65447749  0.59211191  0.86210436  1
  O2-  O465  1  0.66074654  0.83111855  0.18994144  1
  O2-  O466  1  0.67785359  0.84972611  0.52954082  1
  O2-  O467  1  0.66920256  0.83576538  0.85165961  1
  O2-  O468  1  0.92922512  0.09163045  0.17455086  1
  O2-  O469  1  0.90178321  0.04700689  0.51330029  1
  O2-  O470  1  0.91068623  0.07120857  0.85934790  1
  O2-  O471  1  0.91163569  0.33425170  0.18624120  1
  O2-  O472  1  0.96634105  0.38270636  0.50798179  1
  O2-  O473  1  0.89434226  0.29709380  0.87072543  1
  O2-  O474  1  0.92569427  0.58574874  0.18953181  1
  O2-  O475  1  0.90980071  0.59211531  0.50906117  1
  O2-  O476  1  0.90077506  0.58235138  0.85379524  1
  O2-  O477  1  0.92471529  0.84131959  0.19531078  1
  O2-  O478  1  0.91915912  0.84913631  0.52312711  1
  O2-  O479  1  0.92751795  0.82904813  0.81666802  1
  O2-  O480  1  0.14685232  0.07192480  0.31474655  1
  O2-  O481  1  0.16764652  0.08525462  0.64239990  1
  O2-  O482  1  0.18402836  0.10472891  0.96952457  1
  O2-  O483  1  0.17229823  0.35197841  0.31658992  1
  O2-  O484  1  0.15054700  0.32655278  0.64384864  1
  O2-  O485  1  0.15733608  0.33681337  0.98801622  1
  O2-  O486  1  0.15763920  0.59546516  0.31141683  1
  O2-  O487  1  0.14277543  0.56222225  0.64322513  1
  O2-  O488  1  0.16039953  0.57309281  0.98644531  1
  O2-  O489  1  0.16571184  0.83558128  0.30895785  1
  O2-  O490  1  0.17126232  0.82675904  0.65216415  1
  O2-  O491  1  0.19102217  0.84558953  0.96967170  1
  O2-  O492  1  0.42592493  0.08226603  0.30897576  1
  O2-  O493  1  0.41081929  0.07523541  0.64949609  1
  O2-  O494  1  0.41997832  0.09376613  0.97978785  1
  O2-  O495  1  0.43679820  0.34116683  0.31531193  1
  O2-  O496  1  0.40914580  0.33107521  0.64858901  1
  O2-  O497  1  0.40963435  0.33670130  0.98234080  1
  O2-  O498  1  0.40888659  0.59922236  0.30771204  1
  O2-  O499  1  0.44832751  0.55404465  0.64495146  1
  O2-  O500  1  0.40921831  0.58058755  1.03846434  1
  O2-  O501  1  0.41641355  0.83316571  0.32521825  1
  O2-  O502  1  0.39497113  0.81808242  0.64912272  1
  O2-  O503  1  0.41290025  0.83073572  0.98002781  1
  O2-  O504  1  0.65894050  0.07550715  0.31583062  1
  O2-  O505  1  0.66707334  0.09650250  0.63638135  1
  O2-  O506  1  0.66626787  0.07462716  0.97632475  1
  O2-  O507  1  0.67199798  0.33110460  0.31123156  1
  O2-  O508  1  0.65970380  0.33241685  0.64536627  1
  O2-  O509  1  0.70557305  0.38588749  0.95192134  1
  O2-  O510  1  0.68669172  0.58633728  0.32061549  1
  O2-  O511  1  0.63267134  0.57982890  0.65659565  1
  O2-  O512  1  0.70380637  0.53215970  0.95656361  1
  O2-  O513  1  0.66557179  0.83792449  0.31668918  1
  O2-  O514  1  0.66341122  0.83259056  0.65168720  1
  O2-  O515  1  0.70237245  0.89557843  0.96096757  1
  O2-  O516  1  0.90083145  0.06995518  0.30581610  1
  O2-  O517  1  0.90690478  0.07563892  0.63526392  1
  O2-  O518  1  0.92883167  0.08682513  0.98066966  1
  O2-  O519  1  0.90911248  0.30637869  0.31097070  1
  O2-  O520  1  0.90477232  0.32047879  0.65040375  1
  O2-  O521  1  0.91563126  0.32462888  0.99324765  1
  O2-  O522  1  0.93390374  0.60572171  0.30955237  1
  O2-  O523  1  0.90331684  0.57812935  0.63065655  1
  O2-  O524  1  0.93540624  0.58919904  0.97448021  1
  O2-  O525  1  0.91434338  0.83967921  0.31787262  1
  O2-  O526  1  0.91830495  0.83651702  0.64707968  1
  O2-  O527  1  0.92981858  0.83402962  0.97153492  1
  O2-  O528  1  0.09412632  0.16789088  0.01573176  1
  O2-  O529  1  0.04912595  0.14245210  0.33934587  1
  O2-  O530  1  0.07112743  0.15925767  0.67801453  1
  O2-  O531  1  0.07700796  0.41379505  0.04338272  1
  O2-  O532  1  0.03320355  0.31252114  0.39034922  1
  O2-  O533  1  0.05968624  0.40022734  0.68268815  1
  O2-  O534  1  0.10055482  0.67968623  0.01897531  1
  O2-  O535  1  0.08121607  0.67201773  0.34583555  1
  O2-  O536  1  0.06181446  0.65275632  0.67882347  1
  O2-  O537  1  0.08231946  0.90222637  0.01649358  1
  O2-  O538  1  0.07949768  0.91385247  0.34956029  1
  O2-  O539  1  0.09220799  0.92291201  0.68634962  1
  O2-  O540  1  0.33498127  0.17433790  0.02115247  1
  O2-  O541  1  0.34671077  0.17655722  0.33814448  1
  O2-  O542  1  0.33401935  0.16694659  0.68642686  1
  O2-  O543  1  0.32019243  0.40681810  0.03340527  1
  O2-  O544  1  0.42540163  0.47347628  0.36739378  1
  O2-  O545  1  0.31659092  0.40251977  0.68569106  1
  O2-  O546  1  0.32682947  0.66789562  0.02259784  1
  O2-  O547  1  0.32089883  0.66563968  0.36219547  1
  O2-  O548  1  0.30895481  0.66052138  0.69043064  1
  O2-  O549  1  0.34612923  0.92909103  0.01792077  1
  O2-  O550  1  0.33053954  0.91672112  0.35176901  1
  O2-  O551  1  0.32616653  0.91234966  0.69509901  1
  O2-  O552  1  0.58852222  0.15629969  0.02233861  1
  O2-  O553  1  0.58796876  0.16716152  0.35710332  1
  O2-  O554  1  0.57914604  0.16535939  0.68692512  1
  O2-  O555  1  0.56242443  0.45077630  0.03144720  1
  O2-  O556  1  0.59710772  0.41518261  0.35509674  1
  O2-  O557  1  0.57770873  0.41451592  0.68669118  1
  O2-  O558  1  0.57256742  0.60106199  0.03584620  1
  O2-  O559  1  0.56777381  0.67887589  0.36761241  1
  O2-  O560  1  0.57895901  0.68112489  0.71837625  1
  O2-  O561  1  0.57820713  0.91309760  0.02276227  1
  O2-  O562  1  0.58298461  0.91703578  0.36589617  1
  O2-  O563  1  0.55200411  0.89048076  0.69010711  1
  O2-  O564  1  0.82892568  0.15241520  0.01883224  1
  O2-  O565  1  0.82555863  0.14831376  0.34484626  1
  O2-  O566  1  0.83122656  0.16093965  0.68178595  1
  O2-  O567  1  0.84973150  0.42729582  0.02427006  1
  O2-  O568  1  0.84162949  0.39583909  0.35081508  1
  O2-  O569  1  0.82722607  0.40726697  0.67442446  1
  O2-  O570  1  0.84728991  0.66872465  0.01017404  1
  O2-  O571  1  0.84578232  0.67515992  0.35542212  1
  O2-  O572  1  0.80938455  0.66083607  0.62230914  1
  O2-  O573  1  0.84886960  0.92128040  0.01722441  1
  O2-  O574  1  0.83388882  0.92284198  0.36233974  1
  O2-  O575  1  0.83218950  0.91920380  0.68722844  1
