# generated using pymatgen
data_H2O
_symmetry_space_group_name_H-M   'P 1'
_cell_length_a   17.98368971
_cell_length_b   17.97697297
_cell_length_c   21.98762527
_cell_angle_alpha   90.02231016
_cell_angle_beta   89.99457835
_cell_angle_gamma   119.99404033
_symmetry_Int_Tables_number   1
_chemical_formula_structural   H2O
_chemical_formula_sum   'H384 O192'
_cell_volume   6156.45013759
_cell_formula_units_Z   192
loop_
 _symmetry_equiv_pos_site_id
 _symmetry_equiv_pos_as_xyz
  1  'x, y, z'
loop_
 _atom_type_symbol
 _atom_type_oxidation_number
  H+  1.0
  O2-  -2.0
loop_
 _atom_site_type_symbol
 _atom_site_label
 _atom_site_symmetry_multiplicity
 _atom_site_fract_x
 _atom_site_fract_y
 _atom_site_fract_z
 _atom_site_occupancy
  H+  H0  1  0.89178513  0.12895005  0.66696365  1
  H+  H1  1  0.14817484  0.27354971  0.84631748  1
  H+  H2  1  0.91543077  0.34243363  0.23107648  1
  H+  H3  1  0.40739479  0.33833130  0.25485159  1
  H+  H4  1  0.89739127  0.86316696  0.64646372  1
  H+  H5  1  0.10512878  0.87426499  1.01192653  1
  H+  H6  1  0.28305470  0.62795083  0.48109773  1
  H+  H7  1  0.98604769  0.37302001  0.65709033  1
  H+  H8  1  0.60536733  0.46713278  0.15921233  1
  H+  H9  1  0.16006699  0.39681479  0.46615534  1
  H+  H10  1  0.87845839  0.33198336  0.80990991  1
  H+  H11  1  0.47601110  0.61611963  0.99961202  1
  H+  H12  1  0.60717912  0.13546379  0.34147678  1
  H+  H13  1  0.52555372  0.04172965  0.02320804  1
  H+  H14  1  0.61942298  0.59185879  0.17345194  1
  H+  H15  1  0.26717293  0.28930514  0.73306782  1
  H+  H16  1  0.75711923  0.13819913  0.34322095  1
  H+  H17  1  1.01678447  0.62712788  0.82570805  1
  H+  H18  1  0.60985412  0.22848954  0.15422421  1
  H+  H19  1  0.12415068  0.52043158  0.32307115  1
  H+  H20  1  0.47745968  0.87285146  1.00544002  1
  H+  H21  1  0.37845333  0.33913511  0.67442117  1
  H+  H22  1  0.13463820  0.76436216  0.84433812  1
  H+  H23  1  0.36592008  0.72188952  0.47989224  1
  H+  H24  1  0.39949560  0.88223007  0.82851578  1
  H+  H25  1  0.38719356  0.85238188  0.50169696  1
  H+  H26  1  0.27537799  0.63311344  0.68215804  1
  H+  H27  1  0.13688174  0.51500468  0.50735225  1
  H+  H28  1  0.95800297  0.13904787  0.32291638  1
  H+  H29  1  0.95847305  0.68945552  0.94139463  1
  H+  H30  1  0.71769929  0.60980885  0.65851624  1
  H+  H31  1  0.63990765  0.35681491  0.65281560  1
  H+  H32  1  0.28631059  0.15207966  0.33282746  1
  H+  H33  1  0.47561895  0.35601642  0.66267573  1
  H+  H34  1  0.86155762  0.46783491  0.49611627  1
  H+  H35  1  0.77404564  0.37672036  1.00269609  1
  H+  H36  1  0.39695666  0.62297204  0.50006320  1
  H+  H37  1  0.36765114  0.64306536  1.01306269  1
  H+  H38  1  0.11740286  0.87760768  0.82953742  1
  H+  H39  1  0.44566162  0.10419209  0.00037219  1
  H+  H40  1  0.61405773  0.89400229  0.00817399  1
  H+  H41  1  0.79950076  0.86680540  0.79559242  1
  H+  H42  1  0.01986579  0.14898012  0.16957076  1
  H+  H43  1  0.77051682  0.63247859  0.82711537  1
  H+  H44  1  0.49013783  0.63266564  0.50831783  1
  H+  H45  1  0.88684883  0.59462932  0.50576811  1
  H+  H46  1  0.52019870  0.13807844  0.34477977  1
  H+  H47  1  0.35401254  0.15487153  0.47693025  1
  H+  H48  1  0.63150361  0.52663526  0.99842509  1
  H+  H49  1  0.15074719  0.41581486  0.02068264  1
  H+  H50  1  0.63706953  0.10615510  0.49496462  1
  H+  H51  1  0.66088687  0.08363470  0.26492354  1
  H+  H52  1  0.12438840  0.00160769  0.99456226  1
  H+  H53  1  0.85478410  0.73627144  0.01271000  1
  H+  H54  1  0.23370963  0.37308258  0.00173698  1
  H+  H55  1  0.89277794  0.86549644  0.33619806  1
  H+  H56  1  0.65577371  0.80502055  0.14345709  1
  H+  H57  1  1.04727573  0.90161516  0.49138252  1
  H+  H58  1  0.87632963  0.90888945  0.49512040  1
  H+  H59  1  0.67107647  0.88570737  0.66391611  1
  H+  H60  1  0.12514658  0.51877947  0.17557679  1
  H+  H61  1  0.11684403  0.37951459  0.82463476  1
  H+  H62  1  0.87075356  0.30289506  1.01051234  1
  H+  H63  1  1.06995866  0.88527928  0.73179974  1
  H+  H64  1  0.60550143  0.73078974  0.82300670  1
  H+  H65  1  0.22390825  0.95877616  0.61785922  1
  H+  H66  1  0.73384149  0.11705899  0.69563469  1
  H+  H67  1  0.47644931  0.10971490  0.67489329  1
  H+  H68  1  0.15603953  0.12401686  0.33664598  1
  H+  H69  1  0.73425996  0.10747265  0.49829871  1
  H+  H70  1  0.10947373  0.87653557  0.66851171  1
  H+  H71  1  0.36991328  0.14559656  0.83069905  1
  H+  H72  1  0.86370275  0.39466622  0.16028775  1
  H+  H73  1  0.37374114  0.37548378  0.32305884  1
  H+  H74  1  0.64843802  0.61316150  0.32354624  1
  H+  H75  1  0.10252573  0.07114263  -0.02911575  1
  H+  H76  1  -0.03143253  0.33589299  0.80759797  1
  H+  H77  1  0.89405815  0.76425596  0.83749937  1
  H+  H78  1  0.85652282  0.72158251  0.66641317  1
  H+  H79  1  0.27609081  0.88802786  0.16565172  1
  H+  H80  1  0.46256789  0.36345514  -0.00032755  1
  H+  H81  1  0.73961488  0.87351312  0.50879840  1
  H+  H82  1  0.11988970  0.48039536  0.67422940  1
  H+  H83  1  0.60661769  0.38181683  0.50214231  1
  H+  H84  1  0.38112182  0.62480001  0.18966863  1
  H+  H85  1  -0.01860963  0.60659307  0.50765613  1
  H+  H86  1  0.78369648  0.89302333  0.33625831  1
  H+  H87  1  0.10112018  0.43669567  0.11064224  1
  H+  H88  1  0.10572968  0.38905705  0.34568031  1
  H+  H89  1  0.37163756  0.27702457  1.00328786  1
  H+  H90  1  0.35549416  0.47824619  0.17343147  1
  H+  H91  1  0.41507099  0.37785899  0.84577870  1
  H+  H92  1  0.85321358  0.62128025  0.82257774  1
  H+  H93  1  0.51170103  0.65721877  0.32404051  1
  H+  H94  1  0.13718395  0.22806716  0.50682840  1
  H+  H95  1  0.49719717  0.62198489  0.66755186  1
  H+  H96  1  0.58718426  0.67807726  0.43421054  1
  H+  H97  1  0.60728241  0.53281948  0.85487994  1
  H+  H98  1  0.87714937  0.73520148  0.16487442  1
  H+  H99  1  0.50606500  0.63135940  0.17276777  1
  H+  H100  1  0.40358767  0.32325973  0.57792932  1
  H+  H101  1  0.60451878  0.23003827  0.68866285  1
  H+  H102  1  0.88808407  0.87826216  0.81642221  1
  H+  H103  1  0.23388041  0.11690640  0.65987404  1
  H+  H104  1  0.22422522  0.85496876  0.84523203  1
  H+  H105  1  0.62620909  0.24433501  0.84614834  1
  H+  H106  1  0.08093931  0.91166557  0.10851304  1
  H+  H107  1  0.39250201  0.12385520  0.32847369  1
  H+  H108  1  0.63040593  0.35786245  0.16470119  1
  H+  H109  1  1.03136812  0.89061347  0.32510677  1
  H+  H110  1  0.36504149  0.12345068  0.67692999  1
  H+  H111  1  0.38735743  0.52279608  0.84755480  1
  H+  H112  1  0.83944964  0.68215362  0.50467225  1
  H+  H113  1  0.12465870  0.64839037  0.49590341  1
  H+  H114  1  0.63979989  0.82862808  0.90108706  1
  H+  H115  1  0.09084128  0.92184016  0.26832941  1
  H+  H116  1  0.13623310  0.98447806  0.49311615  1
  H+  H117  1  0.90449855  0.57216116  0.89234296  1
  H+  H118  1  0.88438068  0.61200647  0.65981059  1
  H+  H119  1  0.98678837  0.85284247  0.83890957  1
  H+  H120  1  0.51095560  0.85436909  0.33746451  1
  H+  H121  1  0.17625863  0.07422546  0.89056893  1
  H+  H122  1  0.98707000  0.12856372  0.51048775  1
  H+  H123  1  0.36169234  0.87481162  0.67617665  1
  H+  H124  1  0.28428160  0.38777988  0.84438064  1
  H+  H125  1  1.03783596  0.13818394  0.82578664  1
  H+  H126  1  0.64154452  0.26838522  0.50495990  1
  H+  H127  1  0.76634721  0.36498612  0.82594641  1
  H+  H128  1  0.53618462  0.12084787  0.50106777  1
  H+  H129  1  0.37728907  0.36283114  0.17117276  1
  H+  H130  1  0.12726398  0.13865117  0.82417644  1
  H+  H131  1  0.61529784  0.63817636  0.49023907  1
  H+  H132  1  0.66149817  0.05753932  0.85587775  1
  H+  H133  1  0.63676854  0.12176278  0.17316856  1
  H+  H134  1  0.36811725  0.98229478  0.33984663  1
  H+  H135  1  0.91362405  0.33052750  0.57012726  1
  H+  H136  1  -0.03323670  0.36108322  0.32673355  1
  H+  H137  1  0.60067234  0.62127138  0.67263179  1
  H+  H138  1  0.63547305  0.28361326  0.99566538  1
  H+  H139  1  0.87329564  0.27513136  0.32782495  1
  H+  H140  1  0.10559185  0.62658112  0.82619073  1
  H+  H141  1  0.62600789  0.91622202  0.82529346  1
  H+  H142  1  0.87154941  0.35066052  0.51153378  1
  H+  H143  1  0.13864734  0.61612974  0.66707440  1
  H+  H144  1  0.22629304  0.12287479  0.50400860  1
  H+  H145  1  0.27452033  0.38633062  0.34090072  1
  H+  H146  1  0.15227447  0.03387228  0.32310447  1
  H+  H147  1  0.47126763  0.11818684  0.17341163  1
  H+  H148  1  0.34268344  0.19330792  0.39201840  1
  H+  H149  1  0.14745014  0.12192752  0.65750224  1
  H+  H150  1  0.89014218  0.28615764  0.17045817  1
  H+  H151  1  0.26453010  0.13512340  0.16498403  1
  H+  H152  1  0.23603882  0.86370038  0.32916816  1
  H+  H153  1  0.61030313  0.46935629  0.66718737  1
  H+  H154  1  0.11741992  0.72855140  0.34021810  1
  H+  H155  1  1.02901235  0.14623656  0.67600316  1
  H+  H156  1  0.21332184  0.51948782  0.54459524  1
  H+  H157  1  0.21901118  0.85782842  1.00028283  1
  H+  H158  1  0.25334633  0.13130901  0.00930657  1
  H+  H159  1  0.97742506  0.61514908  0.32905199  1
  H+  H160  1  0.27723975  0.64991369  0.16262161  1
  H+  H161  1  0.36057199  0.11159961  0.99877167  1
  H+  H162  1  0.86583808  0.99398597  -0.01446010  1
  H+  H163  1  0.88637960  0.61216341  0.33219726  1
  H+  H164  1  0.63434624  0.12822932  0.86691853  1
  H+  H165  1  0.62618217  0.01862904  0.32136673  1
  H+  H166  1  0.98126612  0.86064982  0.18150981  1
  H+  H167  1  0.14385095  0.36849952  0.65831103  1
  H+  H168  1  0.67818885  0.12441732  1.01217025  1
  H+  H169  1  0.86733831  -0.01587633  0.34064903  1
  H+  H170  1  0.15008879  0.54601381  0.98504067  1
  H+  H171  1  0.36414115  0.63581146  0.83761060  1
  H+  H172  1  0.13875906  0.85879920  0.17738701  1
  H+  H173  1  0.89704824  0.04013851  0.50805236  1
  H+  H174  1  0.60000457  0.69938181  0.18922120  1
  H+  H175  1  0.73013713  0.35961125  0.65729097  1
  H+  H176  1  0.86478452  0.72317074  0.35002171  1
  H+  H177  1  0.33777020  0.67188751  0.10403317  1
  H+  H178  1  0.51570002  0.37888111  0.15637293  1
  H+  H179  1  0.37022885  0.89354186  0.33741534  1
  H+  H180  1  0.88009463  0.52255446  0.17247758  1
  H+  H181  1  0.54801295  0.92929825  0.81376666  1
  H+  H182  1  0.39082412  0.61904057  0.66419799  1
  H+  H183  1  0.89214700  0.86010275  0.18618097  1
  H+  H184  1  0.89608659  0.28682227  0.66457792  1
  H+  H185  1  0.14686980  0.86360926  0.32192057  1
  H+  H186  1  0.54204614  0.74130813  0.36240996  1
  H+  H187  1  0.86825830  0.39030297  0.34220272  1
  H+  H188  1  0.38642960  0.28199347  0.31953269  1
  H+  H189  1  0.87237866  0.63735351  0.16220966  1
  H+  H190  1  0.23749524  0.63034537  0.97971675  1
  H+  H191  1  0.85730953  0.22498409  0.49784406  1
  H+  H192  1  0.12786735  0.61289653  0.32591868  1
  H+  H193  1  1.02409323  0.39886826  0.16355596  1
  H+  H194  1  0.71472604  0.86186521  -0.01866479  1
  H+  H195  1  0.53191653  0.40087681  0.32478708  1
  H+  H196  1  0.61369226  0.64660338  0.82927002  1
  H+  H197  1  0.64842764  0.78211669  0.31153547  1
  H+  H198  1  0.91518455  0.81273866  0.48981057  1
  H+  H199  1  0.86377554  0.65381470  0.00709668  1
  H+  H200  1  0.37095664  0.21560684  0.67387944  1
  H+  H201  1  0.26526786  0.63253240  0.32668730  1
  H+  H202  1  0.88864018  0.03857909  0.17873312  1
  H+  H203  1  0.13957765  0.29021174  1.00373664  1
  H+  H204  1  0.39655689  0.78521635  0.16920804  1
  H+  H205  1  0.72170435  0.36139817  0.16549763  1
  H+  H206  1  0.47545283  0.85188959  0.50489601  1
  H+  H207  1  0.12271825  0.36699466  0.48593508  1
  H+  H208  1  0.79046543  0.90047050  0.16036869  1
  H+  H209  1  0.63587058  0.02072005  0.62813461  1
  H+  H210  1  0.98861038  0.12208286  0.99263704  1
  H+  H211  1  0.12883999  0.11493980  0.17688984  1
  H+  H212  1  0.35471970  0.97992223  0.83035686  1
  H+  H213  1  0.13733991  0.17171106  0.02696646  1
  H+  H214  1  0.53739706  0.38388520  0.82187763  1
  H+  H215  1  0.87378173  0.50356641  0.83665951  1
  H+  H216  1  0.40557064  0.50604503  0.48388285  1
  H+  H217  1  -0.02059286  0.64078007  -0.00807996  1
  H+  H218  1  0.38762693  0.36594275  0.51775116  1
  H+  H219  1  0.62815012  0.77260656  0.99694598  1
  H+  H220  1  0.86250395  0.15164319  0.16057471  1
  H+  H221  1  0.63971902  0.00965461  0.49373663  1
  H+  H222  1  0.86370574  0.11938841  0.33010495  1
  H+  H223  1  0.38530296  0.86555666  1.00510460  1
  H+  H224  1  0.86658212  0.14086128  0.49363700  1
  H+  H225  1  0.23157908  0.85903014  0.49883326  1
  H+  H226  1  0.10418150  0.72298874  1.01419846  1
  H+  H227  1  0.62329670  0.99174351  0.16173500  1
  H+  H228  1  0.60880738  0.39425474  1.00234082  1
  H+  H229  1  0.61209337  0.64103014  0.01466477  1
  H+  H230  1  0.48607980  0.87489372  0.16964493  1
  H+  H231  1  0.39429978  0.01108818  0.67086384  1
  H+  H232  1  0.37349544  0.96745602  0.49834909  1
  H+  H233  1  0.38352411  0.02872714  0.17615011  1
  H+  H234  1  0.14069769  0.28024437  0.34023227  1
  H+  H235  1  0.60853459  0.86910966  0.33184929  1
  H+  H236  1  0.22388385  0.36918436  0.18418288  1
  H+  H237  1  0.11149027  0.97712578  0.16498518  1
  H+  H238  1  0.37854514  0.77156946  0.31659077  1
  H+  H239  1  0.51521732  0.37517795  0.51075629  1
  H+  H240  1  0.11990436  0.96791149  0.82191632  1
  H+  H241  1  0.61606217  0.39169539  0.32635570  1
  H+  H242  1  0.38511481  0.76604547  0.66277734  1
  H+  H243  1  0.12281163  0.61648654  0.17596441  1
  H+  H244  1  0.72959676  0.12878008  0.17274802  1
  H+  H245  1  0.35739514  0.24242018  0.49393311  1
  H+  H246  1  0.10959885  0.46462380  0.82152911  1
  H+  H247  1  0.14552028  0.86697726  0.49771797  1
  H+  H248  1  0.62112612  0.88463683  0.49626610  1
  H+  H249  1  0.31236559  0.16192392  0.06988446  1
  H+  H250  1  0.34394195  0.97318743  0.01014318  1
  H+  H251  1  0.11030632  0.72329278  0.16932139  1
  H+  H252  1  0.65237832  0.78082384  0.51116265  1
  H+  H253  1  0.11161295  0.23524971  0.17214286  1
  H+  H254  1  0.36910813  0.73374219  0.01671158  1
  H+  H255  1  0.41704919  0.10414067  0.52750420  1
  H+  H256  1  0.47112001  0.10937950  0.84816070  1
  H+  H257  1  0.36293067  0.48220111  1.01648183  1
  H+  H258  1  0.56059855  0.10699528  -0.02972549  1
  H+  H259  1  0.24445350  0.36353484  0.51290987  1
  H+  H260  1  0.21818172  0.60446165  0.82913396  1
  H+  H261  1  0.41050956  0.28807276  0.83878385  1
  H+  H262  1  0.64127670  0.45403959  0.81657891  1
  H+  H263  1  0.35553552  0.13754203  0.16336000  1
  H+  H264  1  0.37670694  0.61713940  0.28658039  1
  H+  H265  1  0.01796878  0.63339129  0.17082903  1
  H+  H266  1  0.47438813  0.61349784  0.84391722  1
  H+  H267  1  1.01648272  0.87705933  1.01197690  1
  H+  H268  1  0.87461390  0.23559830  0.75036057  1
  H+  H269  1  0.71105472  0.87028570  0.85229469  1
  H+  H270  1  0.62877979  0.95372568  0.72998967  1
  H+  H271  1  -0.00392240  0.40189465  0.49137593  1
  H+  H272  1  0.61636961  0.50879779  0.51056784  1
  H+  H273  1  0.86720290  0.39118999  0.67240645  1
  H+  H274  1  0.86287637  0.47762504  0.67495464  1
  H+  H275  1  0.02752690  0.63371434  0.67423840  1
  H+  H276  1  0.11835434  0.73284260  0.49382255  1
  H+  H277  1  0.65278023  0.88881993  0.16157828  1
  H+  H278  1  0.36875480  0.89559617  0.16246320  1
  H+  H279  1  0.76820022  0.89023887  0.65673982  1
  H+  H280  1  0.76715333  0.38030490  0.49187109  1
  H+  H281  1  0.04784940  0.12642168  0.36250537  1
  H+  H282  1  0.88487334  0.87062151  -0.01598909  1
  H+  H283  1  0.23914643  0.11538553  0.83376034  1
  H+  H284  1  0.91613942  0.83062776  0.93172098  1
  H+  H285  1  0.42858288  0.83884624  0.78070482  1
  H+  H286  1  0.37465173  0.27081127  0.17131568  1
  H+  H287  1  0.90696587  0.02054222  0.83441293  1
  H+  H288  1  0.41976719  0.83965054  0.26241933  1
  H+  H289  1  0.39868452  0.08206291  0.90187218  1
  H+  H290  1  0.83992835  0.93108567  0.43590339  1
  H+  H291  1  0.55981619  0.09851908  0.80294461  1
  H+  H292  1  0.56610998  0.18072958  0.75279022  1
  H+  H293  1  0.88425481  -0.00146944  0.66398052  1
  H+  H294  1  0.82353609  0.40521124  0.76577735  1
  H+  H295  1  0.41834203  0.09051741  0.26945056  1
  H+  H296  1  0.82725573  0.66407563  0.72749298  1
  H+  H297  1  0.13633329  0.37157456  0.18577541  1
  H+  H298  1  0.17483896  0.08913065  0.56810607  1
  H+  H299  1  0.08314445  0.18005355  0.07973879  1
  H+  H300  1  0.17116609  0.33521140  0.90530799  1
  H+  H301  1  0.33329270  0.65939636  0.38035226  1
  H+  H302  1  0.77619538  0.63326287  0.34228214  1
  H+  H303  1  0.63866776  0.99251788  0.00973500  1
  H+  H304  1  0.16432049  0.33752179  0.27958583  1
  H+  H305  1  0.11588588  0.13218506  0.50243044  1
  H+  H306  1  0.06595923  0.66095863  0.07138764  1
  H+  H307  1  0.70758800  0.59212609  0.50528564  1
  H+  H308  1  0.87355325  0.44324960  -0.00091429  1
  H+  H309  1  0.92848852  0.84317245  0.56040374  1
  H+  H310  1  0.57441566  0.15936633  0.09964052  1
  H+  H311  1  0.10515695  0.17634067  0.41852846  1
  H+  H312  1  0.82037535  0.16964629  0.40220071  1
  H+  H313  1  0.09067681  0.17231958  0.73454836  1
  H+  H314  1  0.72123526  0.61673592  1.00095848  1
  H+  H315  1  0.64394765  0.52118639  0.32234383  1
  H+  H316  1  0.58443633  0.15469805  0.43498564  1
  H+  H317  1  0.08827639  0.41229655  0.72899970  1
  H+  H318  1  0.67140386  0.32668663  0.56478215  1
  H+  H319  1  0.83793862  0.42037520  0.40899184  1
  H+  H320  1  0.34309328  0.17282392  0.76917165  1
  H+  H321  1  0.33660274  0.40743399  0.78409134  1
  H+  H322  1  0.20866652  0.50414546  0.05307795  1
  H+  H323  1  0.58303977  0.89755339  0.43362416  1
  H+  H324  1  0.65852799  0.32741600  0.26159943  1
  H+  H325  1  0.33738151  0.66311204  0.74064020  1
  H+  H326  1  0.81356547  0.93514249  0.03953777  1
  H+  H327  1  0.06553914  0.42550974  0.39591645  1
  H+  H328  1  0.32583417  0.91856877  0.07137949  1
  H+  H329  1  0.20568807  0.32629025  0.57772769  1
  H+  H330  1  0.69245026  0.84794255  0.59956411  1
  H+  H331  1  0.62989317  0.33439856  0.83675797  1
  H+  H332  1  0.01831873  0.48981309  0.46083232  1
  H+  H333  1  0.91970946  0.10588238  0.60278159  1
  H+  H334  1  0.15594982  0.58430080  0.23877817  1
  H+  H335  1  0.91758963  0.57924457  0.60387151  1
  H+  H336  1  0.68485566  0.84246593  0.25251537  1
  H+  H337  1  0.65513133  0.57799023  0.59997467  1
  H+  H338  1  0.57857592  0.41766764  0.06419412  1
  H+  H339  1  0.40997745  0.82159577  0.60245679  1
  H+  H340  1  0.83342001  0.41858910  0.09928950  1
  H+  H341  1  0.63258394  0.27739176  0.32448337  1
  H+  H342  1  0.17561124  0.58692557  0.60978385  1
  H+  H343  1  0.16129616  0.82585567  0.93967589  1
  H+  H344  1  0.34302305  0.91887836  0.43354116  1
  H+  H345  1  0.18848761  0.86813500  0.58687219  1
  H+  H346  1  0.90763532  0.13366487  0.98892337  1
  H+  H347  1  0.91460530  0.82582034  0.27866830  1
  H+  H348  1  0.82536154  0.64579666  0.43625839  1
  H+  H349  1  0.87357502  0.48855882  0.34522227  1
  H+  H350  1  0.08508025  0.66339091  0.73334291  1
  H+  H351  1  0.43636586  0.06553662  0.58472897  1
  H+  H352  1  0.25730944  0.35245489  0.68958317  1
  H+  H353  1  0.08612361  0.66876962  0.39965901  1
  H+  H354  1  0.41636911  0.58425653  0.94021559  1
  H+  H355  1  0.36346543  0.72442270  0.83659190  1
  H+  H356  1  0.66362019  0.32678871  0.93067917  1
  H+  H357  1  0.57941323  0.66971766  0.07333920  1
  H+  H358  1  0.87599176  0.93511271  0.11983552  1
  H+  H359  1  0.84276428  0.67536375  0.09851008  1
  H+  H360  1  0.13610440  0.27502870  0.66211957  1
  H+  H361  1  0.28308919  0.89419186  0.67062752  1
  H+  H362  1  0.58709782  0.40562859  0.72388998  1
  H+  H363  1  0.35417801  0.42855036  0.39053896  1
  H+  H364  1  0.86722133  0.93089274  0.71813055  1
  H+  H365  1  0.80416971  0.15828331  0.00582992  1
  H+  H366  1  0.59562994  0.93412600  0.10054206  1
  H+  H367  1  0.69438511  0.10303654  0.94291344  1
  H+  H368  1  0.17170450  0.82830074  0.23542600  1
  H+  H369  1  0.45984705  0.46928297  0.45368938  1
  H+  H370  1  0.90778814  0.57931086  0.23482208  1
  H+  H371  1  0.16398905  0.57807900  0.88880584  1
  H+  H372  1  0.42498258  0.59765193  0.60026497  1
  H+  H373  1  0.57205361  0.65537700  0.73354013  1
  H+  H374  1  0.32864309  0.42544520  0.11009337  1
  H+  H375  1  0.66397164  0.57253745  0.22836556  1
  H+  H376  1  0.90581899  0.09892939  0.23550584  1
  H+  H377  1  0.32762611  0.91716716  0.77187001  1
  H+  H378  1  0.16495778  0.08979737  0.23513020  1
  H+  H379  1  0.35964266  0.39055086  0.01987920  1
  H+  H380  1  0.93042585  0.08419461  0.89068313  1
  H+  H381  1  0.84299076  0.18792430  0.10032912  1
  H+  H382  1  0.97503975  0.84375999  0.65338194  1
  H+  H383  1  0.66240283  0.59120418  0.90904656  1
  O2-  O384  1  0.08067475  0.17545664  0.15517167  1
  O2-  O385  1  0.09349601  0.17139004  0.48841595  1
  O2-  O386  1  0.09967787  0.17265022  0.81171403  1
  O2-  O387  1  0.08812243  0.43331812  0.15587935  1
  O2-  O388  1  0.04286535  0.45296667  0.46817480  1
  O2-  O389  1  0.08454393  0.40480631  0.80520270  1
  O2-  O390  1  0.07910600  0.66078083  0.15673758  1
  O2-  O391  1  0.08837728  0.66993028  0.47985188  1
  O2-  O392  1  0.07838622  0.66165706  0.81456634  1
  O2-  O393  1  0.08243957  0.91448106  0.15417130  1
  O2-  O394  1  0.10663696  0.92453479  0.47684584  1
  O2-  O395  1  0.08555517  0.90546397  0.81219161  1
  O2-  O396  1  0.32413241  0.16699197  0.14825919  1
  O2-  O397  1  0.32597883  0.18782546  0.46774029  1
  O2-  O398  1  0.34265610  0.17900218  0.81434431  1
  O2-  O399  1  0.32603177  0.41960274  0.15606607  1
  O2-  O400  1  0.40050761  0.45431184  0.46185669  1
  O2-  O401  1  0.34468878  0.42074297  0.82827870  1
  O2-  O402  1  0.33776024  0.67517256  0.15056747  1
  O2-  O403  1  0.34034193  0.66233872  0.46198599  1
  O2-  O404  1  0.33430072  0.66561887  0.82011063  1
  O2-  O405  1  0.33569130  0.92437706  0.15008651  1
  O2-  O406  1  0.33952130  0.91025444  0.47871029  1
  O2-  O407  1  0.32813263  0.91813870  0.81737750  1
  O2-  O408  1  0.57699635  0.16463271  0.14402466  1
  O2-  O409  1  0.59376042  0.15209952  0.48045409  1
  O2-  O410  1  0.56395006  0.14196762  0.83151960  1
  O2-  O411  1  0.57563354  0.40704437  0.14110942  1
  O2-  O412  1  0.57365624  0.41130417  0.49385704  1
  O2-  O413  1  0.59566228  0.39927324  0.80136684  1
  O2-  O414  1  0.56671946  0.65977725  0.15669188  1
  O2-  O415  1  0.59302266  0.67793210  0.47890873  1
  O2-  O416  1  0.57968285  0.66995314  0.80953010  1
  O2-  O417  1  0.59603194  0.93102240  0.14643803  1
  O2-  O418  1  0.59005737  0.91244675  0.47801561  1
  O2-  O419  1  0.61112181  0.95693548  0.80609156  1
  O2-  O420  1  0.83402883  0.18371316  0.14556223  1
  O2-  O421  1  0.82945455  0.16527412  0.47980682  1
  O2-  O422  1  0.85342992  0.19960516  0.70999399  1
  O2-  O423  1  0.83272083  0.42402925  0.14449138  1
  O2-  O424  1  0.82915637  0.40934237  0.47672462  1
  O2-  O425  1  0.82631222  0.40119910  0.81109988  1
  O2-  O426  1  0.84861676  0.67519718  0.14560110  1
  O2-  O427  1  0.81791607  0.62957073  0.48102368  1
  O2-  O428  1  0.82889626  0.65868299  0.80987683  1
  O2-  O429  1  0.85517914  0.92858292  0.16157579  1
  O2-  O430  1  0.84052726  0.93413342  0.48129369  1
  O2-  O431  1  0.86053100  0.90906444  0.79562144  1
  O2-  O432  1  0.15803409  0.08263979  0.19001893  1
  O2-  O433  1  0.16869368  0.08483967  0.52171877  1
  O2-  O434  1  0.17673362  0.07864348  0.84586216  1
  O2-  O435  1  0.16379710  0.33910869  0.20107430  1
  O2-  O436  1  0.22361727  0.31238429  0.53801635  1
  O2-  O437  1  0.17696334  0.33475456  0.86026167  1
  O2-  O438  1  0.15642368  0.58489975  0.19131155  1
  O2-  O439  1  0.19152966  0.55577009  0.52883159  1
  O2-  O440  1  0.15763467  0.57178204  0.84301509  1
  O2-  O441  1  0.16761157  0.82618143  0.18974293  1
  O2-  O442  1  0.17124516  0.83134206  0.51434241  1
  O2-  O443  1  0.16390865  0.82427694  0.86119596  1
  O2-  O444  1  0.41197365  0.08984733  0.19051200  1
  O2-  O445  1  0.44054604  0.06723950  0.53734484  1
  O2-  O446  1  0.40545626  0.08353487  0.85710015  1
  O2-  O447  1  0.40705671  0.33185087  0.18645204  1
  O2-  O448  1  0.40613184  0.32570055  0.53183676  1
  O2-  O449  1  0.44979688  0.34927555  0.85005733  1
  O2-  O450  1  0.40781939  0.58963358  0.20459336  1
  O2-  O451  1  0.42866615  0.59757846  0.52132970  1
  O2-  O452  1  0.41598293  0.58431812  0.86208650  1
  O2-  O453  1  0.42557511  0.84563571  0.18444160  1
  O2-  O454  1  0.41386917  0.81797398  0.51576179  1
  O2-  O455  1  0.43681801  0.85544027  0.82352049  1
  O2-  O456  1  0.66966267  0.09433680  0.18903743  1
  O2-  O457  1  0.66955719  0.07264363  0.50882005  1
  O2-  O458  1  0.67590969  0.10846448  0.88119910  1
  O2-  O459  1  0.66060704  0.32646470  0.17843397  1
  O2-  O460  1  0.67044928  0.32886562  0.51868028  1
  O2-  O461  1  0.65942428  0.30737914  0.85792579  1
  O2-  O462  1  0.65384404  0.56501254  0.18382262  1
  O2-  O463  1  0.64913311  0.57323191  0.52074956  1
  O2-  O464  1  0.65796261  0.58858769  0.86293036  1
  O2-  O465  1  0.68457369  0.85553238  0.16977014  1
  O2-  O466  1  0.68066965  0.84078453  0.52766957  1
  O2-  O467  1  0.64872930  0.83570161  0.85561555  1
  O2-  O468  1  0.91273185  0.09964634  0.19038533  1
  O2-  O469  1  0.92513687  0.10081159  0.52289003  1
  O2-  O470  1  0.93652060  0.08140616  0.84624978  1
  O2-  O471  1  0.92170291  0.34704618  0.18606508  1
  O2-  O472  1  0.90800627  0.32584961  0.52386623  1
  O2-  O473  1  0.90569243  0.29620267  0.80516659  1
  O2-  O474  1  0.91060928  0.58342809  0.18940590  1
  O2-  O475  1  0.92115715  0.56926789  0.52185264  1
  O2-  O476  1  0.90236419  0.56655275  0.84758812  1
  O2-  O477  1  0.92044346  0.82627394  0.19728995  1
  O2-  O478  1  0.93581795  0.86286688  0.51593425  1
  O2-  O479  1  0.92500425  0.82446144  0.85350794  1
  O2-  O480  1  0.18356060  0.09649741  0.31326589  1
  O2-  O481  1  0.17691750  0.09297964  0.63969947  1
  O2-  O482  1  0.15046827  0.06069832  0.97539214  1
  O2-  O483  1  0.16709668  0.34034503  0.32522727  1
  O2-  O484  1  0.17406592  0.33586971  0.64770922  1
  O2-  O485  1  0.17318639  0.34825383  0.98557049  1
  O2-  O486  1  0.15510344  0.58094487  0.30699652  1
  O2-  O487  1  0.17292997  0.58658332  0.65448936  1
  O2-  O488  1  0.18009744  0.59875854  0.96078747  1
  O2-  O489  1  0.17566038  0.82970900  0.31292759  1
  O2-  O490  1  0.20280469  0.89847618  0.62738038  1
  O2-  O491  1  0.15810262  0.82748825  0.98521016  1
  O2-  O492  1  0.41859842  0.08899514  0.31502668  1
  O2-  O493  1  0.42059558  0.07018810  0.65225917  1
  O2-  O494  1  0.38738087  0.07741434  0.98351579  1
  O2-  O495  1  0.41026828  0.34266484  0.30211878  1
  O2-  O496  1  0.41352500  0.32034489  0.65060014  1
  O2-  O497  1  0.40027540  0.33871255  0.99290302  1
  O2-  O498  1  0.41947280  0.60098944  0.27138428  1
  O2-  O499  1  0.42504465  0.59355411  0.64574704  1
  O2-  O500  1  0.41517974  0.58506720  0.98582595  1
  O2-  O501  1  0.41582095  0.83424442  0.30789386  1
  O2-  O502  1  0.41035851  0.82569139  0.64726528  1
  O2-  O503  1  0.41679773  0.83508770  0.99452176  1
  O2-  O504  1  0.65726605  0.07963770  0.31084489  1
  O2-  O505  1  0.68052892  0.01869176  0.65266058  1
  O2-  O506  1  0.70669581  0.09829451  0.99016076  1
  O2-  O507  1  0.66041239  0.33517839  0.30625756  1
  O2-  O508  1  0.67041973  0.32579446  0.64033094  1
  O2-  O509  1  0.66905103  0.33949519  0.97628601  1
  O2-  O510  1  0.68057162  0.58597900  0.30946997  1
  O2-  O511  1  0.65585308  0.57819685  0.64560372  1
  O2-  O512  1  0.66182425  0.58870088  0.98437981  1
  O2-  O513  1  0.68626002  0.84222557  0.29756414  1
  O2-  O514  1  0.70217885  0.85549013  0.64573905  1
  O2-  O515  1  0.65138110  0.83006892  0.97637404  1
  O2-  O516  1  0.89948750  0.09446081  0.31338847  1
  O2-  O517  1  0.92038001  0.10001117  0.64799795  1
  O2-  O518  1  0.93056514  0.09630538  0.97426933  1
  O2-  O519  1  0.90566343  0.33594457  0.31283918  1
  O2-  O520  1  0.92473687  0.34365786  0.64283268  1
  O2-  O521  1  0.90507869  0.27721658  0.99597703  1
  O2-  O522  1  0.91584088  0.58103060  0.31574926  1
  O2-  O523  1  0.91621252  0.58165113  0.64888086  1
  O2-  O524  1  0.92999725  0.63617688  0.96482103  1
  O2-  O525  1  0.91977449  0.83078810  0.32376202  1
  O2-  O526  1  0.91663205  0.82340790  0.63197409  1
  O2-  O527  1  0.91183376  0.83485322  0.97707071  1
  O2-  O528  1  0.08950464  0.18177081  0.03390296  1
  O2-  O529  1  0.10534944  0.17352617  0.37140462  1
  O2-  O530  1  0.09010612  0.17473859  0.68880836  1
  O2-  O531  1  0.14839523  0.46277856  0.04475468  1
  O2-  O532  1  0.07118315  0.41826709  0.35145989  1
  O2-  O533  1  0.08930990  0.41725801  0.68325771  1
  O2-  O534  1  0.06195321  0.66316105  0.02690266  1
  O2-  O535  1  0.08304862  0.66706956  0.35425551  1
  O2-  O536  1  0.08788292  0.66108078  0.68824416  1
  O2-  O537  1  0.07586818  0.90569885  0.02883686  1
  O2-  O538  1  0.09344060  0.92228550  0.31274970  1
  O2-  O539  1  0.05681151  0.86895831  0.68844547  1
  O2-  O540  1  0.31320102  0.16390147  0.02438328  1
  O2-  O541  1  0.34747242  0.18863110  0.34690209  1
  O2-  O542  1  0.33699350  0.15632378  0.69095035  1
  O2-  O543  1  0.33013894  0.42354922  0.03486426  1
  O2-  O544  1  0.33841573  0.41372765  0.34671591  1
  O2-  O545  1  0.30075101  0.34670935  0.71554182  1
  O2-  O546  1  0.33691288  0.67160572  0.03051575  1
  O2-  O547  1  0.32795228  0.66170396  0.33526122  1
  O2-  O548  1  0.33711844  0.66102863  0.69516765  1
  O2-  O549  1  0.32194982  0.91376920  0.02606076  1
  O2-  O550  1  0.33903325  0.92162137  0.35493499  1
  O2-  O551  1  0.33633529  0.90937267  0.69376756  1
  O2-  O552  1  0.55100390  0.10300069  0.01436107  1
  O2-  O553  1  0.58014865  0.16560373  0.36147312  1
  O2-  O554  1  0.55771926  0.17823126  0.70818563  1
  O2-  O555  1  0.57901132  0.42374235  0.01864819  1
  O2-  O556  1  0.59129094  0.42884873  0.33947188  1
  O2-  O557  1  0.58178381  0.40741016  0.67871127  1
  O2-  O558  1  0.58307000  0.67345155  0.02845824  1
  O2-  O559  1  0.55773034  0.69729348  0.35216924  1
  O2-  O560  1  0.56831614  0.65049458  0.68785946  1
  O2-  O561  1  0.59599471  0.93401659  0.02520249  1
  O2-  O562  1  0.56277349  0.86188776  0.36036959  1
  O2-  O563  1  0.62843656  0.93713997  0.68562229  1
  O2-  O564  1  0.86445804  0.19126472  0.02471897  1
  O2-  O565  1  0.81854199  0.17118951  0.35659779  1
  O2-  O566  1  0.76230906  0.17669726  0.71119758  1
  O2-  O567  1  0.83084441  0.39367530  0.02188719  1
  O2-  O568  1  0.84513067  0.42675448  0.36174557  1
  O2-  O569  1  0.83175159  0.41582849  0.68761340  1
  O2-  O570  1  0.82973480  0.67641447  0.02940162  1
  O2-  O571  1  0.83516422  0.66117104  0.36180702  1
  O2-  O572  1  0.82408101  0.66137378  0.68225939  1
  O2-  O573  1  0.82789007  0.93113889  -0.00259455  1
  O2-  O574  1  0.84170702  0.92436198  0.35569116  1
  O2-  O575  1  0.85946880  0.93523347  0.67349986  1
