# generated using pymatgen
data_H2O
_symmetry_space_group_name_H-M   'P 1'
_cell_length_a   17.99281544
_cell_length_b   17.99705412
_cell_length_c   21.99886653
_cell_angle_alpha   90.01675774
_cell_angle_beta   89.97910265
_cell_angle_gamma   120.00459697
_symmetry_Int_Tables_number   1
_chemical_formula_structural   H2O
_chemical_formula_sum   'H384 O192'
_cell_volume   6168.95117152
_cell_formula_units_Z   192
loop_
 _symmetry_equiv_pos_site_id
 _symmetry_equiv_pos_as_xyz
  1  'x, y, z'
loop_
 _atom_type_symbol
 _atom_type_oxidation_number
  H+  1.0
  O2-  -2.0
loop_
 _atom_site_type_symbol
 _atom_site_label
 _atom_site_symmetry_multiplicity
 _atom_site_fract_x
 _atom_site_fract_y
 _atom_site_fract_z
 _atom_site_occupancy
  H+  H0  1  0.47989395  0.88516016  0.32532617  1
  H+  H1  1  0.30919367  0.70221048  0.38176293  1
  H+  H2  1  0.61972365  0.98531263  0.01182731  1
  H+  H3  1  0.87347868  0.88499439  0.35298426  1
  H+  H4  1  0.18080434  0.35584111  -0.06289346  1
  H+  H5  1  0.52487559  0.65218100  0.15517326  1
  H+  H6  1  0.38658837  0.78518124  0.83750693  1
  H+  H7  1  0.89993769  0.82550651  0.91550743  1
  H+  H8  1  0.64770276  0.79193101  0.32100552  1
  H+  H9  1  0.91262150  0.49747227  0.18816791  1
  H+  H10  1  0.24074051  0.62175954  0.65832248  1
  H+  H11  1  0.11617259  0.10374357  0.18007338  1
  H+  H12  1  0.61442351  0.98682430  0.33833553  1
  H+  H13  1  0.86090013  0.41547326  0.09265226  1
  H+  H14  1  0.24243608  0.61957299  0.50088061  1
  H+  H15  1  0.75861534  0.64908845  0.15759915  1
  H+  H16  1  0.87744035  0.38511773  0.00507411  1
  H+  H17  1  0.11521327  0.50965334  0.99321419  1
  H+  H18  1  0.02072774  0.12702461  0.49783435  1
  H+  H19  1  0.03116077  0.15488904  0.01733271  1
  H+  H20  1  0.28510741  0.65361162  0.82708639  1
  H+  H21  1  0.38282607  0.38774068  0.50072145  1
  H+  H22  1  0.89268618  0.52692783  0.50446436  1
  H+  H23  1  0.64856871  0.37086317  0.02412570  1
  H+  H24  1  0.13453309  0.77661346  0.99601308  1
  H+  H25  1  0.37044719  0.67701829  0.43861316  1
  H+  H26  1  0.86679956  0.38650312  0.34535177  1
  H+  H27  1  0.91904467  0.82676343  0.27432109  1
  H+  H28  1  0.11036583  0.88089791  0.33791496  1
  H+  H29  1  0.61924914  0.22298461  0.84830188  1
  H+  H30  1  0.38574491  0.02351560  0.67424530  1
  H+  H31  1  0.11422323  0.11265474  0.50027243  1
  H+  H32  1  0.29233037  0.64393491  -0.00443384  1
  H+  H33  1  0.31510309  0.90692377  0.73129916  1
  H+  H34  1  0.39893239  0.37385195  0.99400192  1
  H+  H35  1  0.71306601  0.59463511  0.68726933  1
  H+  H36  1  0.16652217  0.73807912  0.68112735  1
  H+  H37  1  0.10303554  0.63588235  0.00840930  1
  H+  H38  1  0.90026489  0.61603684  0.66551783  1
  H+  H39  1  0.52285104  0.13646632  0.34085573  1
  H+  H40  1  0.13430207  0.60682760  0.16538080  1
  H+  H41  1  0.61197437  0.15858861  0.69746457  1
  H+  H42  1  0.72602511  0.87416305  0.51309673  1
  H+  H43  1  0.37624719  0.02586570  0.50092385  1
  H+  H44  1  0.41891589  0.32723371  0.55729989  1
  H+  H45  1  0.89478114  0.87299409  0.83305750  1
  H+  H46  1  0.88967360  0.36059829  0.50817683  1
  H+  H47  1  1.02118370  0.38024982  0.82383637  1
  H+  H48  1  0.39841614  0.62741074  0.84212278  1
  H+  H49  1  0.85305348  0.72155079  -0.00456798  1
  H+  H50  1  0.35647308  0.88615996  0.49522091  1
  H+  H51  1  0.11444310  0.13805397  0.67206270  1
  H+  H52  1  0.84921300  0.65486508  0.15574589  1
  H+  H53  1  1.03275683  0.64013835  0.49232965  1
  H+  H54  1  0.86863374  0.96934406  0.34476415  1
  H+  H55  1  0.66330281  0.84032258  0.22767815  1
  H+  H56  1  0.06536118  0.53211506  0.94600404  1
  H+  H57  1  0.62945772  0.01596607  0.68701341  1
  H+  H58  1  0.89169499  0.61510660  0.50399093  1
  H+  H59  1  0.09394004  0.67115821  0.40276024  1
  H+  H60  1  0.88856605  0.02713423  0.65708246  1
  H+  H61  1  0.89196858  0.02484686  0.84741062  1
  H+  H62  1  0.38576046  0.36919169  0.65456320  1
  H+  H63  1  0.12528593  0.10109674  0.33215089  1
  H+  H64  1  0.40164125  0.66489693  0.31903224  1
  H+  H65  1  0.64088091  0.11394615  0.85297316  1
  H+  H66  1  0.91303384  0.08289351  0.25515031  1
  H+  H67  1  0.14730228  0.27633289  0.66027492  1
  H+  H68  1  0.39617398  0.78223814  1.01136014  1
  H+  H69  1  0.39086822  0.27434637  0.31724447  1
  H+  H70  1  0.52822379  0.49579177  0.64647408  1
  H+  H71  1  0.37458296  0.63203371  0.00419407  1
  H+  H72  1  0.85457482  0.34528172  0.66595353  1
  H+  H73  1  0.08318943  0.91460332  0.10890647  1
  H+  H74  1  0.12252550  0.90096851  0.66318727  1
  H+  H75  1  0.91828817  1.04585986  0.00557834  1
  H+  H76  1  0.13894900  0.78339003  0.51189893  1
  H+  H77  1  0.13320370  0.64080786  0.67024940  1
  H+  H78  1  0.82453876  0.03373752  0.28807871  1
  H+  H79  1  0.89198740  0.76525530  0.33713914  1
  H+  H80  1  0.69395134  0.84842976  0.97804767  1
  H+  H81  1  0.12320310  0.47329607  0.67260622  1
  H+  H82  1  0.86276329  0.14682846  0.34385531  1
  H+  H83  1  0.37008577  0.48741429  0.82347985  1
  H+  H84  1  0.36618637  0.39703974  0.82124885  1
  H+  H85  1  0.89347549  0.52476268  0.99205144  1
  H+  H86  1  0.14229290  0.63727466  0.83178773  1
  H+  H87  1  1.02733664  0.88633218  0.17058787  1
  H+  H88  1  0.63766109  0.78566861  0.50986721  1
  H+  H89  1  0.61843868  0.90231997  0.49475988  1
  H+  H90  1  0.51797258  0.88679079  0.67708028  1
  H+  H91  1  0.88001938  0.98550221  0.16225003  1
  H+  H92  1  0.35858862  0.62784029  0.15720590  1
  H+  H93  1  0.14039811  0.38321250  0.84941613  1
  H+  H94  1  0.60746930  0.15431993  0.49073696  1
  H+  H95  1  0.59889601  0.21496716  0.15941182  1
  H+  H96  1  0.89136938  0.27320588  0.50635720  1
  H+  H97  1  0.13100961  1.01711847  0.51208195  1
  H+  H98  1  0.36130113  0.97602071  0.01552030  1
  H+  H99  1  0.13942057  0.86296307  0.17711682  1
  H+  H100  1  0.08056898  0.95440135  0.01189181  1
  H+  H101  1  0.85631968  0.47102271  0.68414400  1
  H+  H102  1  0.77805310  0.89356554  0.82743669  1
  H+  H103  1  0.61117275  0.22689522  0.34145365  1
  H+  H104  1  0.72643943  0.87162656  0.16992682  1
  H+  H105  1  0.27378749  0.88334441  0.16410919  1
  H+  H106  1  0.35896480  0.46781394  0.31243423  1
  H+  H107  1  0.23139518  0.38555031  0.84710883  1
  H+  H108  1  0.47971322  0.87471016  0.50539984  1
  H+  H109  1  0.77712631  0.64235954  0.34469444  1
  H+  H110  1  0.54508330  0.66531240  0.33826533  1
  H+  H111  1  0.53115617  0.65368393  0.49844065  1
  H+  H112  1  0.27674664  0.13776206  0.32960198  1
  H+  H113  1  1.02670794  0.63960929  0.34799363  1
  H+  H114  1  0.32684892  0.53939951  0.62872826  1
  H+  H115  1  0.60626685  0.88272202  0.67905747  1
  H+  H116  1  0.38083903  0.27710798  0.83148201  1
  H+  H117  1  0.64609836  0.27995730  1.02881060  1
  H+  H118  1  0.38853469  0.88210050  0.16919775  1
  H+  H119  1  0.21903304  0.86057386  0.83813667  1
  H+  H120  1  0.52847730  0.38608266  0.48460278  1
  H+  H121  1  0.48680930  0.10968416  0.99810518  1
  H+  H122  1  0.77704887  0.89195113  0.67474835  1
  H+  H123  1  0.38247218  0.28385520  0.17932987  1
  H+  H124  1  0.01881769  0.64169968  0.00985845  1
  H+  H125  1  0.40623938  0.11996258  0.00934667  1
  H+  H126  1  1.02479548  0.38670039  0.34024111  1
  H+  H127  1  0.36590709  0.13842147  0.32596049  1
  H+  H128  1  0.38734968  0.02320227  0.33240676  1
  H+  H129  1  0.10106193  0.21804387  0.34308073  1
  H+  H130  1  0.72789965  0.36140718  0.86194767  1
  H+  H131  1  0.63383670  0.62768438  0.17372496  1
  H+  H132  1  0.86448561  0.47486902  0.35022888  1
  H+  H133  1  0.88586357  0.27240466  0.33597370  1
  H+  H134  1  0.40976804  0.54994013  0.50458780  1
  H+  H135  1  0.98396752  0.86995849  0.83392603  1
  H+  H136  1  0.40571953  0.07645573  0.90843894  1
  H+  H137  1  0.02898158  0.39328374  0.49590690  1
  H+  H138  1  0.26921577  0.88925363  0.34396485  1
  H+  H139  1  0.95510325  0.60862473  0.82800555  1
  H+  H140  1  0.11189869  0.88625548  0.82310281  1
  H+  H141  1  0.40565307  0.19222450  0.80350880  1
  H+  H142  1  0.14021574  0.03012932  0.65855995  1
  H+  H143  1  0.14192841  0.37032730  0.50594458  1
  H+  H144  1  0.11037488  0.47381661  0.17108021  1
  H+  H145  1  0.62572348  0.65095721  0.34105337  1
  H+  H146  1  0.35573284  0.13874218  0.49058229  1
  H+  H147  1  0.73073618  0.61659697  -0.00496529  1
  H+  H148  1  0.61204085  0.89398703  0.16305729  1
  H+  H149  1  0.89961416  0.35196383  0.16744293  1
  H+  H150  1  -0.01180983  0.88266450  0.66032821  1
  H+  H151  1  0.89166535  0.87253396  0.18892691  1
  H+  H152  1  0.63068854  0.87055834  0.31790646  1
  H+  H153  1  0.64720338  0.03319351  0.17613014  1
  H+  H154  1  0.27689586  0.40112368  0.16690016  1
  H+  H155  1  0.97334753  0.86162497  0.50993874  1
  H+  H156  1  0.11452627  0.88551721  0.50130685  1
  H+  H157  1  0.86796950  0.13520352  0.83353356  1
  H+  H158  1  0.80859185  0.78687286  0.94411267  1
  H+  H159  1  0.91970381  0.13309231  0.15613575  1
  H+  H160  1  0.58990398  0.62172341  0.67316721  1
  H+  H161  1  0.13045557  0.39290580  0.01146427  1
  H+  H162  1  0.39276854  0.52441996  -0.00854536  1
  H+  H163  1  0.53115473  0.40259640  0.00012773  1
  H+  H164  1  0.83438247  0.16013082  -0.03906414  1
  H+  H165  1  0.90809286  0.57593304  0.60275873  1
  H+  H166  1  0.47053334  0.10672366  0.17558012  1
  H+  H167  1  0.38935674  0.26905393  0.49729063  1
  H+  H168  1  0.40643950  0.58074069  0.32152000  1
  H+  H169  1  0.41141286  0.29220034  0.99789295  1
  H+  H170  1  0.23631354  0.11229529  0.84170564  1
  H+  H171  1  0.35479170  0.88655582  0.82456004  1
  H+  H172  1  0.21952730  0.12999330  0.99542506  1
  H+  H173  1  0.88356757  0.88998597  1.00649143  1
  H+  H174  1  0.11348108  0.14753755  0.02572587  1
  H+  H175  1  0.27176900  0.14104342  0.16907859  1
  H+  H176  1  0.09663174  0.72545454  0.82096838  1
  H+  H177  1  0.36146557  0.76052311  0.32615136  1
  H+  H178  1  0.57324328  0.18220637  0.43544771  1
  H+  H179  1  0.47155613  0.87517969  0.83994357  1
  H+  H180  1  0.64148722  0.12068974  0.32941705  1
  H+  H181  1  0.73873423  0.36200478  0.32535241  1
  H+  H182  1  0.22060882  0.62090023  0.31391553  1
  H+  H183  1  0.88592342  0.86544639  0.51194485  1
  H+  H184  1  0.80697664  0.09937678  0.47780888  1
  H+  H185  1  0.48921661  0.88614549  0.17161230  1
  H+  H186  1  0.62954297  0.52425888  0.50045869  1
  H+  H187  1  0.61285098  0.75897810  -0.00908106  1
  H+  H188  1  0.08423424  0.66651663  0.10081811  1
  H+  H189  1  0.73225750  0.12373974  0.33229958  1
  H+  H190  1  0.60416333  0.88831591  1.01081576  1
  H+  H191  1  0.63449368  0.51978675  0.99682295  1
  H+  H192  1  0.76123505  0.61766931  0.68721128  1
  H+  H193  1  0.77468301  0.12592820  0.68777426  1
  H+  H194  1  0.11979471  0.97882095  0.82304492  1
  H+  H195  1  0.90737728  0.13353611  0.50906614  1
  H+  H196  1  0.85256683  0.21820895  0.67629100  1
  H+  H197  1  0.50630176  0.40512705  0.15833439  1
  H+  H198  1  0.83793594  0.16189723  0.77304972  1
  H+  H199  1  0.86807933  0.89462344  0.67400761  1
  H+  H200  1  1.03362457  0.63265903  0.16466964  1
  H+  H201  1  0.66358443  0.83695510  0.60592093  1
  H+  H202  1  0.12454566  0.64411371  0.49320089  1
  H+  H203  1  0.11512843  0.79282047  0.64872801  1
  H+  H204  1  0.38945489  0.64441305  0.50185334  1
  H+  H205  1  0.52315034  0.37453092  0.81343016  1
  H+  H206  1  0.76738129  0.63575794  0.49974747  1
  H+  H207  1  0.84796456  0.72745086  0.82766247  1
  H+  H208  1  0.59516264  0.65888461  0.77157084  1
  H+  H209  1  0.40269275  0.49921843  0.66893921  1
  H+  H210  1  0.61771267  -0.00864486  0.49008578  1
  H+  H211  1  0.62850727  0.43342200  0.65995446  1
  H+  H212  1  0.77546005  0.38922045  0.50235373  1
  H+  H213  1  0.58929516  0.39769773  0.15169156  1
  H+  H214  1  1.03166635  0.12924715  0.82978787  1
  H+  H215  1  0.61737487  0.39102186  0.33097027  1
  H+  H216  1  0.22265472  0.86510419  -0.00352723  1
  H+  H217  1  0.37262588  0.74372075  0.67300724  1
  H+  H218  1  0.15038455  0.53224299  0.50232735  1
  H+  H219  1  0.13565763  0.35792781  0.33412653  1
  H+  H220  1  0.10848327  0.88366723  0.01677637  1
  H+  H221  1  0.61483812  0.13455579  0.16601720  1
  H+  H222  1  1.02600491  0.13878720  0.67266509  1
  H+  H223  1  0.21165877  0.33289735  0.34131194  1
  H+  H224  1  0.25812602  0.61930957  0.15309569  1
  H+  H225  1  0.23545138  0.16962698  -0.02420099  1
  H+  H226  1  1.01406602  0.37012378  0.17208246  1
  H+  H227  1  0.62100191  0.39559197  0.48926862  1
  H+  H228  1  0.13367776  0.77361678  0.33134278  1
  H+  H229  1  0.51890751  0.14580093  0.67815352  1
  H+  H230  1  0.62556646  0.14193800  1.00775891  1
  H+  H231  1  0.92549239  0.09481551  0.57048537  1
  H+  H232  1  0.52231444  0.62822360  0.00348329  1
  H+  H233  1  0.63603737  0.61644823  -0.00490734  1
  H+  H234  1  0.35704536  0.48057498  0.34501913  1
  H+  H235  1  -0.01490841  0.36160540  -0.00318597  1
  H+  H236  1  0.08639300  0.15828360  0.76869012  1
  H+  H237  1  0.76802852  0.38966012  0.69523153  1
  H+  H238  1  0.33929389  0.42460354  0.54273972  1
  H+  H239  1  0.66328168  0.34361875  0.56986049  1
  H+  H240  1  0.10529356  -0.02793760  0.33736267  1
  H+  H241  1  0.63735550  0.77576621  0.66451800  1
  H+  H242  1  0.89658843  0.27140372  -0.00428121  1
  H+  H243  1  0.79590760  0.36980031  0.14723005  1
  H+  H244  1  0.11310385  0.47572432  0.33616190  1
  H+  H245  1  0.15090660  0.29027558  0.99752188  1
  H+  H246  1  0.02866881  0.02290037  0.94274953  1
  H+  H247  1  0.27246562  0.14778922  0.49466027  1
  H+  H248  1  0.88657267  0.61344913  0.34058252  1
  H+  H249  1  0.62956174  0.53710505  0.17184359  1
  H+  H250  1  0.25890056  0.88500486  0.66896379  1
  H+  H251  1  0.11760942  0.38173591  0.17865245  1
  H+  H252  1  0.33582281  0.33845878  0.35716239  1
  H+  H253  1  0.88480745  0.60878606  0.99247423  1
  H+  H254  1  0.28222136  0.39422592  0.00786993  1
  H+  H255  1  0.81993844  0.92285742  0.01856798  1
  H+  H256  1  0.64387675  0.53052037  0.32604443  1
  H+  H257  1  0.38006653  1.02084207  0.17513841  1
  H+  H258  1  0.65801076  0.34020070  0.11586424  1
  H+  H259  1  0.38848409  0.88539674  0.32570979  1
  H+  H260  1  0.38083599  0.86971074  0.66015517  1
  H+  H261  1  0.91332262  0.75159039  0.68605494  1
  H+  H262  1  0.63297480  0.28364484  0.51036817  1
  H+  H263  1  0.12696897  0.27488969  0.18587884  1
  H+  H264  1  0.64249693  0.87603308  0.83492483  1
  H+  H265  1  0.83953722  0.92649642  0.76903259  1
  H+  H266  1  0.51817518  0.64497579  0.68518524  1
  H+  H267  1  0.78557092  0.13803005  0.15096610  1
  H+  H268  1  0.47807814  0.87609536  1.01377063  1
  H+  H269  1  0.39695273  0.78108793  0.50699331  1
  H+  H270  1  0.86603388  0.98284308  0.50156118  1
  H+  H271  1  0.88881377  0.56694230  0.18439813  1
  H+  H272  1  0.35283253  0.22003091  0.67667471  1
  H+  H273  1  0.26637879  0.88647110  0.49725116  1
  H+  H274  1  0.36465462  0.40049312  0.16811369  1
  H+  H275  1  0.85631571  0.72564784  0.49980080  1
  H+  H276  1  0.73468898  0.13880822  0.48988420  1
  H+  H277  1  0.90006525  0.12856010  0.99884148  1
  H+  H278  1  0.01295049  0.12925201  0.34466335  1
  H+  H279  1  0.38728461  0.53610953  0.17569741  1
  H+  H280  1  0.88184530  0.27210273  0.83959070  1
  H+  H281  1  0.35945113  0.13871104  0.17496606  1
  H+  H282  1  0.63687153  0.35099384  0.84688700  1
  H+  H283  1  0.88055872  0.78023830  0.18138415  1
  H+  H284  1  0.04931274  0.15917964  0.11480869  1
  H+  H285  1  0.61484446  0.98141078  0.83421070  1
  H+  H286  1  0.69201476  0.62982631  0.82252487  1
  H+  H287  1  0.12805179  0.38839728  0.67222604  1
  H+  H288  1  0.34232099  0.42654966  0.06705870  1
  H+  H289  1  0.83045515  0.41181251  0.44140258  1
  H+  H290  1  0.07899143  0.14877141  0.43406202  1
  H+  H291  1  0.90383434  0.57728810  0.88926766  1
  H+  H292  1  0.72999391  0.11124616  0.84694903  1
  H+  H293  1  0.13017112  0.61434534  0.32116064  1
  H+  H294  1  0.41501989  0.34598702  0.23738945  1
  H+  H295  1  0.16466076  0.33236066  0.24597429  1
  H+  H296  1  0.30551081  0.36614519  0.41620732  1
  H+  H297  1  0.88891101  0.11648227  0.66009617  1
  H+  H298  1  0.15954390  0.83270755  0.89762360  1
  H+  H299  1  0.42114593  0.61219522  0.22774932  1
  H+  H300  1  0.89122821  0.32108783  0.60665962  1
  H+  H301  1  0.34686700  0.67789859  0.76964932  1
  H+  H302  1  0.14590950  0.11015431  0.83486192  1
  H+  H303  1  0.18401758  0.58994772  0.59738346  1
  H+  H304  1  0.14086498  0.77418763  0.17531913  1
  H+  H305  1  0.41132009  0.59101808  0.58421214  1
  H+  H306  1  0.73315165  0.11260958  -0.00034494  1
  H+  H307  1  0.89949912  0.26237701  0.16535042  1
  H+  H308  1  0.60510056  0.54629194  0.59748256  1
  H+  H309  1  0.35879899  0.88556838  0.01888866  1
  H+  H310  1  0.16228134  0.58100653  0.22804323  1
  H+  H311  1  0.38697591  0.44720451  0.73111124  1
  H+  H312  1  0.16396716  0.83246507  0.27068143  1
  H+  H313  1  0.42608946  0.86109871  0.23482101  1
  H+  H314  1  0.83430416  0.63333113  0.82966676  1
  H+  H315  1  0.16970084  0.60106230  0.88823681  1
  H+  H316  1  0.31728496  0.16254949  0.02109893  1
  H+  H317  1  0.87464103  0.68803587  0.74102246  1
  H+  H318  1  0.92763765  0.08778369  0.90618455  1
  H+  H319  1  0.84754854  0.43350912  0.80420223  1
  H+  H320  1  0.58336546  0.66501901  0.06342274  1
  H+  H321  1  0.79005167  0.38941843  0.01873393  1
  H+  H322  1  0.17326925  0.33119665  0.59936102  1
  H+  H323  1  0.47653525  0.36752616  0.32607811  1
  H+  H324  1  0.22499356  0.36180754  0.50251066  1
  H+  H325  1  0.09138780  0.92690441  0.72622369  1
  H+  H326  1  0.12854324  0.02154288  0.17696952  1
  H+  H327  1  0.33006186  0.91597410  0.10115716  1
  H+  H328  1  0.82835661  0.67552403  0.06104843  1
  H+  H329  1  0.12254877  0.05194304  0.92353433  1
  H+  H330  1  0.41975565  0.34172011  0.88850053  1
  H+  H331  1  0.83075778  0.66944875  0.40807333  1
  H+  H332  1  0.58021403  0.92106650  0.77438111  1
  H+  H333  1  0.65573168  0.82359826  0.88620369  1
  H+  H334  1  0.41816270  0.84611257  0.60084575  1
  H+  H335  1  0.16284050  0.08411225  0.57085211  1
  H+  H336  1  0.67299566  0.59398584  0.26898508  1
  H+  H337  1  0.09334883  0.41464502  0.07160669  1
  H+  H338  1  0.67381925  0.08356056  0.93924143  1
  H+  H339  1  0.15293325  0.07367942  0.27097571  1
  H+  H340  1  0.67665224  0.36304048  0.18882368  1
  H+  H341  1  0.34940362  0.97244375  0.82701140  1
  H+  H342  1  0.91531565  0.32567415  0.27368513  1
  H+  H343  1  0.00364127  0.86826772  0.33601771  1
  H+  H344  1  0.83259905  0.17027944  0.41010873  1
  H+  H345  1  0.61535186  0.73985932  0.15442794  1
  H+  H346  1  0.63155177  0.61503303  0.50660736  1
  H+  H347  1  0.68189090  0.09520896  0.23393274  1
  H+  H348  1  0.91309512  0.33723375  0.89431561  1
  H+  H349  1  0.59172620  0.41936083  0.39290725  1
  H+  H350  1  0.69089604  0.29893764  0.27089603  1
  H+  H351  1  0.58219554  0.92572790  0.39675894  1
  H+  H352  1  0.08629661  0.42184320  0.43561019  1
  H+  H353  1  0.83674614  0.92099684  0.44370551  1
  H+  H354  1  0.68136217  0.12644376  0.54939179  1
  H+  H355  1  0.92099744  0.84005615  0.60550325  1
  H+  H356  1  0.16482747  0.84569152  0.57515645  1
  H+  H357  1  0.32404761  0.65107616  0.08986658  1
  H+  H358  1  0.58500276  0.92746406  0.10411253  1
  H+  H359  1  0.08286590  0.91450692  0.44168911  1
  H+  H360  1  0.46174304  0.11676837  0.50447303  1
  H+  H361  1  0.91871095  0.57847517  0.28460413  1
  H+  H362  1  0.36112224  0.18544553  0.08489418  1
  H+  H363  1  0.57854085  0.43818769  0.06445801  1
  H+  H364  1  0.53005313  0.13453593  0.84422349  1
  H+  H365  1  0.62455501  0.27699529  0.66662896  1
  H+  H366  1  0.64734013  0.08486201  0.63758735  1
  H+  H367  1  0.83891381  0.16569260  0.08821821  1
  H+  H368  1  0.58352974  0.37867932  0.75934145  1
  H+  H369  1  0.59322671  0.68310891  0.43891187  1
  H+  H370  1  0.30584383  0.29284918  0.62323353  1
  H+  H371  1  0.08560326  0.40876136  0.76741330  1
  H+  H372  1  0.38396522  0.11123724  0.67790496  1
  H+  H373  1  0.37141858  0.10510087  0.85125548  1
  H+  H374  1  0.85533942  0.91913468  0.10955033  1
  H+  H375  1  0.48556837  0.62109272  0.84386259  1
  H+  H376  1  0.32722411  0.91543267  0.40497678  1
  H+  H377  1  0.41779723  0.07795118  0.27039368  1
  H+  H378  1  0.22962784  0.11922402  0.66120005  1
  H+  H379  1  0.42390382  0.58829617  0.93214572  1
  H+  H380  1  0.37354840  0.65470037  0.66963374  1
  H+  H381  1  0.07868433  0.66923386  0.76118548  1
  H+  H382  1  0.32730673  0.16965175  0.74203871  1
  H+  H383  1  0.58598802  0.15703714  0.06835505  1
  O2-  O384  1  0.04364345  0.15776629  0.16113003  1
  O2-  O385  1  0.07993620  0.14513814  0.47961918  1
  O2-  O386  1  0.09007691  0.15121515  0.81321174  1
  O2-  O387  1  0.08276625  0.40946898  0.16053806  1
  O2-  O388  1  0.08955596  0.42616852  0.48059066  1
  O2-  O389  1  0.08293240  0.40942014  0.81269450  1
  O2-  O390  1  0.09168205  0.66508007  0.14663260  1
  O2-  O391  1  0.09344269  0.67295111  0.47702454  1
  O2-  O392  1  0.06732638  0.66520180  0.80590422  1
  O2-  O393  1  0.08726511  0.91703550  0.15552646  1
  O2-  O394  1  0.08183926  0.91595314  0.48630274  1
  O2-  O395  1  0.08385054  0.91861374  0.80719429  1
  O2-  O396  1  0.33371617  0.17283163  0.15866983  1
  O2-  O397  1  0.33055837  0.17570487  0.47747193  1
  O2-  O398  1  0.34733440  0.18152568  0.80986971  1
  O2-  O399  1  0.33706319  0.43404172  0.15283257  1
  O2-  O400  1  0.35127987  0.42194462  0.49974353  1
  O2-  O401  1  0.34059104  0.43061279  0.80333594  1
  O2-  O402  1  0.31966352  0.65018392  0.13701416  1
  O2-  O403  1  0.35534746  0.67566471  0.48124603  1
  O2-  O404  1  0.34685638  0.67602896  0.81486803  1
  O2-  O405  1  0.33414720  0.91496176  0.14808536  1
  O2-  O406  1  0.32518812  0.91383106  0.47781069  1
  O2-  O407  1  0.31922481  0.91309411  0.81020189  1
  O2-  O408  1  0.57544410  0.15373613  0.14901244  1
  O2-  O409  1  0.57461559  0.18379370  0.48072656  1
  O2-  O410  1  0.59137391  0.16131741  0.83441061  1
  O2-  O411  1  0.56652967  0.43622679  0.14106639  1
  O2-  O412  1  0.58886244  0.42100756  0.46900211  1
  O2-  O413  1  0.58292075  0.39113914  0.80273843  1
  O2-  O414  1  0.58491870  0.67797131  0.14058295  1
  O2-  O415  1  0.59354589  0.68273874  0.48402733  1
  O2-  O416  1  0.59948399  0.65807421  0.81703563  1
  O2-  O417  1  0.58225422  0.92633197  0.15036563  1
  O2-  O418  1  0.58778129  0.93071760  0.47643004  1
  O2-  O419  1  0.58195669  0.92050213  0.81959044  1
  O2-  O420  1  0.84475106  0.16687038  0.13319361  1
  O2-  O421  1  0.82707284  0.16035484  0.47220646  1
  O2-  O422  1  0.83360298  0.16104406  0.81846848  1
  O2-  O423  1  0.85730481  0.40620210  0.13973943  1
  O2-  O424  1  0.83550813  0.41602315  0.48638073  1
  O2-  O425  1  0.83842438  0.43076406  0.84886896  1
  O2-  O426  1  0.81963408  0.68394014  0.14064653  1
  O2-  O427  1  0.82676864  0.66615283  0.48247545  1
  O2-  O428  1  0.80736933  0.66738458  0.81595995  1
  O2-  O429  1  0.84591496  0.92329721  0.15385783  1
  O2-  O430  1  0.83357282  0.92158905  0.48938514  1
  O2-  O431  1  0.84039334  0.92363093  0.81437641  1
  O2-  O432  1  0.15422617  0.08187363  0.19303045  1
  O2-  O433  1  0.15656858  0.07936753  0.52416446  1
  O2-  O434  1  0.17480587  0.07858224  0.85276350  1
  O2-  O435  1  0.16172228  0.33529091  0.19945311  1
  O2-  O436  1  0.16697702  0.33491578  0.51966743  1
  O2-  O437  1  0.18047440  0.36807825  0.87284041  1
  O2-  O438  1  0.16202674  0.57354192  0.18208272  1
  O2-  O439  1  0.18237268  0.59360285  0.51592188  1
  O2-  O440  1  0.18858061  0.62783022  0.84842026  1
  O2-  O441  1  0.17069927  0.83334211  0.19242472  1
  O2-  O442  1  0.16671998  0.84417427  0.52476055  1
  O2-  O443  1  0.15753448  0.83142991  0.85246729  1
  O2-  O444  1  0.41075507  0.08038343  0.19177502  1
  O2-  O445  1  0.39979441  0.08610083  0.51387219  1
  O2-  O446  1  0.40254418  0.07476288  0.86336143  1
  O2-  O447  1  0.41124360  0.34561595  0.19111021  1
  O2-  O448  1  0.42746874  0.33160860  0.51246156  1
  O2-  O449  1  0.41370452  0.34108752  0.84408019  1
  O2-  O450  1  0.41456286  0.60021927  0.18282585  1
  O2-  O451  1  0.43424877  0.60695264  0.52333397  1
  O2-  O452  1  0.42598484  0.59484121  0.85942565  1
  O2-  O453  1  0.42656930  0.85785328  0.18821214  1
  O2-  O454  1  0.41973044  0.84166428  0.52085070  1
  O2-  O455  1  0.40936068  0.84593355  0.84951676  1
  O2-  O456  1  0.68168642  0.09479665  0.18830901  1
  O2-  O457  1  0.67215984  0.11088065  0.50658887  1
  O2-  O458  1  0.67149003  0.08117864  0.86584127  1
  O2-  O459  1  0.63300552  0.32895058  0.15874643  1
  O2-  O460  1  0.66849269  0.34462892  0.52481045  1
  O2-  O461  1  0.66521712  0.32524525  0.87104415  1
  O2-  O462  1  0.66479760  0.59724026  0.18755730  1
  O2-  O463  1  0.65588130  0.57978577  0.52313842  1
  O2-  O464  1  0.62802228  0.59591289  0.82732921  1
  O2-  O465  1  0.66480950  0.84087395  0.18092398  1
  O2-  O466  1  0.66461892  0.84601415  0.52605438  1
  O2-  O467  1  0.67652685  0.84758921  0.84578963  1
  O2-  O468  1  0.94926064  0.10378780  0.17538856  1
  O2-  O469  1  0.92970932  0.09635491  0.52380157  1
  O2-  O470  1  0.92417285  0.08602889  0.86103960  1
  O2-  O471  1  0.92889915  0.32135229  0.18516368  1
  O2-  O472  1  0.92343831  0.33300078  0.52098438  1
  O2-  O473  1  0.91485188  0.33416910  0.84978636  1
  O2-  O474  1  0.93164615  0.55646643  0.20336442  1
  O2-  O475  1  0.92696683  0.58902705  0.51524337  1
  O2-  O476  1  0.89625333  0.58386063  0.84563472  1
  O2-  O477  1  0.91628981  0.83590724  0.20264758  1
  O2-  O478  1  0.91287793  0.83110828  0.52488428  1
  O2-  O479  1  0.92268187  0.84054111  0.84918641  1
  O2-  O480  1  0.15134585  0.06736000  0.31642777  1
  O2-  O481  1  0.17030009  0.09105411  0.64190413  1
  O2-  O482  1  0.08386770  0.03654137  0.95987755  1
  O2-  O483  1  0.15758263  0.32053308  0.31779509  1
  O2-  O484  1  0.18561969  0.33475810  0.64372192  1
  O2-  O485  1  0.18310030  0.35129127  0.98544492  1
  O2-  O486  1  0.15958688  0.58484154  0.30187543  1
  O2-  O487  1  0.18104096  0.58673242  0.64251914  1
  O2-  O488  1  0.11805570  0.55928566  0.97002254  1
  O2-  O489  1  0.16084931  0.83461207  0.31620187  1
  O2-  O490  1  0.16159212  0.84982892  0.63738250  1
  O2-  O491  1  0.16281985  0.83647465  0.98041250  1
  O2-  O492  1  0.42205897  0.08244830  0.31567082  1
  O2-  O493  1  0.42118522  0.08638804  0.66911633  1
  O2-  O494  1  0.42380327  0.08116124  0.99009257  1
  O2-  O495  1  0.41656965  0.33872529  0.31082502  1
  O2-  O496  1  0.36712097  0.31503000  0.62970385  1
  O2-  O497  1  0.43381066  0.34889136  0.97804107  1
  O2-  O498  1  0.43518263  0.63845905  0.30341997  1
  O2-  O499  1  0.38897295  0.57652408  0.63171581  1
  O2-  O500  1  0.42410905  0.58640328  0.97864717  1
  O2-  O501  1  0.42057234  0.85830777  0.30610476  1
  O2-  O502  1  0.41779483  0.84527753  0.64619278  1
  O2-  O503  1  0.41511905  0.84325337  1.00656916  1
  O2-  O504  1  0.67335007  0.09242567  0.31332045  1
  O2-  O505  1  0.66226340  0.07994165  0.67921022  1
  O2-  O506  1  0.67190375  0.08435144  0.98569762  1
  O2-  O507  1  0.68158962  0.33023908  0.30336846  1
  O2-  O508  1  0.65918796  0.34359736  0.65298313  1
  O2-  O509  1  0.67721833  0.34170088  1.04281185  1
  O2-  O510  1  0.67526438  0.59271074  0.31415331  1
  O2-  O511  1  0.58987572  0.53561276  0.64140518  1
  O2-  O512  1  0.66776914  0.58527851  0.98093952  1
  O2-  O513  1  0.66269980  0.84534577  0.29845096  1
  O2-  O514  1  0.66560320  0.83674336  0.65137157  1
  O2-  O515  1  0.63182831  0.81790966  0.97449490  1
  O2-  O516  1  0.88617443  0.06729784  0.29612532  1
  O2-  O517  1  0.91925313  0.08751499  0.64129563  1
  O2-  O518  1  0.94063638  0.10244146  0.98656199  1
  O2-  O519  1  0.91785959  0.33315219  0.31810256  1
  O2-  O520  1  0.85647527  0.29789532  0.64362279  1
  O2-  O521  1  0.92434450  0.33434281  0.98387799  1
  O2-  O522  1  0.91795289  0.58240338  0.32933609  1
  O2-  O523  1  0.88441033  0.56132327  0.64406401  1
  O2-  O524  1  0.92109025  0.58543543  0.97805716  1
  O2-  O525  1  0.92626825  0.82697189  0.32051106  1
  O2-  O526  1  0.92503478  0.84834628  0.65035128  1
  O2-  O527  1  0.86792438  0.80963097  0.95733192  1
  O2-  O528  1  0.08793217  0.18114432  0.04077167  1
  O2-  O529  1  0.07260679  0.15683392  0.35831878  1
  O2-  O530  1  0.08534849  0.16835223  0.68920091  1
  O2-  O531  1  0.09442923  0.41848624  0.02719674  1
  O2-  O532  1  0.08643419  0.41689267  0.35313176  1
  O2-  O533  1  0.09334065  0.41350631  0.68723472  1
  O2-  O534  1  0.07907448  0.67017582  0.02683584  1
  O2-  O535  1  0.08967751  0.67044440  0.35649609  1
  O2-  O536  1  0.11548885  0.68180499  0.68655933  1
  O2-  O537  1  0.07463444  0.90643000  0.03742100  1
  O2-  O538  1  0.07547924  0.90883345  0.35227021  1
  O2-  O539  1  0.09146117  0.93225484  0.68112931  1
  O2-  O540  1  0.37429970  0.19096728  0.03995903  1
  O2-  O541  1  0.33824045  0.17385430  0.32122305  1
  O2-  O542  1  0.32279164  0.16201050  0.69452260  1
  O2-  O543  1  0.34438233  0.42449880  0.02213937  1
  O2-  O544  1  0.28427603  0.32931918  0.38028801  1
  O2-  O545  1  0.41477307  0.45737440  0.68990666  1
  O2-  O546  1  0.34188368  0.66040290  0.02186324  1
  O2-  O547  1  0.32745700  0.69829351  0.34057955  1
  O2-  O548  1  0.34456183  0.68337433  0.68903013  1
  O2-  O549  1  0.32601419  0.91601292  0.03101138  1
  O2-  O550  1  0.32961116  0.91849608  0.35855117  1
  O2-  O551  1  0.31867063  0.90717013  0.68586868  1
  O2-  O552  1  0.59374204  0.17047091  0.02414556  1
  O2-  O553  1  0.58318776  0.16760774  0.35741432  1
  O2-  O554  1  0.58335347  0.18806770  0.68071498  1
  O2-  O555  1  0.59041572  0.43594813  0.01999646  1
  O2-  O556  1  0.59050663  0.42286733  0.34705245  1
  O2-  O557  1  0.60091382  0.37355428  0.67417165  1
  O2-  O558  1  0.58428376  0.66020495  0.01794343  1
  O2-  O559  1  0.60239725  0.68751732  0.35631397  1
  O2-  O560  1  0.57887477  0.66578268  0.69336754  1
  O2-  O561  1  0.58615707  0.92634587  0.03080360  1
  O2-  O562  1  0.57824597  0.92546739  0.35132906  1
  O2-  O563  1  0.57657621  0.91274776  0.69568440  1
  O2-  O564  1  0.84649045  0.16607828  0.00461670  1
  O2-  O565  1  0.83380306  0.17661260  0.36002226  1
  O2-  O566  1  0.83778007  0.15999425  0.69428136  1
  O2-  O567  1  0.85328707  0.42062895  0.02407708  1
  O2-  O568  1  0.83200575  0.41229000  0.36014880  1
  O2-  O569  1  0.82910458  0.41423890  0.70566122  1
  O2-  O570  1  0.82663628  0.66442495  0.01658342  1
  O2-  O571  1  0.83683433  0.67111808  0.36193116  1
  O2-  O572  1  0.91706930  0.70559454  0.70801143  1
  O2-  O573  1  0.87488945  0.93108358  0.03252830  1
  O2-  O574  1  0.84623370  0.91668209  0.36887658  1
  O2-  O575  1  0.83784013  0.92574849  0.68843917  1
