# generated using pymatgen
data_H2O
_symmetry_space_group_name_H-M   'P 1'
_cell_length_a   17.99150991
_cell_length_b   17.99022502
_cell_length_c   22.00717039
_cell_angle_alpha   89.99567040
_cell_angle_beta   89.99345922
_cell_angle_gamma   120.00387984
_symmetry_Int_Tables_number   1
_chemical_formula_structural   H2O
_chemical_formula_sum   'H384 O192'
_cell_volume   6168.53534269
_cell_formula_units_Z   192
loop_
 _symmetry_equiv_pos_site_id
 _symmetry_equiv_pos_as_xyz
  1  'x, y, z'
loop_
 _atom_type_symbol
 _atom_type_oxidation_number
  H+  1.0
  O2-  -2.0
loop_
 _atom_site_type_symbol
 _atom_site_label
 _atom_site_symmetry_multiplicity
 _atom_site_fract_x
 _atom_site_fract_y
 _atom_site_fract_z
 _atom_site_occupancy
  H+  H0  1  0.70921519  0.85740220  0.67812091  1
  H+  H1  1  0.76355286  0.36617919  0.33466329  1
  H+  H2  1  0.23138709  0.88026057  0.99401256  1
  H+  H3  1  0.10690164  0.46890806  0.82631287  1
  H+  H4  1  -0.01621965  0.61246757  0.16805459  1
  H+  H5  1  0.13371542  0.88817497  0.48581743  1
  H+  H6  1  0.61863318  0.64975106  0.39004369  1
  H+  H7  1  0.63553994  0.86302866  0.32824526  1
  H+  H8  1  0.34094380  0.21420221  0.44762900  1
  H+  H9  1  0.40892219  0.55839800  0.57593296  1
  H+  H10  1  0.71245207  0.86103471  0.83509907  1
  H+  H11  1  0.16710176  0.76049989  0.48249623  1
  H+  H12  1  0.28459984  0.63508527  0.34151797  1
  H+  H13  1  0.64214413  1.03133162  0.64279296  1
  H+  H14  1  0.09135417  0.20565092  0.17430822  1
  H+  H15  1  0.37893283  0.84429537  0.65009089  1
  H+  H16  1  -0.02822082  0.35645983  0.84040727  1
  H+  H17  1  0.39673540  0.04771948  0.50615313  1
  H+  H18  1  0.18502665  0.86859841  0.90137843  1
  H+  H19  1  0.15782889  0.56987119  0.60209382  1
  H+  H20  1  0.73135441  0.37229572  0.84586557  1
  H+  H21  1  0.11214621  0.13537837  0.49723365  1
  H+  H22  1  0.72970343  0.34884452  0.99750233  1
  H+  H23  1  0.89191074  0.27377721  0.33344356  1
  H+  H24  1  0.11276896  0.37497331  0.15917650  1
  H+  H25  1  0.11557431  0.96377100  0.18042920  1
  H+  H26  1  0.38433682  0.87721142  0.17378655  1
  H+  H27  1  0.52040912  0.15800528  0.48754035  1
  H+  H28  1  0.91027985  0.52843016  0.80078917  1
  H+  H29  1  0.40216726  0.26827210  0.16728999  1
  H+  H30  1  0.61324743  0.96831760  0.17170667  1
  H+  H31  1  0.12097691  0.72837739  0.16068085  1
  H+  H32  1  0.23270446  0.14018777  0.51316543  1
  H+  H33  1  0.90239927  0.86279635  0.65804925  1
  H+  H34  1  0.53189372  0.60647451  0.53759604  1
  H+  H35  1  0.62066357  0.77386984  0.83646234  1
  H+  H36  1  0.41269073  0.11815152  0.00986666  1
  H+  H37  1  0.99208118  0.62258794  0.81289925  1
  H+  H38  1  0.60004134  0.89860561  0.00736196  1
  H+  H39  1  0.46958772  0.35402046  0.32607554  1
  H+  H40  1  0.88416603  0.10639189  0.50154559  1
  H+  H41  1  0.73311109  0.34972138  0.15986440  1
  H+  H42  1  0.63133177  0.83448348  0.51101510  1
  H+  H43  1  0.26672470  0.37473677  0.67056260  1
  H+  H44  1  0.97317025  0.87334007  0.84570981  1
  H+  H45  1  0.87590579  0.97344404  0.66353111  1
  H+  H46  1  0.12582924  0.73971305  0.64886254  1
  H+  H47  1  0.37702081  0.50821528  0.66499911  1
  H+  H48  1  -0.02805858  0.36332204  -0.00659277  1
  H+  H49  1  0.37468051  0.23627437  0.83243793  1
  H+  H50  1  0.36219767  0.98539119  0.77312124  1
  H+  H51  1  0.39653238  0.81832748  1.08964946  1
  H+  H52  1  0.61166735  0.94285606  0.49391098  1
  H+  H53  1  0.42420622  0.33607122  0.90049162  1
  H+  H54  1  0.60358501  0.89512034  0.82174700  1
  H+  H55  1  0.14224878  0.61098161  0.50835267  1
  H+  H56  1  0.10253654  0.12738539  0.03137099  1
  H+  H57  1  0.47229568  0.85442081  0.65415015  1
  H+  H58  1  0.96648099  0.10787591  0.84873728  1
  H+  H59  1  0.37868985  0.90173929  0.33824398  1
  H+  H60  1  0.23930020  0.85845671  0.32201798  1
  H+  H61  1  0.15361131  0.76458483  0.32318306  1
  H+  H62  1  0.01105686  0.12526065  0.02191218  1
  H+  H63  1  0.60287121  0.88788891  0.67250640  1
  H+  H64  1  0.12936099  0.82822231  0.65522305  1
  H+  H65  1  0.12456488  0.46816575  0.15752873  1
  H+  H66  1  0.45505366  0.09482331  0.70313964  1
  H+  H67  1  -0.00661822  0.11703519  0.17399914  1
  H+  H68  1  0.62103362  0.73175582  0.15414732  1
  H+  H69  1  0.62188542  0.23793664  0.83322538  1
  H+  H70  1  0.06694067  0.17068433  0.77123885  1
  H+  H71  1  0.37334471  0.59703093  0.66134938  1
  H+  H72  1  0.35655435  0.72044581  0.01395406  1
  H+  H73  1  0.85543037  0.22868858  0.00910489  1
  H+  H74  1  0.85445454  0.88617029  0.83008117  1
  H+  H75  1  0.58430007  0.21574464  0.67615500  1
  H+  H76  1  0.46725973  0.87189080  0.82176246  1
  H+  H77  1  0.46503781  0.34589756  0.64689676  1
  H+  H78  1  0.14467245  0.15804535  0.34433571  1
  H+  H79  1  0.97375939  0.10643686  0.66183247  1
  H+  H80  1  0.39517339  0.61646593  0.15405536  1
  H+  H81  1  0.88359563  0.62248641  0.78788497  1
  H+  H82  1  0.79277642  0.62917297  0.81192318  1
  H+  H83  1  0.85849365  0.64590208  0.02909522  1
  H+  H84  1  0.15213649  0.32409570  0.93720496  1
  H+  H85  1  0.86764633  0.46769250  0.16420712  1
  H+  H86  1  0.97017498  0.35460315  0.50272295  1
  H+  H87  1  -0.00010390  0.61642709  0.65808118  1
  H+  H88  1  0.63346692  0.09680883  0.18063602  1
  H+  H89  1  0.36607428  0.44403654  0.50133101  1
  H+  H90  1  0.12391995  0.59738474  0.65985839  1
  H+  H91  1  0.37202070  0.91087426  0.81361891  1
  H+  H92  1  0.61172748  0.46141905  0.33937632  1
  H+  H93  1  0.51374469  0.87081528  0.49195617  1
  H+  H94  1  0.77201091  0.13345330  0.16731789  1
  H+  H95  1  0.36344838  0.38562142  0.82697204  1
  H+  H96  1  0.11479615  0.74134196  -0.00903436  1
  H+  H97  1  0.17231227  0.64811213  0.17908366  1
  H+  H98  1  0.28027969  0.40158101  0.34155147  1
  H+  H99  1  0.48659175  0.61246029  0.34615685  1
  H+  H100  1  0.17164303  0.81988807  0.23387008  1
  H+  H101  1  0.85643258  0.38835847  0.66631868  1
  H+  H102  1  0.35486971  0.72804337  0.81192380  1
  H+  H103  1  0.13173049  0.27031252  0.84220763  1
  H+  H104  1  0.36946251  0.60679060  0.83246900  1
  H+  H105  1  0.60265704  0.47590897  0.66275639  1
  H+  H106  1  0.85838762  0.45673370  0.87760261  1
  H+  H107  1  0.35297323  -0.01341776  0.16738731  1
  H+  H108  1  0.86627240  0.98281578  0.17051787  1
  H+  H109  1  0.24951504  0.89941594  0.83795255  1
  H+  H110  1  0.29534892  0.13293529  1.02159721  1
  H+  H111  1  0.84999300  0.62894934  0.65443929  1
  H+  H112  1  0.60913649  0.36610220  0.00792168  1
  H+  H113  1  0.02825036  0.38300097  0.34187805  1
  H+  H114  1  0.11791405  0.64495610  0.84423900  1
  H+  H115  1  0.91104270  0.08163005  0.94385312  1
  H+  H116  1  0.72239002  0.64196628  0.44960042  1
  H+  H117  1  0.13286042  0.03809779  0.66869067  1
  H+  H118  1  0.17261593  0.09086395  0.97397933  1
  H+  H119  1  0.32358805  0.92737216  0.07376896  1
  H+  H120  1  0.87184575  0.37980215  0.16842565  1
  H+  H121  1  0.14023011  0.87726610  -0.00605157  1
  H+  H122  1  0.86456101  0.38600948  0.00882482  1
  H+  H123  1  0.13161968  0.36313921  0.66179868  1
  H+  H124  1  0.26820023  0.89090437  0.16442519  1
  H+  H125  1  0.41201821  0.52901896  0.15875681  1
  H+  H126  1  0.88444828  0.77650437  0.18903731  1
  H+  H127  1  0.76878400  0.64067058  0.16989734  1
  H+  H128  1  0.86787876  0.88077830  0.48930660  1
  H+  H129  1  0.11926011  0.26874285  -0.00158531  1
  H+  H130  1  0.24266055  0.05879733  0.23223653  1
  H+  H131  1  0.13564145  0.02067140  1.02549823  1
  H+  H132  1  0.38062124  0.51210833  0.35114830  1
  H+  H133  1  0.37115328  0.51683037  0.83262547  1
  H+  H134  1  0.23951005  0.12314977  0.81112500  1
  H+  H135  1  0.61962189  0.26682392  0.49426908  1
  H+  H136  1  0.62340595  0.39308803  0.15954375  1
  H+  H137  1  0.91706884  0.84626719  0.90536464  1
  H+  H138  1  0.91090669  0.58201780  0.12108428  1
  H+  H139  1  0.14938047  0.89554450  0.83096232  1
  H+  H140  1  0.61929805  0.71825774  0.34135655  1
  H+  H141  1  0.63126483  0.11894731  0.85109384  1
  H+  H142  1  0.10765219  0.46930813  0.67583583  1
  H+  H143  1  0.38223240  0.47663716  0.00417868  1
  H+  H144  1  0.02142723  0.13274348  0.49234336  1
  H+  H145  1  0.87147543  0.60884252  0.50075504  1
  H+  H146  1  0.37377684  0.85876054  1.03386958  1
  H+  H147  1  0.88588034  0.78359706  1.00356002  1
  H+  H148  1  0.62269746  0.76751087  0.67052247  1
  H+  H149  1  0.48249521  0.37134846  0.83989328  1
  H+  H150  1  0.61612534  0.17189528  0.47287067  1
  H+  H151  1  0.74442793  0.14020233  0.49261846  1
  H+  H152  1  0.12883183  0.26418034  0.50944700  1
  H+  H153  1  0.39990768  0.58658711  0.50885960  1
  H+  H154  1  0.13150035  0.84955720  0.17859876  1
  H+  H155  1  0.06159797  0.66579894  -0.05256206  1
  H+  H156  1  -0.01745853  0.35927372  0.17501094  1
  H+  H157  1  0.22155021  0.61207248  0.83088842  1
  H+  H158  1  0.40023744  0.04050859  0.85448591  1
  H+  H159  1  0.39432460  0.26732078  0.99345902  1
  H+  H160  1  0.10952493  0.38111512  0.82977303  1
  H+  H161  1  0.96766137  0.36861381  0.66078484  1
  H+  H162  1  0.36818613  0.23320369  0.34275918  1
  H+  H163  1  0.46878100  0.86672720  0.17436959  1
  H+  H164  1  0.63401873  1.02891555  0.33503286  1
  H+  H165  1  0.27040216  0.63164609  0.99729598  1
  H+  H166  1  0.38658638  0.60805886  0.98748603  1
  H+  H167  1  0.53253179  0.15058814  0.83882473  1
  H+  H168  1  0.86088972  0.64590923  0.16916550  1
  H+  H169  1  0.63695428  0.52231337  0.16624699  1
  H+  H170  1  0.87979372  0.51230812  0.32389408  1
  H+  H171  1  0.64381429  0.08235533  0.50438972  1
  H+  H172  1  0.46320976  0.10544532  0.17803427  1
  H+  H173  1  0.11688571  0.62359862  0.33866677  1
  H+  H174  1  0.89279817  0.76982184  0.65211170  1
  H+  H175  1  0.89089439  0.86858563  0.18823658  1
  H+  H176  1  0.10708478  0.37658458  0.49634985  1
  H+  H177  1  0.76152965  0.13457094  0.85817455  1
  H+  H178  1  0.65754073  0.31732153  0.11366319  1
  H+  H179  1  0.27907419  0.89979528  0.49193572  1
  H+  H180  1  0.60443952  0.73693546  -0.00144875  1
  H+  H181  1  0.86921509  0.51955865  0.65068009  1
  H+  H182  1  0.85745526  0.37677462  0.33701465  1
  H+  H183  1  0.36232061  0.21566419  0.67267721  1
  H+  H184  1  0.83643724  0.16079577  0.40288106  1
  H+  H185  1  0.21997029  0.59936861  0.51252086  1
  H+  H186  1  0.65018813  0.64025688  -0.02238753  1
  H+  H187  1  0.61235199  1.03408093  0.01505273  1
  H+  H188  1  0.40771002  0.14158682  0.52206997  1
  H+  H189  1  0.72724284  0.86353478  0.17589863  1
  H+  H190  1  0.29900898  0.64387268  0.15476358  1
  H+  H191  1  0.18395784  0.10745548  0.75250956  1
  H+  H192  1  0.47655697  0.34049883  0.50012495  1
  H+  H193  1  1.02222560  0.88178165  0.17676100  1
  H+  H194  1  0.13405792  -0.01085547  0.80293378  1
  H+  H195  1  0.69176568  0.10677973  0.59490590  1
  H+  H196  1  0.13695280  0.61400806  0.98494564  1
  H+  H197  1  0.70711910  0.66478748  0.82978092  1
  H+  H198  1  0.96739857  0.61449735  1.02703943  1
  H+  H199  1  0.77678737  0.63113452  0.33027334  1
  H+  H200  1  0.87702786  0.01951712  0.84830509  1
  H+  H201  1  0.77323064  0.87108953  0.49736297  1
  H+  H202  1  0.12468068  0.93104969  0.64077134  1
  H+  H203  1  0.71280783  0.35508174  0.65432734  1
  H+  H204  1  0.41101299  0.36437459  0.16894957  1
  H+  H205  1  0.88109410  0.26765657  0.50668715  1
  H+  H206  1  0.25736212  0.85160367  0.65892266  1
  H+  H207  1  0.85510230  0.37962522  0.48952593  1
  H+  H208  1  0.34841129  0.93605882  0.43718331  1
  H+  H209  1  0.60905332  0.20116939  0.15918442  1
  H+  H210  1  0.02085200  0.88927075  0.01919245  1
  H+  H211  1  0.85081923  0.13334732  0.85406389  1
  H+  H212  1  0.85307250  0.86886435  0.34278199  1
  H+  H213  1  0.72480755  0.36030330  0.50409194  1
  H+  H214  1  0.14592240  0.51390590  0.32798322  1
  H+  H215  1  0.02986987  0.62765004  0.33996612  1
  H+  H216  1  0.37850528  -0.00952549  0.33813368  1
  H+  H217  1  0.64954941  0.25363811  0.99210879  1
  H+  H218  1  0.08804741  0.40968944  0.40054801  1
  H+  H219  1  0.58294579  0.62445349  0.83492823  1
  H+  H220  1  0.64200015  0.08158626  0.91399536  1
  H+  H221  1  0.02661023  0.87393687  0.66295771  1
  H+  H222  1  0.49814571  0.62974572  0.82929887  1
  H+  H223  1  0.39487986  0.88321160  0.50385526  1
  H+  H224  1  0.91147473  0.33265521  0.93467800  1
  H+  H225  1  0.87951576  0.11500644  1.00100647  1
  H+  H226  1  0.10815913  0.15048622  0.68191230  1
  H+  H227  1  0.19883533  0.31849014  0.17514676  1
  H+  H228  1  0.40227258  0.13295014  0.33516843  1
  H+  H229  1  0.05998140  0.14827272  0.10935585  1
  H+  H230  1  0.09912393  0.66643184  0.10268557  1
  H+  H231  1  0.63592375  0.61204983  0.16612837  1
  H+  H232  1  0.60362417  0.98322215  0.82901876  1
  H+  H233  1  0.84834877  0.98275094  0.00943631  1
  H+  H234  1  0.66972535  0.07594120  0.24069709  1
  H+  H235  1  0.82709187  0.91561720  0.76991644  1
  H+  H236  1  0.10361204  0.13654734  0.82165562  1
  H+  H237  1  0.10273545  0.38333928  -0.00053442  1
  H+  H238  1  0.89234051  0.27041520  0.17732538  1
  H+  H239  1  0.13477366  0.02273723  0.30902791  1
  H+  H240  1  0.63593318  0.86038314  0.17621124  1
  H+  H241  1  0.51008120  0.63055062  0.67718403  1
  H+  H242  1  0.49731877  0.62718004  0.15895220  1
  H+  H243  1  0.23014564  0.11961928  0.66811473  1
  H+  H244  1  0.26593990  0.62841324  0.66722697  1
  H+  H245  1  0.62300753  0.48799035  0.82079486  1
  H+  H246  1  0.64169353  0.59910866  0.32024821  1
  H+  H247  1  0.52403825  0.64152148  -0.00137232  1
  H+  H248  1  0.87874311  0.11135741  0.17755022  1
  H+  H249  1  0.01846436  0.90672584  0.34701233  1
  H+  H250  1  0.87782606  0.77151217  0.33354337  1
  H+  H251  1  0.70743149  0.87163686  0.98213048  1
  H+  H252  1  0.88100716  0.52257710  1.03199298  1
  H+  H253  1  0.88946344  1.02045929  0.50490873  1
  H+  H254  1  0.91057225  0.34116853  0.60069129  1
  H+  H255  1  0.54131070  0.11282614  0.00734882  1
  H+  H256  1  0.88303331  0.87036244  0.00135750  1
  H+  H257  1  0.78012002  0.14509771  0.34188842  1
  H+  H258  1  0.48391546  0.35443429  -0.00786754  1
  H+  H259  1  0.87079144  0.73486811  0.48172768  1
  H+  H260  1  0.87810478  0.26922011  0.85023744  1
  H+  H261  1  0.87785183  0.11374464  0.32760071  1
  H+  H262  1  0.80561941  0.14124438  0.75698116  1
  H+  H263  1  0.39773177  0.62175219  0.34771468  1
  H+  H264  1  0.31871639  0.40823107  0.15346327  1
  H+  H265  1  0.75615487  0.87382999  0.34243004  1
  H+  H266  1  0.36774538  -0.01933913  1.01313352  1
  H+  H267  1  0.28453643  0.14108075  0.35072386  1
  H+  H268  1  0.14425891  0.36485673  0.32426498  1
  H+  H269  1  0.64196823  0.12229963  0.32577854  1
  H+  H270  1  0.59912648  0.36780019  0.34612081  1
  H+  H271  1  0.39940457  0.12810781  0.85408841  1
  H+  H272  1  0.35176652  0.17619918  0.77351340  1
  H+  H273  1  0.12949491  0.97716541  0.49227542  1
  H+  H274  1  0.99558881  0.87208445  0.49717883  1
  H+  H275  1  0.37177390  0.00457504  0.68268018  1
  H+  H276  1  0.34862197  0.74701095  0.48793763  1
  H+  H277  1  0.80627727  0.88223734  0.63770411  1
  H+  H278  1  0.34504568  0.34867553  0.48488602  1
  H+  H279  1  0.13151857  0.52184591  -0.01123100  1
  H+  H280  1  0.41287027  0.57785493  0.92791466  1
  H+  H281  1  0.62767929  0.61497158  0.66793892  1
  H+  H282  1  0.76254314  0.63685613  0.65788258  1
  H+  H283  1  0.22296949  0.35761135  0.84137542  1
  H+  H284  1  0.51181015  0.89099347  1.03054130  1
  H+  H285  1  0.39034868  0.77502975  0.32498466  1
  H+  H286  1  0.86933274  0.51872426  0.50155714  1
  H+  H287  1  0.38413710  0.12625489  0.17304186  1
  H+  H288  1  0.90752160  0.56923506  0.92032463  1
  H+  H289  1  0.57639564  0.17294233  0.74095407  1
  H+  H290  1  0.33327379  0.68086024  0.40184679  1
  H+  H291  1  0.57856379  0.41874919  0.72234080  1
  H+  H292  1  0.53131784  0.40241471  0.44790129  1
  H+  H293  1  0.07879910  0.90778702  0.07961747  1
  H+  H294  1  0.21933284  0.35025510  0.50965311  1
  H+  H295  1  0.62672968  0.35984358  0.65113305  1
  H+  H296  1  0.89917106  0.57714359  0.58842926  1
  H+  H297  1  0.66807128  0.83265023  0.26957841  1
  H+  H298  1  0.81865972  0.41319675  0.72403542  1
  H+  H299  1  0.35832146  0.17387273  0.07830434  1
  H+  H300  1  0.57730933  0.90404365  0.39707218  1
  H+  H301  1  0.76371231  0.14401492  0.01483303  1
  H+  H302  1  0.35202995  0.12153453  0.69150926  1
  H+  H303  1  0.94638208  0.56366196  0.92158339  1
  H+  H304  1  0.86890016  0.63724465  0.33090407  1
  H+  H305  1  0.41412353  0.83238260  0.26419705  1
  H+  H306  1  0.87240280  0.38972278  0.84107047  1
  H+  H307  1  0.63943397  0.59944911  0.60144991  1
  H+  H308  1  0.90882240  0.83805317  0.27795756  1
  H+  H309  1  0.09178184  0.93835566  0.39689620  1
  H+  H310  1  0.15880365  0.32852387  0.60258810  1
  H+  H311  1  0.58320548  0.91499581  0.11009868  1
  H+  H312  1  0.82164541  0.40542132  0.43011584  1
  H+  H313  1  0.38343159  0.38691537  0.00608546  1
  H+  H314  1  0.33075680  0.41678066  0.40696812  1
  H+  H315  1  0.10585909  0.46493374  0.49556796  1
  H+  H316  1  0.10828118  0.18145476  0.40339806  1
  H+  H317  1  0.91587173  0.57193008  0.26614965  1
  H+  H318  1  0.66035553  0.32854604  0.56481303  1
  H+  H319  1  0.07520976  0.40699575  0.73406953  1
  H+  H320  1  0.52393044  0.88508590  0.33522580  1
  H+  H321  1  0.33684641  0.64661938  0.08666728  1
  H+  H322  1  0.76924542  0.10956814  0.69174020  1
  H+  H323  1  0.42086427  0.10267077  0.27054865  1
  H+  H324  1  0.29534993  0.15780701  0.15657783  1
  H+  H325  1  0.58131741  0.13441016  0.10573155  1
  H+  H326  1  0.10343726  0.23571287  0.67890205  1
  H+  H327  1  0.32896998  0.40517785  0.76538936  1
  H+  H328  1  0.25239147  0.70317976  0.46403413  1
  H+  H329  1  0.62032378  0.39890149  0.82595782  1
  H+  H330  1  0.31135850  0.87228150  0.71938214  1
  H+  H331  1  0.66884675  0.57156394  0.26033853  1
  H+  H332  1  0.17737487  0.83771161  0.54690025  1
  H+  H333  1  0.35292387  0.36912904  0.66576323  1
  H+  H334  1  0.78138816  0.06851859  0.45564943  1
  H+  H335  1  0.73842393  0.64121803  -0.01261148  1
  H+  H336  1  0.25651940  0.70394251  0.21607910  1
  H+  H337  1  0.81965645  0.90130370  0.40733926  1
  H+  H338  1  0.07957284  0.41739682  0.05903462  1
  H+  H339  1  0.41853944  0.31946314  0.26425532  1
  H+  H340  1  0.82599356  0.68425295  0.07850228  1
  H+  H341  1  0.32498018  0.66148138  0.75720262  1
  H+  H342  1  0.66880787  0.33588689  0.90267178  1
  H+  H343  1  0.16724795  0.58016733  0.89281303  1
  H+  H344  1  0.61749701  0.69850645  0.53863847  1
  H+  H345  1  0.57465716  0.92706551  0.72607287  1
  H+  H346  1  0.87415531  0.02238323  0.32785366  1
  H+  H347  1  0.58372809  0.40531189  0.06379426  1
  H+  H348  1  0.39986365  0.28721224  0.59330453  1
  H+  H349  1  0.78220180  0.91511829  0.05750910  1
  H+  H350  1  0.41850220  0.83856033  0.56000867  1
  H+  H351  1  0.92301375  0.07414960  0.59761420  1
  H+  H352  1  0.12858088  0.68546649  0.42943807  1
  H+  H353  1  0.86657316  0.92749020  0.11425046  1
  H+  H354  1  0.38228593  0.81144144  0.92648179  1
  H+  H355  1  0.35902987  0.71515143  0.66262756  1
  H+  H356  1  0.15829345  0.31962073  0.24012440  1
  H+  H357  1  0.37073618  0.42916412  0.08858316  1
  H+  H358  1  0.64156461  0.29727896  0.26629858  1
  H+  H359  1  0.54182027  0.17736840  0.32171717  1
  H+  H360  1  0.53037499  0.38387245  0.16141668  1
  H+  H361  1  0.90307563  0.07937101  0.24259782  1
  H+  H362  1  0.17250321  0.09624694  0.57003702  1
  H+  H363  1  0.12323126  0.73675606  0.83888914  1
  H+  H364  1  0.17580931  0.15305586  0.90618759  1
  H+  H365  1  0.56538878  0.66155649  0.73857427  1
  H+  H366  1  0.92313017  0.33225225  0.27344433  1
  H+  H367  1  0.09796532  0.90880940  0.75809284  1
  H+  H368  1  0.70022604  0.61691328  0.89313454  1
  H+  H369  1  0.93442089  0.83999622  0.55584452  1
  H+  H370  1  0.59119570  0.67707330  0.09093229  1
  H+  H371  1  0.83077440  0.65572109  0.73873449  1
  H+  H372  1  0.18377035  0.58395065  0.27260917  1
  H+  H373  1  0.82901418  0.16602143  0.10632630  1
  H+  H374  1  0.15786353  0.28288454  0.32886984  1
  H+  H375  1  0.83269753  0.40350860  0.07242059  1
  H+  H376  1  0.66782530  0.82791592  0.57534734  1
  H+  H377  1  0.84438621  0.67492556  0.42285327  1
  H+  H378  1  0.64483377  0.84097216  0.92545792  1
  H+  H379  1  0.63349052  0.61664713  0.47959901  1
  H+  H380  1  0.04601828  0.63665994  0.72100037  1
  H+  H381  1  0.16945811  0.10880010  0.90024087  1
  H+  H382  1  0.43541212  0.09058911  0.94718208  1
  H+  H383  1  0.39276150  0.82695223  0.87987701  1
  O2-  O384  1  0.05766387  0.14519772  0.15734896  1
  O2-  O385  1  0.08346962  0.16610645  0.48002505  1
  O2-  O386  1  0.06955403  0.16530536  0.81684936  1
  O2-  O387  1  0.08786350  0.40968729  0.14286829  1
  O2-  O388  1  0.07652311  0.40538830  0.47874265  1
  O2-  O389  1  0.07591672  0.40760834  0.81358221  1
  O2-  O390  1  0.09519687  0.66531127  0.14696508  1
  O2-  O391  1  0.15932137  0.70047500  0.46873939  1
  O2-  O392  1  0.08496248  0.67645588  0.84965758  1
  O2-  O393  1  0.08136861  0.90827442  0.15911230  1
  O2-  O394  1  0.09793970  0.91900456  0.47477747  1
  O2-  O395  1  0.10482236  0.92351016  0.80210169  1
  O2-  O396  1  0.35491381  0.17958104  0.14498133  1
  O2-  O397  1  0.32691138  0.23044019  0.48774273  1
  O2-  O398  1  0.34649690  0.17443291  0.81872146  1
  O2-  O399  1  0.37697986  0.43576262  0.13785087  1
  O2-  O400  1  0.32494899  0.39055259  0.47978337  1
  O2-  O401  1  0.32913393  0.41100442  0.81055636  1
  O2-  O402  1  0.34966634  0.65154957  0.13151261  1
  O2-  O403  1  0.30268395  0.69276364  0.46882941  1
  O2-  O404  1  0.32495423  0.66534459  0.80285096  1
  O2-  O405  1  0.32835202  0.92715794  0.14911241  1
  O2-  O406  1  0.34581288  0.93527698  0.48222459  1
  O2-  O407  1  0.34198613  0.94622442  0.80963705  1
  O2-  O408  1  0.57573678  0.13876137  0.15028548  1
  O2-  O409  1  0.57933339  0.19768756  0.46671512  1
  O2-  O410  1  0.59143129  0.17622839  0.82116467  1
  O2-  O411  1  0.59163006  0.42087094  0.14466324  1
  O2-  O412  1  0.50341455  0.40094186  0.48643596  1
  O2-  O413  1  0.58978452  0.42744849  0.80827689  1
  O2-  O414  1  0.59046661  0.67239578  0.13663944  1
  O2-  O415  1  0.59500980  0.63622588  0.54443063  1
  O2-  O416  1  0.56163530  0.66021006  0.81752197  1
  O2-  O417  1  0.58064358  0.90812716  0.15526067  1
  O2-  O418  1  0.57391967  0.88626535  0.47678205  1
  O2-  O419  1  0.57473018  0.92683676  0.80743294  1
  O2-  O420  1  0.83270801  0.16519262  0.15163687  1
  O2-  O421  1  0.81826386  0.12870697  0.46676274  1
  O2-  O422  1  0.82370648  0.16908072  0.84780132  1
  O2-  O423  1  0.83836738  0.40636347  0.15152062  1
  O2-  O424  1  0.82158593  0.40691401  0.47538329  1
  O2-  O425  1  0.84790351  0.43058887  0.83725055  1
  O2-  O426  1  0.83160061  0.67834360  0.15877982  1
  O2-  O427  1  0.83444974  0.67480050  0.46741430  1
  O2-  O428  1  0.84513435  0.65224175  0.78461497  1
  O2-  O429  1  0.84238242  0.92170294  0.15491313  1
  O2-  O430  1  0.82950876  0.90372483  0.47568409  1
  O2-  O431  1  0.82092052  0.91324108  0.81432137  1
  O2-  O432  1  0.18985749  0.06123817  0.22614834  1
  O2-  O433  1  0.17395916  0.09390340  0.52540801  1
  O2-  O434  1  0.17835343  0.09118337  0.79550101  1
  O2-  O435  1  0.14474044  0.30656717  0.19356848  1
  O2-  O436  1  0.15942029  0.32518150  0.52505900  1
  O2-  O437  1  0.16312878  0.33080482  0.85736022  1
  O2-  O438  1  0.22016982  0.64556852  0.20074871  1
  O2-  O439  1  0.15897526  0.56949065  0.52565179  1
  O2-  O440  1  0.16161534  0.58156194  0.84770896  1
  O2-  O441  1  0.16525747  0.82049076  0.18702883  1
  O2-  O442  1  0.18432976  0.84642800  0.50292040  1
  O2-  O443  1  0.18738153  0.86875037  0.85434133  1
  O2-  O444  1  0.40490892  0.08588586  0.19383924  1
  O2-  O445  1  0.43640457  0.10658716  0.52149337  1
  O2-  O446  1  0.43087833  0.09982766  0.87100185  1
  O2-  O447  1  0.43681029  0.33113490  0.18511881  1
  O2-  O448  1  0.39459504  0.23593942  0.52901984  1
  O2-  O449  1  0.42216321  0.33864741  0.85463862  1
  O2-  O450  1  0.43434063  0.59118063  0.17309215  1
  O2-  O451  1  0.41948364  0.55288021  0.53129077  1
  O2-  O452  1  0.40013715  0.57724210  0.84847635  1
  O2-  O453  1  0.40593446  0.83668985  0.18247598  1
  O2-  O454  1  0.42116876  0.84600522  0.51470084  1
  O2-  O455  1  0.40339459  0.84237874  0.82928752  1
  O2-  O456  1  0.66944726  0.07204296  0.19520450  1
  O2-  O457  1  0.69055988  0.14086081  0.50975538  1
  O2-  O458  1  0.65172549  0.08120759  0.86986663  1
  O2-  O459  1  0.66837700  0.31692345  0.15711776  1
  O2-  O460  1  0.66324069  0.33329405  0.51867702  1
  O2-  O461  1  0.66992397  0.34394122  0.85759322  1
  O2-  O462  1  0.66616659  0.58285282  0.18268557  1
  O2-  O463  1  0.66121513  0.61963575  0.43989489  1
  O2-  O464  1  0.70328801  0.61225003  0.84553003  1
  O2-  O465  1  0.66729209  0.82991512  0.19047910  1
  O2-  O466  1  0.66991296  0.81729655  0.53102685  1
  O2-  O467  1  0.65142669  0.83510916  0.84885555  1
  O2-  O468  1  0.90714858  0.07940459  0.19446241  1
  O2-  O469  1  0.91935686  0.08069054  0.51878259  1
  O2-  O470  1  0.90850712  0.07688261  0.86807811  1
  O2-  O471  1  0.92386738  0.33090791  0.19272719  1
  O2-  O472  1  0.90942338  0.32852051  0.51745035  1
  O2-  O473  1  0.91287411  0.33384651  0.85782199  1
  O2-  O474  1  0.91982922  0.58237487  0.16639288  1
  O2-  O475  1  0.89798159  0.57711300  0.51926577  1
  O2-  O476  1  0.94074493  0.58905049  0.78574571  1
  O2-  O477  1  0.91879468  0.83705215  0.20488583  1
  O2-  O478  1  0.93331012  0.84336498  0.51100396  1
  O2-  O479  1  0.91390989  0.84589967  0.86024601  1
  O2-  O480  1  0.17416446  0.08100394  0.28862366  1
  O2-  O481  1  0.16739505  0.09900031  0.65815417  1
  O2-  O482  1  0.16734813  0.08466448  1.01827294  1
  O2-  O483  1  0.17921172  0.34044230  0.30689772  1
  O2-  O484  1  0.16186038  0.33163495  0.64815842  1
  O2-  O485  1  0.14378821  0.32689981  0.98169858  1
  O2-  O486  1  0.17838336  0.57656260  0.31716724  1
  O2-  O487  1  0.16007326  0.57224406  0.64776306  1
  O2-  O488  1  0.16585132  0.58202327  0.97227389  1
  O2-  O489  1  0.18340815  0.82085148  0.30197534  1
  O2-  O490  1  0.15974930  0.80137397  0.63648588  1
  O2-  O491  1  0.17345673  0.85367439  0.97284553  1
  O2-  O492  1  0.43562341  0.10890200  0.31500018  1
  O2-  O493  1  0.39064757  0.05378966  0.71052126  1
  O2-  O494  1  0.43933853  0.08487406  0.99221114  1
  O2-  O495  1  0.41082295  0.31936633  0.30898201  1
  O2-  O496  1  0.40336232  0.30878313  0.63683836  1
  O2-  O497  1  0.42266298  0.32658645  0.97613118  1
  O2-  O498  1  0.42321168  0.58459001  0.33600385  1
  O2-  O499  1  0.40724277  0.56878121  0.64928311  1
  O2-  O500  1  0.42008865  0.58098890  0.97292333  1
  O2-  O501  1  0.42125803  0.83526492  0.30922850  1
  O2-  O502  1  0.41349022  0.81807649  0.63569529  1
  O2-  O503  1  0.40311088  0.82566162  1.04512460  1
  O2-  O504  1  0.66932097  0.08746069  0.31749562  1
  O2-  O505  1  0.68741845  0.09158186  0.63808444  1
  O2-  O506  1  0.64339927  0.09460334  0.99778575  1
  O2-  O507  1  0.64459196  0.29647975  0.31091029  1
  O2-  O508  1  0.65312252  0.32516123  0.63790190  1
  O2-  O509  1  0.67067158  0.31391077  0.98006673  1
  O2-  O510  1  0.67298359  0.57018903  0.30551744  1
  O2-  O511  1  0.65526335  0.58916315  0.64279613  1
  O2-  O512  1  0.68849492  0.62117191  0.95966627  1
  O2-  O513  1  0.66848435  0.83374365  0.31517803  1
  O2-  O514  1  0.65546857  0.82845607  0.65489662  1
  O2-  O515  1  0.64593091  0.84308924  0.97116782  1
  O2-  O516  1  0.90151501  0.07872480  0.30814576  1
  O2-  O517  1  0.92313961  0.05948315  0.64112529  1
  O2-  O518  1  0.90889977  0.08222538  0.98981072  1
  O2-  O519  1  0.92212641  0.33533515  0.31856137  1
  O2-  O520  1  0.90878774  0.34798825  0.64517052  1
  O2-  O521  1  0.91003968  0.33209355  0.98041239  1
  O2-  O522  1  0.91501821  0.57357589  0.31053471  1
  O2-  O523  1  0.90094177  0.58007803  0.63555866  1
  O2-  O524  1  0.90904689  0.58441780  1.04473937  1
  O2-  O525  1  0.90074074  0.83440505  0.32375419  1
  O2-  O526  1  0.93129401  0.83159874  0.64145124  1
  O2-  O527  1  0.91772615  0.84450858  0.98856986  1
  O2-  O528  1  0.06801841  0.15522700  0.04307373  1
  O2-  O529  1  0.12202120  0.19390006  0.35929224  1
  O2-  O530  1  0.07373619  0.17586168  0.69660371  1
  O2-  O531  1  0.07641310  0.41914993  0.01428195  1
  O2-  O532  1  0.08987190  0.41107964  0.35493053  1
  O2-  O533  1  0.07552937  0.40770508  0.68867511  1
  O2-  O534  1  0.07850427  0.67730939  -0.00948241  1
  O2-  O535  1  0.09100037  0.65861463  0.35189686  1
  O2-  O536  1  0.05872686  0.64007419  0.67756972  1
  O2-  O537  1  0.08124406  0.91418705  0.03436342  1
  O2-  O538  1  0.07987418  0.94598123  0.35368849  1
  O2-  O539  1  0.08973794  0.90437380  0.67689619  1
  O2-  O540  1  0.35708672  0.16646745  0.03053585  1
  O2-  O541  1  0.34221798  0.17683273  0.36755675  1
  O2-  O542  1  0.32629843  0.15951672  0.69505402  1
  O2-  O543  1  0.35960089  0.42092340  0.02577094  1
  O2-  O544  1  0.33644330  0.43488730  0.36300592  1
  O2-  O545  1  0.32781412  0.40183702  0.68488144  1
  O2-  O546  1  0.33029416  0.65674070  0.01313506  1
  O2-  O547  1  0.34398802  0.67204204  0.35774327  1
  O2-  O548  1  0.32728237  0.65600591  0.68088471  1
  O2-  O549  1  0.32570913  0.92154100  0.02819200  1
  O2-  O550  1  0.34705390  0.93034377  0.35285967  1
  O2-  O551  1  0.31792368  0.88411084  0.67585905  1
  O2-  O552  1  0.60241237  0.14051870  0.02440263  1
  O2-  O553  1  0.60687295  0.20434019  0.32494807  1
  O2-  O554  1  0.55305098  0.16153861  0.69905211  1
  O2-  O555  1  0.57963205  0.39782945  0.01899642  1
  O2-  O556  1  0.57421258  0.40370855  0.35710516  1
  O2-  O557  1  0.57533189  0.41551202  0.67739854  1
  O2-  O558  1  0.58426030  0.67774802  0.01411915  1
  O2-  O559  1  0.59094817  0.65662242  0.35151328  1
  O2-  O560  1  0.57011590  0.66483722  0.69339273  1
  O2-  O561  1  0.57583722  0.92839278  0.03178688  1
  O2-  O562  1  0.58389170  0.91437740  0.35238118  1
  O2-  O563  1  0.57071327  0.91815383  0.68121560  1
  O2-  O564  1  0.82479555  0.16894191  0.02632566  1
  O2-  O565  1  0.84070987  0.17276143  0.35563586  1
  O2-  O566  1  0.80679291  0.10649021  0.72331477  1
  O2-  O567  1  0.83159725  0.41207575  0.02761219  1
  O2-  O568  1  0.82288281  0.40441364  0.34894356  1
  O2-  O569  1  0.81983212  0.41544190  0.67982222  1
  O2-  O570  1  0.83176835  0.68243940  0.03349044  1
  O2-  O571  1  0.83823650  0.66792344  0.34377022  1
  O2-  O572  1  0.82377589  0.66314179  0.67231987  1
  O2-  O573  1  0.81413385  0.91929683  0.02059543  1
  O2-  O574  1  0.81869723  0.90152548  0.35985944  1
  O2-  O575  1  0.83902908  0.90681519  0.67496221  1
