# generated using pymatgen
data_H2O
_symmetry_space_group_name_H-M   'P 1'
_cell_length_a   17.98127421
_cell_length_b   17.98251381
_cell_length_c   22.00675867
_cell_angle_alpha   89.95867472
_cell_angle_beta   89.99333420
_cell_angle_gamma   119.99528271
_symmetry_Int_Tables_number   1
_chemical_formula_structural   H2O
_chemical_formula_sum   'H384 O192'
_cell_volume   6162.79955460
_cell_formula_units_Z   192
loop_
 _symmetry_equiv_pos_site_id
 _symmetry_equiv_pos_as_xyz
  1  'x, y, z'
loop_
 _atom_type_symbol
 _atom_type_oxidation_number
  H+  1.0
  O2-  -2.0
loop_
 _atom_site_type_symbol
 _atom_site_label
 _atom_site_symmetry_multiplicity
 _atom_site_fract_x
 _atom_site_fract_y
 _atom_site_fract_z
 _atom_site_occupancy
  H+  H0  1  0.62998835  1.00813590  0.51306448  1
  H+  H1  1  0.88044590  0.36044549  0.16636363  1
  H+  H2  1  0.36843015  0.96581407  0.67722835  1
  H+  H3  1  0.01874692  0.39798011  0.00586731  1
  H+  H4  1  0.66463538  0.78641511  0.50494969  1
  H+  H5  1  0.89168787  0.65065810  0.50127283  1
  H+  H6  1  0.38790941  0.87594954  0.50583777  1
  H+  H7  1  0.73264403  0.87703432  0.32644977  1
  H+  H8  1  0.08129521  0.33782765  0.35904715  1
  H+  H9  1  0.88598363  0.98046693  0.50148283  1
  H+  H10  1  0.87322332  0.55610550  0.50061013  1
  H+  H11  1  0.36124876  0.87357805  0.67438625  1
  H+  H12  1  0.51844770  0.65371759  0.83902848  1
  H+  H13  1  0.15602068  0.52706182  0.83963873  1
  H+  H14  1  0.20349100  0.69342702  0.27259403  1
  H+  H15  1  0.22408402  0.54051850  0.88935537  1
  H+  H16  1  0.10153491  0.21710503  0.48370274  1
  H+  H17  1  0.89330569  0.76748491  0.16895474  1
  H+  H18  1  0.63400123  0.60439859  0.50888275  1
  H+  H19  1  0.89612900  0.36015132  0.84700620  1
  H+  H20  1  0.38089348  0.99076176  0.01374771  1
  H+  H21  1  0.39862016  0.10522025  0.66351505  1
  H+  H22  1  0.53531154  0.12543014  0.68555089  1
  H+  H23  1  0.01719935  0.38251504  0.15548883  1
  H+  H24  1  0.93635874  0.32546280  0.59834199  1
  H+  H25  1  0.13046280  0.72374658  0.81439834  1
  H+  H26  1  0.02291377  0.89713184  0.33705870  1
  H+  H27  1  0.10871210  0.13106543  0.49039917  1
  H+  H28  1  0.19411314  0.14869876  0.86579935  1
  H+  H29  1  0.80016361  0.37868867  0.67281715  1
  H+  H30  1  0.97394315  0.60898765  0.16887823  1
  H+  H31  1  0.32282147  0.41055619  0.08056405  1
  H+  H32  1  0.87723972  0.47651683  0.66908785  1
  H+  H33  1  0.29243835  0.12032263  0.81521574  1
  H+  H34  1  0.92295900  0.83244101  0.22506262  1
  H+  H35  1  0.63689229  0.88725644  0.84446008  1
  H+  H36  1  0.91244945  0.36765323  0.65395964  1
  H+  H37  1  0.13521099  0.78693413  0.50433655  1
  H+  H38  1  0.87997788  -0.01193883  0.67849162  1
  H+  H39  1  0.12354810  0.51355163  0.16366484  1
  H+  H40  1  0.37797871  0.78435061  0.49483113  1
  H+  H41  1  0.79114901  0.62644710  0.81590195  1
  H+  H42  1  0.62589294  1.02340248  0.33557093  1
  H+  H43  1  1.03968814  0.62821260  0.81012009  1
  H+  H44  1  0.13361017  0.83977165  0.83232784  1
  H+  H45  1  0.16017455  0.58640164  0.94026416  1
  H+  H46  1  0.61206825  0.88170350  0.49158601  1
  H+  H47  1  0.91078384  0.77322684  0.47154034  1
  H+  H48  1  0.89925185  0.44595696  0.48930811  1
  H+  H49  1  0.46796383  0.60268739  0.31411628  1
  H+  H50  1  0.26960615  0.89991453  0.49706801  1
  H+  H51  1  0.11247477  0.12848480  0.33384488  1
  H+  H52  1  0.89165704  0.74840672  0.66343060  1
  H+  H53  1  0.33324104  0.35438638  0.48626624  1
  H+  H54  1  0.67337369  0.51136810  0.84930458  1
  H+  H55  1  -0.01530166  0.11099931  0.51370328  1
  H+  H56  1  0.54603460  0.66748513  0.67687251  1
  H+  H57  1  0.33654215  0.91947366  0.40355960  1
  H+  H58  1  0.87082356  0.11066818  0.84283135  1
  H+  H59  1  0.61353121  0.38836834  0.16301021  1
  H+  H60  1  0.66903634  0.37680048  0.00456194  1
  H+  H61  1  0.89100521  0.32634599  0.49822767  1
  H+  H62  1  0.10742902  0.38440608  0.15984198  1
  H+  H63  1  0.36089351  0.88516396  0.83306056  1
  H+  H64  1  0.12003395  0.13665090  0.01971628  1
  H+  H65  1  0.12102699  0.41128441  0.81013563  1
  H+  H66  1  0.28226398  0.89188347  0.16728873  1
  H+  H67  1  0.21387897  0.09790778  0.49896507  1
  H+  H68  1  0.86198481  0.13597308  0.15761980  1
  H+  H69  1  0.88555548  0.36803904  0.32020178  1
  H+  H70  1  0.13507168  0.86447515  0.32844148  1
  H+  H71  1  0.30273958  0.43563981  0.67896179  1
  H+  H72  1  0.36353227  0.97750251  0.34518043  1
  H+  H73  1  0.87556138  0.23814673  0.00941474  1
  H+  H74  1  0.85506011  0.47109167  0.15483803  1
  H+  H75  1  0.86520130  1.00337881  0.82967291  1
  H+  H76  1  0.13026209  0.15187864  0.16052904  1
  H+  H77  1  0.17827224  0.27072091  -0.01281976  1
  H+  H78  1  0.31791879  0.65927413  0.72915349  1
  H+  H79  1  -0.02462166  0.11670183  0.32486414  1
  H+  H80  1  0.64136450  0.03995143  0.16924253  1
  H+  H81  1  0.11906214  -0.02751571  0.67168707  1
  H+  H82  1  0.86065830  0.60728458  0.00271261  1
  H+  H83  1  0.36083632  0.66439832  0.47531815  1
  H+  H84  1  0.67838888  0.35324557  0.52609751  1
  H+  H85  1  0.62110036  0.11759345  0.33518153  1
  H+  H86  1  0.64089444  1.00939879  0.66890406  1
  H+  H87  1  0.36601530  0.21870868  0.82460763  1
  H+  H88  1  0.12654388  0.85140830  -0.01267195  1
  H+  H89  1  0.18049284  0.35021496  0.88449208  1
  H+  H90  1  0.76576316  0.90402181  0.82609982  1
  H+  H91  1  0.26657400  0.38005079  0.33328952  1
  H+  H92  1  0.77124393  0.63313782  0.16198482  1
  H+  H93  1  0.38748478  0.11727022  0.17914548  1
  H+  H94  1  0.37113648  0.65450538  0.82336788  1
  H+  H95  1  0.49531987  0.12109796  0.50882435  1
  H+  H96  1  0.86135271  0.98767630  0.34505634  1
  H+  H97  1  0.81169760  0.71311174  0.46763219  1
  H+  H98  1  0.40489429  0.82137875  0.59404936  1
  H+  H99  1  0.77845507  0.88584048  0.15532674  1
  H+  H100  1  0.13775247  0.62266595  0.50442783  1
  H+  H101  1  0.58356933  0.91983126  0.39940539  1
  H+  H102  1  0.90558723  0.08207161  0.22903875  1
  H+  H103  1  0.53501973  0.27951722  0.78549593  1
  H+  H104  1  0.36029180  0.98673752  0.49888909  1
  H+  H105  1  0.89519477  0.86855792  0.99271147  1
  H+  H106  1  0.39500830  0.01979238  0.84566008  1
  H+  H107  1  0.38084385  0.21933911  0.32308101  1
  H+  H108  1  0.75493146  0.73415391  0.87346924  1
  H+  H109  1  0.63399878  0.52549940  0.17055878  1
  H+  H110  1  0.04037663  0.15057078  0.00824602  1
  H+  H111  1  0.35315672  0.63529008  0.15138369  1
  H+  H112  1  0.96361796  0.11833076  0.83151669  1
  H+  H113  1  0.11493333  0.23569962  0.66387328  1
  H+  H114  1  0.23437059  0.10680439  1.00964535  1
  H+  H115  1  0.32880478  0.15010190  0.41649451  1
  H+  H116  1  0.61980828  0.75012160  0.33750482  1
  H+  H117  1  0.16310510  0.57415588  0.55344517  1
  H+  H118  1  0.37898322  0.63239817  0.99698838  1
  H+  H119  1  0.43683175  0.33608054  0.49965908  1
  H+  H120  1  0.81530399  0.45272339  1.00094848  1
  H+  H121  1  0.40321935  0.11151777  0.84254558  1
  H+  H122  1  0.39044132  0.39460103  0.82399139  1
  H+  H123  1  0.26123269  0.62892795  0.15266634  1
  H+  H124  1  0.10547225  0.63094137  0.15167472  1
  H+  H125  1  0.38738566  0.36069885  0.15769429  1
  H+  H126  1  0.86710840  0.88338385  0.15554317  1
  H+  H127  1  0.77682826  0.63347994  0.33040931  1
  H+  H128  1  0.12267002  0.52793573  -0.00011349  1
  H+  H129  1  0.54628294  0.94625555  -0.00395059  1
  H+  H130  1  0.44111457  0.15699683  0.54035915  1
  H+  H131  1  0.87209967  0.62218895  0.32857301  1
  H+  H132  1  0.88910569  0.88777743  0.32453613  1
  H+  H133  1  0.61981126  0.89996097  0.15000906  1
  H+  H134  1  0.14409947  0.01783576  0.32274098  1
  H+  H135  1  0.12155573  0.14895246  0.67221745  1
  H+  H136  1  0.23328858  0.64137773  0.31155609  1
  H+  H137  1  0.63882808  0.78473208  0.16914853  1
  H+  H138  1  0.88862603  0.12246781  0.32409077  1
  H+  H139  1  0.86776639  0.23047931  0.15542412  1
  H+  H140  1  0.63263909  0.21513075  0.49846569  1
  H+  H141  1  0.38638259  0.77971905  0.84552604  1
  H+  H142  1  0.88036965  0.02388176  0.16958453  1
  H+  H143  1  0.20539872  0.58272586  0.65607505  1
  H+  H144  1  0.80102942  0.37137389  0.49696057  1
  H+  H145  1  0.61946562  0.75534222  0.01166157  1
  H+  H146  1  0.12281760  0.96817302  0.00817784  1
  H+  H147  1  0.80003054  0.89145561  0.49679739  1
  H+  H148  1  0.00008562  0.62647262  0.00096885  1
  H+  H149  1  0.67203135  0.85809436  0.93667734  1
  H+  H150  1  0.93810099  0.89277476  0.49788456  1
  H+  H151  1  0.85030227  0.23330361  0.32234806  1
  H+  H152  1  0.33329886  0.91181534  0.77085542  1
  H+  H153  1  0.36604625  0.77393392  1.00211661  1
  H+  H154  1  0.62442048  0.47966361  1.00854359  1
  H+  H155  1  0.32789215  0.67321603  0.38420476  1
  H+  H156  1  0.42156208  0.46204385  0.08528021  1
  H+  H157  1  0.62545573  0.65171084  0.68430681  1
  H+  H158  1  0.87253328  0.22700019  0.68100276  1
  H+  H159  1  0.37666033  0.13945926  0.01217915  1
  H+  H160  1  0.89532664  0.11725269  0.67105044  1
  H+  H161  1  0.38911599  0.53785084  0.84907343  1
  H+  H162  1  0.65787288  0.67434640  0.85515834  1
  H+  H163  1  0.47223242  0.36327811  0.31212251  1
  H+  H164  1  0.90065261  0.03332790  0.99614026  1
  H+  H165  1  0.31995890  0.35260045  0.67588831  1
  H+  H166  1  0.52030119  0.88046384  0.49222373  1
  H+  H167  1  0.43731084  0.35562745  0.65197412  1
  H+  H168  1  0.35517643  0.22663862  0.15961790  1
  H+  H169  1  0.36550258  0.22335108  0.00998789  1
  H+  H170  1  0.15543303  0.58119214  0.21982199  1
  H+  H171  1  0.39317778  0.86719283  0.32440137  1
  H+  H172  1  0.63371881  0.79625439  0.84356740  1
  H+  H173  1  0.62916125  0.27253940  0.17784161  1
  H+  H174  1  0.49234074  0.12235440  1.00058335  1
  H+  H175  1  0.63657998  0.28125092  0.33056755  1
  H+  H176  1  0.88641282  0.14844902  1.00977301  1
  H+  H177  1  0.98603457  0.61821679  0.65459109  1
  H+  H178  1  0.34363285  0.70582651  0.66472870  1
  H+  H179  1  0.86114213  0.34777594  0.99691814  1
  H+  H180  1  0.24968144  0.11817600  0.16456134  1
  H+  H181  1  0.00654787  0.34887253  0.46233200  1
  H+  H182  1  0.05189137  0.42925625  0.65399773  1
  H+  H183  1  0.77040251  0.38899866  0.33706605  1
  H+  H184  1  0.22639337  0.10348851  0.65835006  1
  H+  H185  1  0.23135383  0.85524657  0.66008787  1
  H+  H186  1  0.88112548  0.51931069  0.32905505  1
  H+  H187  1  0.86387687  0.10779636  0.51032492  1
  H+  H188  1  0.74931087  0.88320591  0.65848779  1
  H+  H189  1  0.65274747  0.89912949  0.99366295  1
  H+  H190  1  0.62042895  0.11719161  0.68584973  1
  H+  H191  1  0.55976182  0.36693219  0.66054660  1
  H+  H192  1  0.88957416  0.23798780  0.50569149  1
  H+  H193  1  0.14167868  0.85406862  0.66030782  1
  H+  H194  1  -0.01867869  0.86170132  -0.00525478  1
  H+  H195  1  0.71801119  0.12181667  0.32815366  1
  H+  H196  1  0.26483128  0.64908440  0.48070585  1
  H+  H197  1  0.33458676  0.44062988  0.49950508  1
  H+  H198  1  0.53705075  0.13737399  0.84013491  1
  H+  H199  1  0.12302890  0.88410407  0.15935261  1
  H+  H200  1  0.73494593  0.64702604  1.00714091  1
  H+  H201  1  0.39728023  0.54647434  0.64127511  1
  H+  H202  1  0.12619985  0.29491342  0.82950699  1
  H+  H203  1  0.66590999  0.06762719  0.60956604  1
  H+  H204  1  0.64483694  0.11430946  0.87000741  1
  H+  H205  1  0.65881881  0.27733486  0.85021217  1
  H+  H206  1  0.64038226  0.65665961  0.00537320  1
  H+  H207  1  0.61467870  0.99514249  0.85457203  1
  H+  H208  1  0.41338051  0.57796863  0.46596641  1
  H+  H209  1  0.12070001  0.01688679  0.50839627  1
  H+  H210  1  0.37624051  0.87904034  0.00443380  1
  H+  H211  1  0.76414295  0.12888648  0.84345141  1
  H+  H212  1  0.63433834  0.22316352  0.01400278  1
  H+  H213  1  0.61373244  0.64416752  0.15900083  1
  H+  H214  1  0.28120657  0.64587557  0.82958454  1
  H+  H215  1  0.14133680  0.77110654  0.17119029  1
  H+  H216  1  0.62944411  0.50432807  0.85676253  1
  H+  H217  1  0.89660399  0.75915908  0.84232295  1
  H+  H218  1  0.35623536  0.34225070  0.98141463  1
  H+  H219  1  0.13641599  0.26457435  0.32832263  1
  H+  H220  1  0.40994049  0.32134289  0.89763424  1
  H+  H221  1  0.56609582  0.36750959  0.47495469  1
  H+  H222  1  0.11109288  0.62095227  0.66296732  1
  H+  H223  1  0.01713898  0.86030330  0.82684216  1
  H+  H224  1  0.20340639  0.34630082  0.48802891  1
  H+  H225  1  0.78645441  0.90188692  0.00419410  1
  H+  H226  1  0.36741062  0.98663744  0.17258342  1
  H+  H227  1  0.52388201  0.38606034  0.15706948  1
  H+  H228  1  0.71939224  0.36093166  0.17632203  1
  H+  H229  1  0.51882928  0.15219596  0.34940784  1
  H+  H230  1  0.09273522  0.62834715  0.00000592  1
  H+  H231  1  0.59375661  0.94208843  0.09398466  1
  H+  H232  1  0.40652118  1.11531060  0.27793171  1
  H+  H233  1  0.52703653  0.89394944  0.33759094  1
  H+  H234  1  0.55492324  0.65876862  0.48796807  1
  H+  H235  1  0.70014569  0.56959275  0.51347906  1
  H+  H236  1  1.02476636  0.65370780  0.49548934  1
  H+  H237  1  0.13362750  0.37292007  0.63969055  1
  H+  H238  1  0.66420038  0.79233454  0.65799155  1
  H+  H239  1  0.35393890  0.24266883  0.49820598  1
  H+  H240  1  0.35724301  0.21270366  0.66411378  1
  H+  H241  1  0.03361163  0.88435271  0.15694422  1
  H+  H242  1  0.47703192  0.11951749  0.18434352  1
  H+  H243  1  0.61076944  0.39139568  0.33098684  1
  H+  H244  1  0.47166510  0.33682453  0.83984917  1
  H+  H245  1  0.46471985  0.84059208  0.65180258  1
  H+  H246  1  0.86532466  0.73537009  1.01329840  1
  H+  H247  1  0.11128195  0.94303376  0.82265677  1
  H+  H248  1  -0.01225199  0.12211358  0.66862551  1
  H+  H249  1  0.88888034  0.64939980  0.66476064  1
  H+  H250  1  0.61406786  0.49618590  0.66429565  1
  H+  H251  1  0.66840041  0.33631966  0.66893873  1
  H+  H252  1  0.59359853  0.42105319  0.06710434  1
  H+  H253  1  0.12486076  0.71937736  0.66234286  1
  H+  H254  1  0.10868463  0.74704010  0.98659654  1
  H+  H255  1  -0.02739193  0.61261709  0.32995052  1
  H+  H256  1  0.64554797  0.61916235  0.32679862  1
  H+  H257  1  0.88056105  0.62698090  0.81370268  1
  H+  H258  1  0.10686337  0.06233709  0.86621618  1
  H+  H259  1  0.14626397  1.01493278  0.16622643  1
  H+  H260  1  0.96144176  0.34570689  0.33001913  1
  H+  H261  1  0.46843800  0.63430551  0.99845646  1
  H+  H262  1  0.61192390  0.14253331  0.16674090  1
  H+  H263  1  0.22947493  0.85264574  0.83750679  1
  H+  H264  1  0.22301897  0.86257110  0.33094078  1
  H+  H265  1  0.35713716  0.63575490  0.32740813  1
  H+  H266  1  0.14550333  0.28236336  0.17720832  1
  H+  H267  1  0.99366339  0.86863479  0.65700913  1
  H+  H268  1  0.10053466  0.72892129  0.34186458  1
  H+  H269  1  0.61810696  0.12058889  0.49714297  1
  H+  H270  1  0.72252599  0.09107830  0.51779664  1
  H+  H271  1  0.64768264  0.60335502  0.66549355  1
  H+  H272  1  0.39159463  0.52900365  0.15690441  1
  H+  H273  1  0.49819288  0.89050318  0.16638587  1
  H+  H274  1  0.52426065  0.64450339  0.15819949  1
  H+  H275  1  0.78219650  0.13815051  0.67916990  1
  H+  H276  1  0.34897485  0.11518734  0.47597027  1
  H+  H277  1  0.61579033  0.12501153  0.01833269  1
  H+  H278  1  0.47296477  0.87221560  0.85433606  1
  H+  H279  1  0.10531872  0.18843118  0.10305950  1
  H+  H280  1  0.88173214  0.26610339  0.85272337  1
  H+  H281  1  0.22381863  0.37795175  0.18547895  1
  H+  H282  1  0.90676707  0.51651075  0.82574102  1
  H+  H283  1  0.40077047  0.89003424  0.17313529  1
  H+  H284  1  0.09281820  0.16447207  0.83005880  1
  H+  H285  1  0.63766164  0.52644339  0.32351209  1
  H+  H286  1  0.57282451  0.45649001  0.48834050  1
  H+  H287  1  0.25604273  0.43316865  -0.00764740  1
  H+  H288  1  0.16523141  0.84028359  0.56548620  1
  H+  H289  1  0.81016929  0.40531698  0.09937991  1
  H+  H290  1  0.87807929  0.89746693  0.67743987  1
  H+  H291  1  0.41158930  0.59869869  0.90820626  1
  H+  H292  1  0.43508731  0.07434523  0.60982570  1
  H+  H293  1  0.84887258  0.17435439  0.07611332  1
  H+  H294  1  0.40893884  0.57703453  0.22105416  1
  H+  H295  1  0.92553304  0.09154971  0.93683338  1
  H+  H296  1  0.34295985  0.15953866  0.72494027  1
  H+  H297  1  0.58952547  0.69051035  0.07065779  1
  H+  H298  1  0.67282937  0.84887123  0.22535653  1
  H+  H299  1  0.91467234  0.57627808  0.22825542  1
  H+  H300  1  0.15694039  0.33168011  0.27435260  1
  H+  H301  1  0.17632204  0.07398891  0.22951798  1
  H+  H302  1  0.10540953  0.64454460  0.33920118  1
  H+  H303  1  0.83034217  0.67282150  0.07378712  1
  H+  H304  1  0.81618593  0.10064304  0.44943526  1
  H+  H305  1  0.32952072  0.41013639  0.38947721  1
  H+  H306  1  0.43627714  0.85546852  0.23242237  1
  H+  H307  1  0.61037911  0.35362039  0.82044755  1
  H+  H308  1  0.37879669  0.51417710  0.31798240  1
  H+  H309  1  0.10055870  0.66516480  0.74666790  1
  H+  H310  1  0.92087643  0.59536614  0.59813104  1
  H+  H311  1  0.82818282  0.18861313  0.38535020  1
  H+  H312  1  0.59965934  0.16276784  0.78293412  1
  H+  H313  1  0.32707501  0.40097891  0.74283596  1
  H+  H314  1  0.83563844  0.41120257  0.39387112  1
  H+  H315  1  0.68657752  0.64178253  0.94157420  1
  H+  H316  1  0.40168431  0.83651093  0.93960200  1
  H+  H317  1  0.65743953  0.24357031  0.67217151  1
  H+  H318  1  0.39369911  0.77850817  0.31664177  1
  H+  H319  1  0.85253575  0.68554207  0.38229423  1
  H+  H320  1  0.66415943  0.33543987  0.26818985  1
  H+  H321  1  0.58010840  0.68443799  0.77974469  1
  H+  H322  1  0.07331489  0.66636326  0.09683374  1
  H+  H323  1  0.56338441  0.86614009  0.72326457  1
  H+  H324  1  0.79022841  0.39404537  0.82495419  1
  H+  H325  1  0.56671849  0.41733721  0.38415788  1
  H+  H326  1  0.61648003  0.68084180  0.43278108  1
  H+  H327  1  0.94010910  0.84429482  0.59544440  1
  H+  H328  1  0.08700839  0.88033734  0.50191095  1
  H+  H329  1  0.85912044  0.62819001  0.16031697  1
  H+  H330  1  0.37593286  0.31247309  0.59423490  1
  H+  H331  1  0.82012142  0.16061787  0.77966076  1
  H+  H332  1  0.90464147  0.32761544  0.93947652  1
  H+  H333  1  0.57613146  0.95333990  0.78974976  1
  H+  H334  1  0.64519072  0.87926616  0.32254170  1
  H+  H335  1  0.08039831  0.67616040  0.43531904  1
  H+  H336  1  0.25897669  0.64919570  0.00936730  1
  H+  H337  1  0.37914058  0.35359008  0.31724270  1
  H+  H338  1  0.95449214  0.58367061  0.87993938  1
  H+  H339  1  0.43121602  0.08908362  0.94147522  1
  H+  H340  1  0.16811804  0.82894446  0.23201757  1
  H+  H341  1  0.61868054  0.87759005  0.66541411  1
  H+  H342  1  0.55903456  0.38922932  0.72978073  1
  H+  H343  1  0.84108363  0.92706454  0.40428137  1
  H+  H344  1  0.85072469  0.41683129  0.76473137  1
  H+  H345  1  0.07309163  0.18079487  0.76172744  1
  H+  H346  1  0.72779436  0.12744350  0.16545439  1
  H+  H347  1  0.58251053  0.16817639  0.40555029  1
  H+  H348  1  0.57767198  0.16872095  0.10883872  1
  H+  H349  1  0.34805133  0.93037427  0.07367650  1
  H+  H350  1  0.07318073  0.91472043  0.39972440  1
  H+  H351  1  0.83442733  0.92861147  0.76752229  1
  H+  H352  1  0.68920378  0.84854891  0.56224379  1
  H+  H353  1  0.07997601  0.15328380  0.39455202  1
  H+  H354  1  0.93120912  0.08331383  0.57876433  1
  H+  H355  1  0.16589340  0.08860031  0.95751904  1
  H+  H356  1  0.14114049  0.32523975  0.58158729  1
  H+  H357  1  0.95779966  0.93738108  0.27608401  1
  H+  H358  1  0.45489196  0.36761833  0.99279746  1
  H+  H359  1  0.91458478  0.33526788  0.22567402  1
  H+  H360  1  0.85759478  0.68059144  0.72668538  1
  H+  H361  1  0.11464101  0.34446661  0.47691180  1
  H+  H362  1  0.08470429  0.90499402  0.72825802  1
  H+  H363  1  0.69273610  0.34725095  0.90310862  1
  H+  H364  1  0.23583541  0.10320206  0.31631421  1
  H+  H365  1  0.85686556  0.56437581  0.94112759  1
  H+  H366  1  0.11239238  0.45947983  0.75224105  1
  H+  H367  1  0.70160871  0.30899897  0.57809003  1
  H+  H368  1  0.66562501  0.58711240  0.22866331  1
  H+  H369  1  0.15424379  0.81347038  0.92415754  1
  H+  H370  1  0.32129375  0.67617729  0.06862704  1
  H+  H371  1  0.09146386  0.90368220  0.06375653  1
  H+  H372  1  0.44366001  0.47985015  0.78701138  1
  H+  H373  1  0.42392290  0.61124102  0.53272040  1
  H+  H374  1  0.84453223  0.92268033  0.06328393  1
  H+  H375  1  0.32595744  0.56787825  0.66183347  1
  H+  H376  1  0.66213987  0.06892870  0.93277879  1
  H+  H377  1  0.53693071  0.70424660  0.37659234  1
  H+  H378  1  0.33193448  0.16351034  0.09992803  1
  H+  H379  1  0.16420188  0.07791709  0.60110695  1
  H+  H380  1  0.08074637  0.42266990  0.06236562  1
  H+  H381  1  0.40751754  0.33066604  0.22276979  1
  H+  H382  1  0.64884337  0.55786867  0.59760857  1
  H+  H383  1  0.92451576  0.82233189  0.90048400  1
  O2-  O384  1  0.11255507  0.19285244  0.14795205  1
  O2-  O385  1  0.07338330  0.15417838  0.47245101  1
  O2-  O386  1  0.05934747  0.18344146  0.80572826  1
  O2-  O387  1  0.07834161  0.41385318  0.14137598  1
  O2-  O388  1  0.05873248  0.37918295  0.43558202  1
  O2-  O389  1  0.10252087  0.45237173  0.79641707  1
  O2-  O390  1  0.07776159  0.66651113  0.14170862  1
  O2-  O391  1  0.08446932  0.68164689  0.48058768  1
  O2-  O392  1  0.10132486  0.66399745  0.79436672  1
  O2-  O393  1  0.09484500  0.91595344  0.14239263  1
  O2-  O394  1  0.05525298  0.90919943  0.48473352  1
  O2-  O395  1  0.07724807  0.88487789  0.80681266  1
  O2-  O396  1  0.32553467  0.16359569  0.14615559  1
  O2-  O397  1  0.31933213  0.14527526  0.46149657  1
  O2-  O398  1  0.35129431  0.16257250  0.80424778  1
  O2-  O399  1  0.37031656  0.43276369  0.11074662  1
  O2-  O400  1  0.31356917  0.39412412  0.47000853  1
  O2-  O401  1  0.38526058  0.44049612  0.80113634  1
  O2-  O402  1  0.32158284  0.66449253  0.13835819  1
  O2-  O403  1  0.32343657  0.68564243  0.46025752  1
  O2-  O404  1  0.33807365  0.68190590  0.80856352  1
  O2-  O405  1  0.34394791  0.92757815  0.15458260  1
  O2-  O406  1  0.33077448  0.92794650  0.48266393  1
  O2-  O407  1  0.32971920  0.91409047  0.81626526  1
  O2-  O408  1  0.57593849  0.16950419  0.15416243  1
  O2-  O409  1  0.59352120  0.15695699  0.48183682  1
  O2-  O410  1  0.59863001  0.17163667  0.82748085  1
  O2-  O411  1  0.58543600  0.42002521  0.14540071  1
  O2-  O412  1  0.53874651  0.40151560  0.46619316  1
  O2-  O413  1  0.55808394  0.34031462  0.79516282  1
  O2-  O414  1  0.58586650  0.67725124  0.14476949  1
  O2-  O415  1  0.61514257  0.67494594  0.47801539  1
  O2-  O416  1  0.57982967  0.68873534  0.82445460  1
  O2-  O417  1  0.58687592  0.92938306  0.13843408  1
  O2-  O418  1  0.58090669  0.91085728  0.47653054  1
  O2-  O419  1  0.57778606  0.93567321  0.83139337  1
  O2-  O420  1  0.83718304  0.17088380  0.13793927  1
  O2-  O421  1  0.82477215  0.12678981  0.48953925  1
  O2-  O422  1  0.82319701  0.15862661  0.82476902  1
  O2-  O423  1  0.82073959  0.40902244  0.14371820  1
  O2-  O424  1  0.85321754  0.39421295  0.47047313  1
  O2-  O425  1  0.85084972  0.42326506  0.80991458  1
  O2-  O426  1  0.83194603  0.66242711  0.14669438  1
  O2-  O427  1  0.86481781  0.71412226  0.45652183  1
  O2-  O428  1  0.85006295  0.65783518  0.79990560  1
  O2-  O429  1  0.83880761  0.91495905  0.14000149  1
  O2-  O430  1  0.86045185  0.92239171  0.48171215  1
  O2-  O431  1  0.82855033  0.93420068  0.81288173  1
  O2-  O432  1  0.17877765  0.07636203  0.18293681  1
  O2-  O433  1  0.15900421  0.07762778  0.52100917  1
  O2-  O434  1  0.13736449  0.11929931  0.88461661  1
  O2-  O435  1  0.16356987  0.34115547  0.19612396  1
  O2-  O436  1  0.14277285  0.31811041  0.50157394  1
  O2-  O437  1  0.16829330  0.35436910  0.84157902  1
  O2-  O438  1  0.15300767  0.57659664  0.17496930  1
  O2-  O439  1  0.17235259  0.59447770  0.51101499  1
  O2-  O440  1  0.19772131  0.57136380  0.87110954  1
  O2-  O441  1  0.17374440  0.83153877  0.18686800  1
  O2-  O442  1  0.16093923  0.84677587  0.52075017  1
  O2-  O443  1  0.16673642  0.81293905  0.84956972  1
  O2-  O444  1  0.41606986  0.09009087  0.20066087  1
  O2-  O445  1  0.43641512  0.10322176  0.52630278  1
  O2-  O446  1  0.42945619  0.07994410  0.86119223  1
  O2-  O447  1  0.40970615  0.32592908  0.17727245  1
  O2-  O448  1  0.37790577  0.30121904  0.51673362  1
  O2-  O449  1  0.41175660  0.31912849  0.85203823  1
  O2-  O450  1  0.41656176  0.58610396  0.17627445  1
  O2-  O451  1  0.44356829  0.62963096  0.49106345  1
  O2-  O452  1  0.41572161  0.59821011  0.86189704  1
  O2-  O453  1  0.43726547  0.86267361  0.18628904  1
  O2-  O454  1  0.41458951  0.84039817  0.51610872  1
  O2-  O455  1  0.41078380  0.83729900  0.86606158  1
  O2-  O456  1  0.66963533  0.09983430  0.18371859  1
  O2-  O457  1  0.66149654  0.06752236  0.53081210  1
  O2-  O458  1  0.66979646  0.07845258  0.88249413  1
  O2-  O459  1  0.65974265  0.33368933  0.19317375  1
  O2-  O460  1  0.70327657  0.31650989  0.53254335  1
  O2-  O461  1  0.68670760  0.34068835  0.85820185  1
  O2-  O462  1  0.66492501  0.58731084  0.18356962  1
  O2-  O463  1  0.64424264  0.55853300  0.52856155  1
  O2-  O464  1  0.70880733  0.67432325  0.87420584  1
  O2-  O465  1  0.67113256  0.84693302  0.18014706  1
  O2-  O466  1  0.68852903  0.84724592  0.51677006  1
  O2-  O467  1  0.67004309  0.85783434  0.85571020  1
  O2-  O468  1  0.90132709  0.08302786  0.18433530  1
  O2-  O469  1  0.92602843  0.07783285  0.53334767  1
  O2-  O470  1  0.90582177  0.08060035  0.85181470  1
  O2-  O471  1  0.91329503  0.33241250  0.18042845  1
  O2-  O472  1  0.92384454  0.30026240  0.51498349  1
  O2-  O473  1  0.91395173  0.32470738  0.87001876  1
  O2-  O474  1  0.91267545  0.57648972  0.18338947  1
  O2-  O475  1  0.90948066  0.61140055  0.52028335  1
  O2-  O476  1  0.94385472  0.58188109  0.83624639  1
  O2-  O477  1  0.92674251  0.82976122  0.18032155  1
  O2-  O478  1  0.96738956  0.85961367  0.51102335  1
  O2-  O479  1  0.92640281  0.81989072  0.85521645  1
  O2-  O480  1  0.17527037  0.07552633  0.30250895  1
  O2-  O481  1  0.16498286  0.07696184  0.64652739  1
  O2-  O482  1  0.17132462  0.07522841  1.00022052  1
  O2-  O483  1  0.16108376  0.32719813  0.31944875  1
  O2-  O484  1  0.14749852  0.32898595  0.62647051  1
  O2-  O485  1  0.22864276  0.31909027  0.96499798  1
  O2-  O486  1  0.18073266  0.63758688  0.29239157  1
  O2-  O487  1  0.14539723  0.55070416  0.63882428  1
  O2-  O488  1  0.15149047  0.59082002  0.98469136  1
  O2-  O489  1  0.16382684  0.83234091  0.31405698  1
  O2-  O490  1  0.17096635  0.82341073  0.64414081  1
  O2-  O491  1  0.14667068  0.81070807  0.97010426  1
  O2-  O492  1  0.40901084  0.12291566  0.32352123  1
  O2-  O493  1  0.43133804  0.07481730  0.65464900  1
  O2-  O494  1  0.43062677  0.09248977  0.98667674  1
  O2-  O495  1  0.41099837  0.32593450  0.29996480  1
  O2-  O496  1  0.37718833  0.31670453  0.63993226  1
  O2-  O497  1  0.39961417  0.32464233  0.97488501  1
  O2-  O498  1  0.40743755  0.57479061  0.30170203  1
  O2-  O499  1  0.33532241  0.52082351  0.64532701  1
  O2-  O500  1  0.40983511  0.60283558  0.98179247  1
  O2-  O501  1  0.42578177  0.84142108  0.30561172  1
  O2-  O502  1  0.40381448  0.81419379  0.63931728  1
  O2-  O503  1  0.40027043  0.83743055  0.98584629  1
  O2-  O504  1  0.65295799  0.08657960  0.32108485  1
  O2-  O505  1  0.67056967  0.06994608  0.65503403  1
  O2-  O506  1  0.65087830  0.06050306  0.99459337  1
  O2-  O507  1  0.66655921  0.34072003  0.31419181  1
  O2-  O508  1  0.69421447  0.30364193  0.65340190  1
  O2-  O509  1  0.70070574  0.34835711  0.98749770  1
  O2-  O510  1  0.67438291  0.58902669  0.31124091  1
  O2-  O511  1  0.65647885  0.55693012  0.64518810  1
  O2-  O512  1  0.67534164  0.62617208  0.98711220  1
  O2-  O513  1  0.67357538  0.84707512  0.30811553  1
  O2-  O514  1  0.68978484  0.85091895  0.64075097  1
  O2-  O515  1  0.67347197  0.85918242  0.98199189  1
  O2-  O516  1  0.91343368  0.08635681  0.31261803  1
  O2-  O517  1  0.92567945  0.08700561  0.65570258  1
  O2-  O518  1  0.93125589  0.09464302  0.98163813  1
  O2-  O519  1  0.91033232  0.33301846  0.30442714  1
  O2-  O520  1  0.94374629  0.33714961  0.64268148  1
  O2-  O521  1  0.90192272  0.32822262  0.98626861  1
  O2-  O522  1  0.91109815  0.58128846  0.31380625  1
  O2-  O523  1  0.92380914  0.59291651  0.64327257  1
  O2-  O524  1  0.87981232  0.56958820  0.98207134  1
  O2-  O525  1  0.93342181  0.88339376  0.29873757  1
  O2-  O526  1  0.93245658  0.83795122  0.64015603  1
  O2-  O527  1  0.92064971  0.83213579  0.98022041  1
  O2-  O528  1  0.10057945  0.17927512  0.02360071  1
  O2-  O529  1  0.08160073  0.15736489  0.34896825  1
  O2-  O530  1  0.09131302  0.17925463  0.68624861  1
  O2-  O531  1  0.07983493  0.43157177  0.01776090  1
  O2-  O532  1  0.02686272  0.32824591  0.37904120  1
  O2-  O533  1  0.11384653  0.46445582  0.66660201  1
  O2-  O534  1  0.06131868  0.66101941  0.01260635  1
  O2-  O535  1  0.06973810  0.66779756  0.35662652  1
  O2-  O536  1  0.08958881  0.65899507  0.67934026  1
  O2-  O537  1  0.09060506  0.90490790  0.01813510  1
  O2-  O538  1  0.08097895  0.91677778  0.35510632  1
  O2-  O539  1  0.08867946  0.90971742  0.68309706  1
  O2-  O540  1  0.34121796  0.16487777  0.02790415  1
  O2-  O541  1  0.35068973  0.15764126  0.33775796  1
  O2-  O542  1  0.33897302  0.15427292  0.67988974  1
  O2-  O543  1  0.26106162  0.38699990  0.01234732  1
  O2-  O544  1  0.32975985  0.41115814  0.34440550  1
  O2-  O545  1  0.29519083  0.38167833  0.70202430  1
  O2-  O546  1  0.32074792  0.68238805  0.02194172  1
  O2-  O547  1  0.33357237  0.67354973  0.33868029  1
  O2-  O548  1  0.30994151  0.64821874  0.68444137  1
  O2-  O549  1  0.34825243  0.92951525  0.02842247  1
  O2-  O550  1  0.33809810  0.91736686  0.35806204  1
  O2-  O551  1  0.33353122  0.90530267  0.69163341  1
  O2-  O552  1  0.59273215  0.16519149  0.02899276  1
  O2-  O553  1  0.57950151  0.17180776  0.36014368  1
  O2-  O554  1  0.59555860  0.15308383  0.70128035  1
  O2-  O555  1  0.59665877  0.41965361  0.02158782  1
  O2-  O556  1  0.57859406  0.42288666  0.34000751  1
  O2-  O557  1  0.55237158  0.40663760  0.68692278  1
  O2-  O558  1  0.59255773  0.69354100  0.02455660  1
  O2-  O559  1  0.58086697  0.69353081  0.35929783  1
  O2-  O560  1  0.60231233  0.69067232  0.69659175  1
  O2-  O561  1  0.60420038  0.96775730  0.01276318  1
  O2-  O562  1  0.58710006  0.92768183  0.35390202  1
  O2-  O563  1  0.57619767  0.89285647  0.68315056  1
  O2-  O564  1  0.85484174  0.17723694  0.02674138  1
  O2-  O565  1  0.81866692  0.17393249  0.34222018  1
  O2-  O566  1  0.84012972  0.16796514  0.69814636  1
  O2-  O567  1  0.78677926  0.39238826  0.01665605  1
  O2-  O568  1  0.83283374  0.41977045  0.34942873  1
  O2-  O569  1  0.85966947  0.41928210  0.68655309  1
  O2-  O570  1  0.82652849  0.67440217  0.02770141  1
  O2-  O571  1  0.84075179  0.66268261  0.33951949  1
  O2-  O572  1  0.86126033  0.68484750  0.68053551  1
  O2-  O573  1  0.84706220  0.92602469  0.01753221  1
  O2-  O574  1  0.83213549  0.92622270  0.35933583  1
  O2-  O575  1  0.84676519  0.92588467  0.69282778  1
