# generated using pymatgen
data_H2O
_symmetry_space_group_name_H-M   'P 1'
_cell_length_a   18.00023012
_cell_length_b   18.00066817
_cell_length_c   22.00930046
_cell_angle_alpha   90.00117006
_cell_angle_beta   90.01499394
_cell_angle_gamma   120.02320036
_symmetry_Int_Tables_number   1
_chemical_formula_structural   H2O
_chemical_formula_sum   'H384 O192'
_cell_volume   6174.50227486
_cell_formula_units_Z   192
loop_
 _symmetry_equiv_pos_site_id
 _symmetry_equiv_pos_as_xyz
  1  'x, y, z'
loop_
 _atom_type_symbol
 _atom_type_oxidation_number
  H+  1.0
  O2-  -2.0
loop_
 _atom_site_type_symbol
 _atom_site_label
 _atom_site_symmetry_multiplicity
 _atom_site_fract_x
 _atom_site_fract_y
 _atom_site_fract_z
 _atom_site_occupancy
  H+  H0  1  0.76230033  0.86860141  0.15804845  1
  H+  H1  1  0.88331380  0.54936599  0.52418962  1
  H+  H2  1  0.84106923  0.42513660  0.09617962  1
  H+  H3  1  -0.01569960  0.35777478  0.51737294  1
  H+  H4  1  0.14620339  0.53652640  0.50745109  1
  H+  H5  1  0.89795906  0.37037039  0.15965519  1
  H+  H6  1  0.11975552  0.63691760  0.49739090  1
  H+  H7  1  0.36015524  0.96647592  0.67069429  1
  H+  H8  1  0.88847874  0.61802647  0.16928214  1
  H+  H9  1  0.38806627  0.76679446  0.16767449  1
  H+  H10  1  0.37121911  0.11263062  0.51122190  1
  H+  H11  1  0.41969358  0.83296591  0.60351837  1
  H+  H12  1  0.38327000  0.31344891  0.66806809  1
  H+  H13  1  0.73634554  0.86891218  0.32275832  1
  H+  H14  1  0.35634392  0.14412114  0.00214079  1
  H+  H15  1  0.36298650  0.36812856  0.33479756  1
  H+  H16  1  0.72004147  0.23151617  0.49314179  1
  H+  H17  1  0.64890599  0.11453091  -0.01743372  1
  H+  H18  1  0.52604770  0.38769851  0.15500096  1
  H+  H19  1  0.13138487  0.85638798  0.66648865  1
  H+  H20  1  0.01944203  0.13145542  0.16178968  1
  H+  H21  1  0.67097835  0.82377236  0.21657635  1
  H+  H22  1  0.39774817  0.12074592  0.37412277  1
  H+  H23  1  0.66231986  0.58346010  0.88983839  1
  H+  H24  1  0.51147870  0.39697389  0.49124292  1
  H+  H25  1  0.73212932  0.12166122  0.83876855  1
  H+  H26  1  0.35780909  0.73171844  0.67930305  1
  H+  H27  1  0.36748021  0.02514132  0.13705628  1
  H+  H28  1  0.36495955  0.13555177  0.82825323  1
  H+  H29  1  0.61351786  0.38758046  1.00065035  1
  H+  H30  1  0.12964299  0.27139801  0.33637903  1
  H+  H31  1  0.17258487  0.06641103  0.60080434  1
  H+  H32  1  0.88680053  0.10645363  0.16791655  1
  H+  H33  1  0.61168357  0.89271174  0.66922673  1
  H+  H34  1  0.77890008  0.39064729  0.00313118  1
  H+  H35  1  1.01517987  0.38400816  0.34103463  1
  H+  H36  1  0.35628880  0.64262771  0.68486111  1
  H+  H37  1  0.13505036  1.01298231  0.50321838  1
  H+  H38  1  0.62058303  0.74207949  0.34251389  1
  H+  H39  1  0.46540510  0.62526581  0.67656467  1
  H+  H40  1  0.88073646  1.01635594  0.82227268  1
  H+  H41  1  0.76846104  0.36937196  0.66986752  1
  H+  H42  1  0.61612885  0.11834471  0.15604260  1
  H+  H43  1  0.83644775  0.92260773  0.41359924  1
  H+  H44  1  0.86960006  0.00781893  0.50587676  1
  H+  H45  1  0.48948095  0.62059207  0.82965762  1
  H+  H46  1  0.61696147  0.96185059  0.33569370  1
  H+  H47  1  0.27165537  0.38665285  0.49411032  1
  H+  H48  1  0.38389311  0.34527306  0.27156320  1
  H+  H49  1  0.34744966  0.92599760  0.18544863  1
  H+  H50  1  0.89447384  0.25051500  0.51623798  1
  H+  H51  1  0.88228703  0.77448326  0.83928847  1
  H+  H52  1  0.46258594  0.10505886  0.99049885  1
  H+  H53  1  0.61164845  0.21356606  0.66968284  1
  H+  H54  1  0.10208971  0.72885662  1.00459035  1
  H+  H55  1  0.87152049  0.23868225  0.83543404  1
  H+  H56  1  0.76886845  0.63742679  1.00017303  1
  H+  H57  1  0.25112624  0.61865755  0.33979029  1
  H+  H58  1  0.11504921  0.86757002  0.33569794  1
  H+  H59  1  0.38002222  0.49976410  0.17345576  1
  H+  H60  1  0.86501405  0.21897489  0.15788768  1
  H+  H61  1  0.59620760  0.68423635  0.73710825  1
  H+  H62  1  0.10771421  0.88408521  0.82853857  1
  H+  H63  1  0.86577300  0.48127998  0.00189367  1
  H+  H64  1  1.01859842  0.88565501  0.82869589  1
  H+  H65  1  0.36907144  0.61202817  0.49724267  1
  H+  H66  1  0.38667591  0.28486247  -0.00763741  1
  H+  H67  1  0.38788300  0.79046384  0.84128878  1
  H+  H68  1  0.75377829  0.11779967  0.66851447  1
  H+  H69  1  0.98314922  0.36455184  0.15486883  1
  H+  H70  1  0.97633915  0.35520045  0.99450847  1
  H+  H71  1  0.72551123  0.36280138  0.83837046  1
  H+  H72  1  0.11199076  0.38166760  0.00199273  1
  H+  H73  1  0.63336535  0.21034014  0.34414843  1
  H+  H74  1  0.65661732  -0.00876974  0.17884699  1
  H+  H75  1  0.01805288  0.88629988  0.00606659  1
  H+  H76  1  0.47826113  0.86865701  0.50788476  1
  H+  H77  1  0.63094986  0.01896826  0.64891763  1
  H+  H78  1  0.38790664  0.09583897  0.66209345  1
  H+  H79  1  0.28987579  0.41592790  1.00292489  1
  H+  H80  1  0.78949720  0.14503193  0.50207123  1
  H+  H81  1  0.58042375  0.65609114  0.06142124  1
  H+  H82  1  0.85940088  0.72676515  1.00170610  1
  H+  H83  1  0.36588134  0.24019618  0.15115246  1
  H+  H84  1  0.38661059  0.86252298  0.51622897  1
  H+  H85  1  0.14649641  0.63456889  0.98360133  1
  H+  H86  1  0.17888698  0.45914224  0.11926428  1
  H+  H87  1  0.38155045  0.52825363  0.32586147  1
  H+  H88  1  0.48688941  0.11873220  0.37553593  1
  H+  H89  1  0.02250005  0.37976782  0.68193730  1
  H+  H90  1  0.13411016  0.77468903  0.83841800  1
  H+  H91  1  0.88624501  0.11851798  0.32802020  1
  H+  H92  1  0.02462012  0.86371533  0.33627307  1
  H+  H93  1  0.18549891  0.61396805  0.92731371  1
  H+  H94  1  0.85077855  0.88114899  0.67095017  1
  H+  H95  1  0.62730217  0.16520874  0.40796940  1
  H+  H96  1  0.75831526  0.87493931  0.67166641  1
  H+  H97  1  0.72678027  0.61811570  0.31215302  1
  H+  H98  1  0.89030844  0.36248940  0.99553688  1
  H+  H99  1  0.87281846  0.12944117  0.50287961  1
  H+  H100  1  0.12921316  0.61473836  0.17595667  1
  H+  H101  1  0.58450781  0.92493219  1.06339343  1
  H+  H102  1  0.87965870  0.61506446  0.32705228  1
  H+  H103  1  0.52097299  0.61878976  -0.00039477  1
  H+  H104  1  0.11212429  0.63292533  0.67941316  1
  H+  H105  1  0.36585809  -0.02023011  0.37975633  1
  H+  H106  1  0.08412999  0.17341280  0.73170548  1
  H+  H107  1  0.33018733  0.67537248  0.42635197  1
  H+  H108  1  0.26513639  0.63314161  0.17050040  1
  H+  H109  1  0.10848573  0.72371380  0.67357729  1
  H+  H110  1  0.86276632  0.64390585  0.66920539  1
  H+  H111  1  0.41561278  0.34276074  0.56240506  1
  H+  H112  1  0.10530590  0.38735389  0.49760005  1
  H+  H113  1  0.91843868  0.66730066  0.47962177  1
  H+  H114  1  0.11737342  0.50889608  0.33408124  1
  H+  H115  1  0.61674192  0.39146059  0.82547023  1
  H+  H116  1  0.13155761  0.76320254  0.51448623  1
  H+  H117  1  0.37625634  0.53718840  0.67738907  1
  H+  H118  1  0.52263287  0.57140702  0.45730602  1
  H+  H119  1  0.12877425  0.15370354  1.00966551  1
  H+  H120  1  0.60479415  0.12135798  0.18842784  1
  H+  H121  1  0.77468494  0.13071128  1.00649582  1
  H+  H122  1  0.88117419  0.86280995  0.83790287  1
  H+  H123  1  0.52307414  0.12387054  0.67194187  1
  H+  H124  1  0.35133177  -0.02495282  1.00859334  1
  H+  H125  1  0.36018734  0.80727206  0.24943195  1
  H+  H126  1  0.08068159  0.91489411  0.10101380  1
  H+  H127  1  0.51632307  0.89965073  0.00790245  1
  H+  H128  1  0.34990671  -0.03306153  0.51504033  1
  H+  H129  1  0.23285985  0.86585377  0.16396927  1
  H+  H130  1  0.64493358  0.86420498  0.32440251  1
  H+  H131  1  0.63230343  0.10835387  0.65423351  1
  H+  H132  1  0.85652933  -0.03829051  0.15940395  1
  H+  H133  1  0.62694245  0.31835951  0.31274189  1
  H+  H134  1  0.85807356  0.72557714  0.32718976  1
  H+  H135  1  0.57307692  0.66111606  0.42534873  1
  H+  H136  1  0.01670524  0.13871640  0.34068424  1
  H+  H137  1  0.34644691  0.63165440  0.33398000  1
  H+  H138  1  0.39143391  0.27260302  0.83936573  1
  H+  H139  1  0.10223679  0.11958719  0.49781353  1
  H+  H140  1  0.13190317  0.26130549  0.18267590  1
  H+  H141  1  0.74287827  0.08490380  0.18075435  1
  H+  H142  1  0.76182420  0.67199647  0.48398501  1
  H+  H143  1  0.47831368  0.87955126  0.84144304  1
  H+  H144  1  0.36820268  0.41703764  0.66973616  1
  H+  H145  1  0.86030555  0.45496195  0.67121070  1
  H+  H146  1  0.49189818  0.39973624  0.33639966  1
  H+  H147  1  0.72020583  0.87258033  0.49880136  1
  H+  H148  1  0.77455359  0.64562409  0.66798585  1
  H+  H149  1  0.87991409  0.61313115  -0.01059437  1
  H+  H150  1  0.48400008  0.37409970  0.66141690  1
  H+  H151  1  0.22318477  0.86457991  0.83860602  1
  H+  H152  1  0.59725792  0.25181253  0.13440046  1
  H+  H153  1  0.23409264  0.37903086  0.66138108  1
  H+  H154  1  1.01145584  0.11853418  0.49625697  1
  H+  H155  1  0.61699311  0.55146448  0.66020900  1
  H+  H156  1  0.52318838  0.89346049  0.67216823  1
  H+  H157  1  0.11858028  0.87739771  0.49483331  1
  H+  H158  1  0.81298403  0.85952543  0.48664557  1
  H+  H159  1  0.26833426  0.87926118  0.67406130  1
  H+  H160  1  0.12324162  0.25409626  0.49592349  1
  H+  H161  1  0.61760633  0.13924749  0.82774764  1
  H+  H162  1  0.07584179  0.66748305  0.06266994  1
  H+  H163  1  0.11715932  0.73121158  0.15631131  1
  H+  H164  1  0.36733758  0.73508747  0.48751824  1
  H+  H165  1  0.64466682  0.77491480  0.83471732  1
  H+  H166  1  0.99130958  0.12819238  0.65370988  1
  H+  H167  1  0.35306344  0.22436056  0.34509728  1
  H+  H168  1  0.01408170  0.63363331  0.34626945  1
  H+  H169  1  0.38360706  0.37762610  0.18686701  1
  H+  H170  1  0.36387265  0.89431805  0.82944070  1
  H+  H171  1  0.13366177  0.52887967  0.67950189  1
  H+  H172  1  0.62959393  0.61590887  0.50638481  1
  H+  H173  1  0.63973417  0.52510973  0.98464147  1
  H+  H174  1  0.10877861  0.13159520  0.16429284  1
  H+  H175  1  0.87966440  0.85665236  0.99661622  1
  H+  H176  1  0.23417037  0.62576477  0.49904587  1
  H+  H177  1  0.32644344  0.90812595  0.45542750  1
  H+  H178  1  0.14098652  0.52893160  0.83560171  1
  H+  H179  1  0.73965602  0.61050449  0.16077885  1
  H+  H180  1  0.58472473  0.41222611  0.33047750  1
  H+  H181  1  0.53969489  0.87335564  0.15450082  1
  H+  H182  1  0.16318248  0.83501462  0.93383873  1
  H+  H183  1  0.61160602  0.89610036  0.49297595  1
  H+  H184  1  0.62842724  0.86712388  0.15063858  1
  H+  H185  1  0.87890304  0.34085143  0.66730978  1
  H+  H186  1  0.88067377  0.85928048  0.16943558  1
  H+  H187  1  0.13608345  0.36038663  0.84423311  1
  H+  H188  1  0.38644784  0.02386090  0.83608822  1
  H+  H189  1  0.13692028  0.02144518  0.17206131  1
  H+  H190  1  0.64179458  0.51000788  0.15982655  1
  H+  H191  1  0.28810686  0.36811816  0.19654056  1
  H+  H192  1  0.63518989  0.75572178  -0.00747819  1
  H+  H193  1  0.88611019  0.10901070  0.82904350  1
  H+  H194  1  0.88717591  0.62779989  0.46213233  1
  H+  H195  1  0.52548270  0.65888138  0.34001908  1
  H+  H196  1  0.47870834  0.36324524  0.83680236  1
  H+  H197  1  0.77507355  0.12460216  0.34635250  1
  H+  H198  1  0.64122834  0.27525087  -0.01040161  1
  H+  H199  1  0.37658142  0.41380585  0.00414332  1
  H+  H200  1  0.88097905  0.52645439  0.32623341  1
  H+  H201  1  0.36330528  0.19433267  0.66559162  1
  H+  H202  1  0.11513406  0.23697910  0.67525518  1
  H+  H203  1  0.45542449  0.60981386  0.50531514  1
  H+  H204  1  0.77460924  0.38040380  0.33064859  1
  H+  H205  1  0.85310524  0.75823909  0.47966605  1
  H+  H206  1  0.89959706  0.12225668  0.64787121  1
  H+  H207  1  0.63580929  0.27345175  0.83593694  1
  H+  H208  1  0.02648436  0.64253985  0.15891820  1
  H+  H209  1  0.14368326  0.00776970  0.66128812  1
  H+  H210  1  0.83882096  0.16075960  0.40340607  1
  H+  H211  1  0.38073633  0.36945425  0.50438024  1
  H+  H212  1  0.37915984  0.85852024  -0.00496680  1
  H+  H213  1  0.89782327  0.37632934  0.31213808  1
  H+  H214  1  0.76732910  0.88319817  0.82832393  1
  H+  H215  1  0.89057032  0.85977858  0.32327022  1
  H+  H216  1  0.84233064  0.40608361  0.50177062  1
  H+  H217  1  0.89108441  0.36731760  0.84831763  1
  H+  H218  1  0.11159594  0.88254795  0.15846697  1
  H+  H219  1  0.10754967  0.88732565  1.00498264  1
  H+  H220  1  0.35246952  0.22725016  0.49589957  1
  H+  H221  1  0.02780090  0.38998396  0.83569362  1
  H+  H222  1  0.14365037  0.35572783  0.18179506  1
  H+  H223  1  0.86099971  0.47788265  0.82806799  1
  H+  H224  1  0.32566674  0.42672953  0.40399183  1
  H+  H225  1  0.63710588  0.53260992  0.50748094  1
  H+  H226  1  0.99782652  0.87299046  0.50172408  1
  H+  H227  1  0.13571504  0.61544645  0.83122715  1
  H+  H228  1  0.76632310  0.63269407  0.82446035  1
  H+  H229  1  0.22597082  0.10991447  0.83903510  1
  H+  H230  1  0.64787431  0.37647482  0.16815113  1
  H+  H231  1  0.13228702  0.49166614  0.16241675  1
  H+  H232  1  0.63460981  0.61108101  0.98768875  1
  H+  H233  1  0.16951310  0.09061693  0.26730844  1
  H+  H234  1  0.83296415  0.41111702  0.77190792  1
  H+  H235  1  0.91436699  0.08002916  0.22924249  1
  H+  H236  1  0.64509235  0.62241738  0.82625560  1
  H+  H237  1  0.34798730  0.62165512  0.16206950  1
  H+  H238  1  0.39403435  0.59295709  0.98740797  1
  H+  H239  1  0.15659164  0.32618412  0.44797533  1
  H+  H240  1  0.15904066  0.29264659  -0.00027532  1
  H+  H241  1  0.32414322  0.74565087  0.30756972  1
  H+  H242  1  1.01888126  0.63919403  0.82612869  1
  H+  H243  1  0.87973027  0.61228270  0.83717661  1
  H+  H244  1  0.26194640  0.39390207  0.34551909  1
  H+  H245  1  0.62717863  0.54463790  0.31317750  1
  H+  H246  1  0.86310498  0.72925982  0.15487706  1
  H+  H247  1  1.02107830  0.88453316  0.67417841  1
  H+  H248  1  0.62673896  0.78433601  0.50090303  1
  H+  H249  1  0.26949959  0.10846764  0.66935747  1
  H+  H250  1  0.63410957  0.85950969  0.84037309  1
  H+  H251  1  0.39154436  0.85488887  0.15586106  1
  H+  H252  1  0.32471179  0.91557319  0.06826571  1
  H+  H253  1  0.63288248  0.45500028  0.67622261  1
  H+  H254  1  0.35501755  0.48383534  0.49521866  1
  H+  H255  1  0.54814022  0.07092513  0.03731974  1
  H+  H256  1  0.88275907  0.25383655  0.66984335  1
  H+  H257  1  0.25838994  0.35932122  0.82075908  1
  H+  H258  1  0.26664587  0.13480765  0.34227173  1
  H+  H259  1  0.60208366  0.27487128  0.50388014  1
  H+  H260  1  0.42645424  0.56848316  0.88113093  1
  H+  H261  1  0.62100975  0.77624403  0.66010398  1
  H+  H262  1  0.87028098  0.48269521  0.15715416  1
  H+  H263  1  0.60593434  0.65707603  0.66898400  1
  H+  H264  1  0.38630516  0.86246200  0.66181122  1
  H+  H265  1  0.52541571  0.39004094  0.00226984  1
  H+  H266  1  0.61975085  0.73136149  0.14878952  1
  H+  H267  1  0.61995219  0.98280620  0.82562638  1
  H+  H268  1  0.36532383  0.11412125  0.14193635  1
  H+  H269  1  0.89782371  0.56545855  0.71205959  1
  H+  H270  1  0.87996037  0.99884832  -0.02021041  1
  H+  H271  1  0.63017770  0.34249085  0.66417322  1
  H+  H272  1  0.76324901  0.86299776  1.00732698  1
  H+  H273  1  0.21992214  0.86296550  0.99484784  1
  H+  H274  1  0.38051526  0.72000446  0.00955394  1
  H+  H275  1  0.39614521  0.54982111  0.11199800  1
  H+  H276  1  0.73513573  0.37137292  0.16526508  1
  H+  H277  1  0.13977935  0.12212729  0.32536232  1
  H+  H278  1  0.13584274  1.02132252  0.83776139  1
  H+  H279  1  1.02548671  0.62115693  0.50753984  1
  H+  H280  1  0.50071097  0.17154806  0.12385424  1
  H+  H281  1  0.22161647  0.11579588  0.16910245  1
  H+  H282  1  0.92817208  0.90233263  0.50792927  1
  H+  H283  1  0.22203369  0.62017592  0.67932996  1
  H+  H284  1  0.13223310  0.02315667  0.99320167  1
  H+  H285  1  0.28307199  0.88878078  0.36311738  1
  H+  H286  1  0.81970905  0.90264684  0.76464239  1
  H+  H287  1  0.11785699  0.59870644  0.33495462  1
  H+  H288  1  0.69666125  0.72796680  0.78188998  1
  H+  H289  1  0.41424419  0.58453503  0.26612954  1
  H+  H290  1  0.32132965  0.18217044  0.09225393  1
  H+  H291  1  0.33270463  0.15954631  0.76840896  1
  H+  H292  1  0.10219732  0.18301192  0.07034625  1
  H+  H293  1  0.22271663  0.85240086  0.51897640  1
  H+  H294  1  0.97269463  0.86084948  0.17018481  1
  H+  H295  1  0.67515382  0.58002983  0.22402136  1
  H+  H296  1  0.26710221  0.14269990  -0.00015866  1
  H+  H297  1  0.67052159  0.08358931  0.89628623  1
  H+  H298  1  0.10225140  0.38058606  0.34930818  1
  H+  H299  1  0.91500868  0.83145502  0.25991429  1
  H+  H300  1  0.82653797  0.89932805  0.06645726  1
  H+  H301  1  0.98544030  0.61441828  0.67492935  1
  H+  H302  1  0.02389937  0.13308093  0.82140805  1
  H+  H303  1  0.68142488  0.05903876  0.27007646  1
  H+  H304  1  0.15975638  0.32916838  0.27661010  1
  H+  H305  1  0.88961762  0.78138647  0.65438337  1
  H+  H306  1  0.16012110  0.82630678  0.60621213  1
  H+  H307  1  0.85946237  0.22207778  0.01021471  1
  H+  H308  1  0.16552088  0.82613085  0.22324343  1
  H+  H309  1  0.42128333  0.34223509  0.93320656  1
  H+  H310  1  0.32996148  0.91644676  0.76814422  1
  H+  H311  1  0.34767136  0.66419347  0.06840067  1
  H+  H312  1  0.07764537  0.66956524  0.76626754  1
  H+  H313  1  0.92331850  0.31610015  0.58181780  1
  H+  H314  1  0.91112667  0.58361574  0.89652531  1
  H+  H315  1  0.57925470  0.90041098  0.39165376  1
  H+  H316  1  0.21771833  0.10692557  0.50627263  1
  H+  H317  1  0.91224981  0.53952174  0.58841057  1
  H+  H318  1  0.41458325  0.83909496  0.93483873  1
  H+  H319  1  0.08944512  0.90065799  0.43084479  1
  H+  H320  1  0.67354594  0.31967088  0.25193284  1
  H+  H321  1  0.91525221  0.58895402  0.23064689  1
  H+  H322  1  0.11435901  0.13637501  0.82584573  1
  H+  H323  1  0.83189476  0.15962313  0.09837018  1
  H+  H324  1  0.83682614  0.18545307  0.77356366  1
  H+  H325  1  0.66760393  0.33070447  0.92900007  1
  H+  H326  1  0.14954634  0.57857758  0.23825803  1
  H+  H327  1  0.80517181  0.08825018  0.71094478  1
  H+  H328  1  0.66318340  0.59452686  0.59676946  1
  H+  H329  1  0.17363918  0.34744326  0.60220847  1
  H+  H330  1  0.88803144  0.03065897  0.32698274  1
  H+  H331  1  0.81671150  0.67905028  0.38857026  1
  H+  H332  1  0.65362364  0.83372786  0.59807389  1
  H+  H333  1  0.43361273  0.05610990  0.23548317  1
  H+  H334  1  0.47766613  0.11245918  0.83793777  1
  H+  H335  1  0.91958186  0.33499763  0.90799456  1
  H+  H336  1  0.11575891  0.39086945  0.67783380  1
  H+  H337  1  0.61273901  0.98513674  0.48423217  1
  H+  H338  1  0.83470510  0.67037119  0.09363539  1
  H+  H339  1  0.43690436  0.09183845  0.48272102  1
  H+  H340  1  0.32227299  0.16629392  0.43729366  1
  H+  H341  1  0.91372047  0.83372317  0.93513840  1
  H+  H342  1  0.56859239  0.43052778  0.43110817  1
  H+  H343  1  0.58573260  0.40932097  0.73856739  1
  H+  H344  1  0.59246337  0.42300288  0.09456326  1
  H+  H345  1  0.92667290  0.96532939  0.37826776  1
  H+  H346  1  0.16135092  0.08032660  0.93236711  1
  H+  H347  1  0.67077387  0.10430311  0.55960763  1
  H+  H348  1  0.06790478  0.41295827  0.44115034  1
  H+  H349  1  0.64341631  0.09340066  0.32483212  1
  H+  H350  1  0.58543031  0.16329185  0.76725380  1
  H+  H351  1  0.63709330  0.02249051  0.98838575  1
  H+  H352  1  0.91606638  0.07467456  0.56432749  1
  H+  H353  1  0.07745004  0.91018469  0.73595703  1
  H+  H354  1  0.82913207  0.66909463  0.76649200  1
  H+  H355  1  0.61231455  0.36781536  0.50266175  1
  H+  H356  1  0.97061661  0.61610394  0.99053488  1
  H+  H357  1  0.66664282  0.82127705  0.93709034  1
  H+  H358  1  0.23693302  0.80317581  0.29602963  1
  H+  H359  1  0.52650540  0.64442935  0.14996690  1
  H+  H360  1  0.17632784  0.34280076  0.93684131  1
  H+  H361  1  0.45422013  0.31649670  0.21469565  1
  H+  H362  1  0.91100467  0.05516958  0.92044185  1
  H+  H363  1  0.93450967  0.34986278  0.25475467  1
  H+  H364  1  0.28406497  0.66092123  0.83329637  1
  H+  H365  1  0.42092429  0.07685829  0.59977840  1
  H+  H366  1  0.58658707  0.92329862  0.76704911  1
  H+  H367  1  0.14731652  0.75852053  0.32964367  1
  H+  H368  1  0.82472683  0.40298732  0.39294463  1
  H+  H369  1  0.08387539  0.41406682  0.77487411  1
  H+  H370  1  0.07142762  0.65742235  0.40755497  1
  H+  H371  1  0.13210204  0.26898477  0.84379231  1
  H+  H372  1  0.56685790  0.16502155  0.05611624  1
  H+  H373  1  0.34077667  0.69107687  0.77459413  1
  H+  H374  1  0.35087079  0.36512090  0.81927647  1
  H+  H375  1  0.40624169  0.08153985  0.93074528  1
  H+  H376  1  0.61527395  0.48160757  0.82172859  1
  H+  H377  1  0.65426038  0.32323461  0.59907705  1
  H+  H378  1  0.43535908  0.04597601  0.26854957  1
  H+  H379  1  0.07902687  0.41159437  0.05883137  1
  H+  H380  1  0.07251489  0.15841109  0.40242629  1
  H+  H381  1  0.92661535  0.84475712  0.59714011  1
  H+  H382  1  0.74369037  0.36663931  0.49013117  1
  H+  H383  1  0.32112791  0.40654192  0.73487502  1
  O2-  O384  1  0.08210178  0.16620895  0.15103924  1
  O2-  O385  1  0.07296436  0.15121083  0.48260021  1
  O2-  O386  1  0.08625091  0.16857409  0.81082385  1
  O2-  O387  1  0.12519844  0.43791049  0.14158559  1
  O2-  O388  1  0.07126542  0.41503554  0.48729644  1
  O2-  O389  1  0.08784390  0.41802360  0.82011497  1
  O2-  O390  1  0.08601931  0.66841110  0.14303583  1
  O2-  O391  1  0.07942865  0.66049211  0.48677226  1
  O2-  O392  1  0.07944368  0.67111788  0.81179051  1
  O2-  O393  1  0.08068329  0.91400814  0.14645240  1
  O2-  O394  1  0.09135754  0.90917453  0.47642127  1
  O2-  O395  1  0.07877312  0.91536432  0.81245848  1
  O2-  O396  1  0.32113246  0.18051180  0.13767505  1
  O2-  O397  1  0.32181016  0.16604570  0.48323415  1
  O2-  O398  1  0.33413506  0.16567017  0.81328857  1
  O2-  O399  1  0.35011520  0.40511135  0.20452486  1
  O2-  O400  1  0.33199754  0.42097767  0.48063012  1
  O2-  O401  1  0.30507778  0.36393071  0.79365396  1
  O2-  O402  1  0.32447926  0.66019572  0.15407993  1
  O2-  O403  1  0.33359787  0.67503244  0.47178792  1
  O2-  O404  1  0.34397043  0.69867436  0.81965596  1
  O2-  O405  1  0.31757470  0.91083453  0.14655817  1
  O2-  O406  1  0.32458999  0.90615117  0.50255926  1
  O2-  O407  1  0.32984897  0.92150251  0.81330945  1
  O2-  O408  1  0.55393254  0.21715519  0.10342103  1
  O2-  O409  1  0.66390435  0.17729086  0.49250783  1
  O2-  O410  1  0.58603009  0.16869567  0.81237242  1
  O2-  O411  1  0.59371012  0.42434001  0.14011279  1
  O2-  O412  1  0.57276288  0.42787496  0.47619944  1
  O2-  O413  1  0.58645816  0.41960763  0.80661324  1
  O2-  O414  1  0.58404103  0.66940045  0.13264337  1
  O2-  O415  1  0.55852295  0.63158228  0.46864718  1
  O2-  O416  1  0.63745500  0.69362481  0.79572630  1
  O2-  O417  1  0.59810175  0.90223214  0.13734315  1
  O2-  O418  1  0.57874177  0.92340709  0.47609529  1
  O2-  O419  1  0.58643164  0.92161165  0.81220615  1
  O2-  O420  1  0.83714321  0.15859106  0.14480966  1
  O2-  O421  1  0.85184451  0.17196047  0.49147230  1
  O2-  O422  1  0.83861530  0.17877121  0.81765886  1
  O2-  O423  1  0.84118402  0.42220599  0.14179675  1
  O2-  O424  1  0.79535893  0.36571581  0.47538627  1
  O2-  O425  1  0.83149539  0.41520376  0.81661754  1
  O2-  O426  1  0.83500318  0.66819403  0.13942081  1
  O2-  O427  1  0.80270912  0.71650631  0.45593005  1
  O2-  O428  1  0.82889416  0.66513005  0.81142329  1
  O2-  O429  1  0.83004177  0.90141700  0.14536413  1
  O2-  O430  1  0.80869517  0.90990940  0.47605784  1
  O2-  O431  1  0.82682317  0.90912955  0.81044393  1
  O2-  O432  1  0.16322906  0.08156350  0.18759767  1
  O2-  O433  1  0.15737443  0.07139109  0.52124208  1
  O2-  O434  1  0.16540580  0.08145768  0.85346023  1
  O2-  O435  1  0.16520528  0.32081039  0.20130121  1
  O2-  O436  1  0.15468531  0.31935470  0.49211722  1
  O2-  O437  1  0.16546805  0.32935605  0.85921888  1
  O2-  O438  1  0.15663218  0.58219510  0.19312790  1
  O2-  O439  1  0.17463405  0.59816657  0.51618864  1
  O2-  O440  1  0.17155345  0.59129308  0.84525871  1
  O2-  O441  1  0.16447448  0.82965135  0.17858551  1
  O2-  O442  1  0.15983735  0.82360990  0.53013833  1
  O2-  O443  1  0.16272912  0.83516405  0.85387040  1
  O2-  O444  1  0.40343334  0.08888494  0.14047549  1
  O2-  O445  1  0.40636482  0.08518901  0.52131729  1
  O2-  O446  1  0.41688863  0.08455814  0.85196921  1
  O2-  O447  1  0.44301367  0.33716867  0.17686366  1
  O2-  O448  1  0.41194229  0.33846731  0.51745145  1
  O2-  O449  1  0.42024070  0.33299540  0.85444975  1
  O2-  O450  1  0.39798192  0.55849333  0.15604351  1
  O2-  O451  1  0.39340442  0.57643775  0.51339419  1
  O2-  O452  1  0.43521680  0.56814852  0.83687295  1
  O2-  O453  1  0.42020266  0.82910774  0.17882795  1
  O2-  O454  1  0.41955813  0.83242895  0.52536227  1
  O2-  O455  1  0.41845811  0.85339384  0.85666888  1
  O2-  O456  1  0.69124065  0.04411281  0.20408270  1
  O2-  O457  1  0.68469262  0.11184696  0.51420477  1
  O2-  O458  1  0.67013001  0.08873582  0.85023042  1
  O2-  O459  1  0.67495739  0.34175723  0.18141999  1
  O2-  O460  1  0.63791562  0.33316544  0.51934285  1
  O2-  O461  1  0.66418862  0.33385758  0.85195633  1
  O2-  O462  1  0.67820874  0.57443855  0.17675318  1
  O2-  O463  1  0.66496894  0.59203510  0.52424151  1
  O2-  O464  1  0.66405104  0.58034848  0.84440066  1
  O2-  O465  1  0.67471417  0.82449532  0.17207709  1
  O2-  O466  1  0.65723792  0.84219345  0.51769690  1
  O2-  O467  1  0.66712733  0.83267688  0.85553141  1
  O2-  O468  1  0.91597275  0.07533191  0.18427496  1
  O2-  O469  1  0.90770690  0.07006312  0.51803430  1
  O2-  O470  1  0.91756039  0.07774297  0.83496366  1
  O2-  O471  1  0.92680818  0.33831370  0.17415153  1
  O2-  O472  1  0.92432917  0.31616776  0.53545734  1
  O2-  O473  1  0.92188537  0.33727936  0.86149551  1
  O2-  O474  1  0.91757809  0.58712082  0.18540515  1
  O2-  O475  1  0.91412687  0.52529710  0.54542620  1
  O2-  O476  1  0.91017620  0.58123577  0.85070279  1
  O2-  O477  1  0.91212831  0.82804733  0.18509018  1
  O2-  O478  1  0.93787056  0.85497322  0.51825612  1
  O2-  O479  1  0.91406832  0.83493505  0.85358227  1
  O2-  O480  1  0.17450868  0.09642741  0.31233333  1
  O2-  O481  1  0.18381227  0.06634134  0.64501129  1
  O2-  O482  1  0.16464115  0.08334961  0.97764508  1
  O2-  O483  1  0.15942248  0.33299236  0.32242622  1
  O2-  O484  1  0.17190452  0.34751031  0.64634201  1
  O2-  O485  1  0.18241620  0.35212687  0.98175099  1
  O2-  O486  1  0.14639543  0.56834950  0.31665668  1
  O2-  O487  1  0.15985053  0.58950044  0.66679637  1
  O2-  O488  1  0.19727451  0.63219434  0.97021458  1
  O2-  O489  1  0.18935868  0.81369555  0.31010597  1
  O2-  O490  1  0.16258163  0.82643639  0.65186968  1
  O2-  O491  1  0.15948719  0.83439299  0.97909114  1
  O2-  O492  1  0.42733910  0.09145217  0.39113233  1
  O2-  O493  1  0.42244238  0.07087926  0.64461534  1
  O2-  O494  1  0.40265256  0.08206290  0.97603140  1
  O2-  O495  1  0.39240812  0.33865011  0.31515491  1
  O2-  O496  1  0.42732126  0.35734502  0.64221444  1
  O2-  O497  1  0.42250087  0.34558607  0.97851415  1
  O2-  O498  1  0.41172634  0.58856134  0.31020045  1
  O2-  O499  1  0.40498821  0.59720741  0.66259013  1
  O2-  O500  1  0.42204589  0.56436830  0.96569411  1
  O2-  O501  1  0.31840884  0.78879076  0.28333898  1
  O2-  O502  1  0.42125625  0.83602378  0.64898904  1
  O2-  O503  1  0.41417107  0.83387357  0.98004311  1
  O2-  O504  1  0.67713425  0.06526227  0.31645411  1
  O2-  O505  1  0.66282734  0.08093295  0.63367864  1
  O2-  O506  1  0.67560796  0.08132698  0.96811849  1
  O2-  O507  1  0.67239915  0.30901302  0.29778869  1
  O2-  O508  1  0.66288898  0.31862033  0.64330292  1
  O2-  O509  1  0.67137520  0.33417593  0.97461904  1
  O2-  O510  1  0.67121460  0.59216498  0.28909501  1
  O2-  O511  1  0.66778029  0.60008630  0.64289640  1
  O2-  O512  1  0.66893726  0.58519210  0.96915048  1
  O2-  O513  1  0.67724865  0.83443082  0.30919156  1
  O2-  O514  1  0.65496112  0.83667516  0.64322953  1
  O2-  O515  1  0.66936981  0.81779684  0.98178926  1
  O2-  O516  1  0.91824388  0.08971573  0.31027337  1
  O2-  O517  1  0.93320648  0.09749590  0.63232467  1
  O2-  O518  1  0.91737177  0.05773176  0.96476576  1
  O2-  O519  1  0.93598419  0.35449759  0.29968104  1
  O2-  O520  1  0.91259860  0.31303437  0.65386785  1
  O2-  O521  1  0.91437415  0.32758727  0.97916232  1
  O2-  O522  1  0.91256596  0.58719044  0.31217160  1
  O2-  O523  1  0.91730531  0.57713219  0.66988412  1
  O2-  O524  1  0.91024649  0.58308078  0.97355188  1
  O2-  O525  1  0.91673452  0.82761143  0.30579371  1
  O2-  O526  1  0.92139044  0.84280084  0.64229296  1
  O2-  O527  1  0.91454401  0.82960432  0.98017615  1
  O2-  O528  1  0.11714772  0.19745001  0.02706264  1
  O2-  O529  1  0.07691604  0.16855487  0.35777001  1
  O2-  O530  1  0.08133670  0.17592374  0.68654041  1
  O2-  O531  1  0.07122854  0.40183400  0.01500157  1
  O2-  O532  1  0.07083934  0.40878421  0.36590820  1
  O2-  O533  1  0.08188824  0.41505914  0.69684814  1
  O2-  O534  1  0.06859401  0.66755184  0.01773737  1
  O2-  O535  1  0.07365942  0.65703087  0.36219639  1
  O2-  O536  1  0.07602428  0.66315890  0.68936421  1
  O2-  O537  1  0.07873813  0.91834509  0.02142515  1
  O2-  O538  1  0.08003518  0.88606721  0.35786579  1
  O2-  O539  1  0.08070224  0.90812165  0.69044502  1
  O2-  O540  1  0.32806688  0.17722209  0.01460000  1
  O2-  O541  1  0.32642905  0.16571932  0.36181033  1
  O2-  O542  1  0.33271682  0.14078088  0.68796207  1
  O2-  O543  1  0.34930967  0.44573485  0.02097277  1
  O2-  O544  1  0.32392172  0.42673198  0.35844672  1
  O2-  O545  1  0.32626728  0.42822947  0.68992112  1
  O2-  O546  1  0.37941558  0.67104991  0.03058347  1
  O2-  O547  1  0.31290426  0.65699953  0.35096473  1
  O2-  O548  1  0.32491312  0.67419039  0.69838171  1
  O2-  O549  1  0.32307986  0.91445783  0.02280378  1
  O2-  O550  1  0.33601596  0.91704522  0.38754597  1
  O2-  O551  1  0.32915036  0.90791721  0.68883851  1
  O2-  O552  1  0.56428636  0.12702055  0.01977242  1
  O2-  O553  1  0.60087799  0.15636908  0.36732520  1
  O2-  O554  1  0.58397199  0.15468160  0.68723724  1
  O2-  O555  1  0.58700098  0.42044482  0.01638509  1
  O2-  O556  1  0.55329665  0.43512738  0.35191020  1
  O2-  O557  1  0.58429869  0.40196142  0.69132763  1
  O2-  O558  1  0.58178388  0.65066146  0.01527116  1
  O2-  O559  1  0.58101224  0.68425592  0.36131284  1
  O2-  O560  1  0.57595283  0.68158911  0.69111320  1
  O2-  O561  1  0.57151535  0.94609660  0.02507110  1
  O2-  O562  1  0.58583415  0.89973212  0.34730372  1
  O2-  O563  1  0.58558968  0.92770875  0.68407793  1
  O2-  O564  1  0.82911075  0.16448716  0.02913638  1
  O2-  O565  1  0.83675551  0.15943782  0.35895394  1
  O2-  O566  1  0.81096921  0.13904221  0.69045061  1
  O2-  O567  1  0.83853289  0.42163232  0.01919738  1
  O2-  O568  1  0.83210031  0.41689789  0.34904214  1
  O2-  O569  1  0.82803968  0.39552307  0.68670899  1
  O2-  O570  1  0.82897577  0.66572900  0.01714045  1
  O2-  O571  1  0.82414622  0.66637949  0.34529108  1
  O2-  O572  1  0.83452155  0.67575250  0.68350271  1
  O2-  O573  1  0.82594710  0.89442714  0.02118234  1
  O2-  O574  1  0.86552572  0.93424589  0.36891023  1
  O2-  O575  1  0.81506197  0.90047630  0.69209991  1
