# generated using pymatgen
data_H2O
_symmetry_space_group_name_H-M   'P 1'
_cell_length_a   17.99671979
_cell_length_b   17.99374444
_cell_length_c   22.00108896
_cell_angle_alpha   89.99870353
_cell_angle_beta   90.00119333
_cell_angle_gamma   119.98447819
_symmetry_Int_Tables_number   1
_chemical_formula_structural   H2O
_chemical_formula_sum   'H384 O192'
_cell_volume   6171.02942906
_cell_formula_units_Z   192
loop_
 _symmetry_equiv_pos_site_id
 _symmetry_equiv_pos_as_xyz
  1  'x, y, z'
loop_
 _atom_type_symbol
 _atom_type_oxidation_number
  H+  1.0
  O2-  -2.0
loop_
 _atom_site_type_symbol
 _atom_site_label
 _atom_site_symmetry_multiplicity
 _atom_site_fract_x
 _atom_site_fract_y
 _atom_site_fract_z
 _atom_site_occupancy
  H+  H0  1  0.89236950  0.25696703  0.84834625  1
  H+  H1  1  0.91921671  0.45789034  0.77670872  1
  H+  H2  1  0.36844176  0.72017396  0.48032960  1
  H+  H3  1  0.16815570  0.33269743  0.56984887  1
  H+  H4  1  0.10488897  0.72083300  0.69754579  1
  H+  H5  1  0.38557976  0.60361261  0.31031035  1
  H+  H6  1  0.39774109  0.04814431  1.00773457  1
  H+  H7  1  0.86666131  0.07288628  0.57347274  1
  H+  H8  1  0.96852192  0.85875491  0.49835579  1
  H+  H9  1  0.39533663  0.71151272  1.00444381  1
  H+  H10  1  0.38467841  1.01341100  0.64240318  1
  H+  H11  1  0.63891454  0.38493457  0.33643979  1
  H+  H12  1  0.52901042  0.63610289  0.49150148  1
  H+  H13  1  0.97108519  0.80461648  0.33902468  1
  H+  H14  1  0.11168098  0.47114120  0.67808090  1
  H+  H15  1  0.23813619  0.37051618  0.51781272  1
  H+  H16  1  0.88352621  0.11765644  0.66894019  1
  H+  H17  1  -0.00954301  0.09257432  0.49154616  1
  H+  H18  1  0.37472716  0.86162214  0.97800407  1
  H+  H19  1  0.55161605  0.89759308  0.00954359  1
  H+  H20  1  0.85892879  0.25437290  0.16339981  1
  H+  H21  1  0.13115481  0.77497722  0.33754217  1
  H+  H22  1  0.30211133  0.90439436  0.47022100  1
  H+  H23  1  0.56113490  0.85480720  0.83645289  1
  H+  H24  1  -0.00890318  0.85048685  0.32864466  1
  H+  H25  1  0.01168754  0.63861646  0.68427991  1
  H+  H26  1  0.52169835  0.62040679  0.33221432  1
  H+  H27  1  0.41043979  0.78209577  0.63366262  1
  H+  H28  1  0.77378797  0.63554078  0.67796832  1
  H+  H29  1  0.13752722  0.65551214  0.18545185  1
  H+  H30  1  0.34563954  0.23908034  0.16680475  1
  H+  H31  1  0.17466749  0.85543367  0.24742549  1
  H+  H32  1  0.88538445  0.62534977  0.66738221  1
  H+  H33  1  0.64278731  0.02532452  0.65362692  1
  H+  H34  1  0.64282979  0.77759913  0.65977387  1
  H+  H35  1  0.39390990  0.86068882  0.64050508  1
  H+  H36  1  0.14952404  0.58010314  0.60474085  1
  H+  H37  1  0.86669998  0.72490018  0.48940132  1
  H+  H38  1  0.08375582  0.92429966  0.72200799  1
  H+  H39  1  0.28443984  0.08151730  0.04304368  1
  H+  H40  1  0.35442041  0.38006208  0.82146796  1
  H+  H41  1  0.52635878  0.78898695  0.96326875  1
  H+  H42  1  0.12564182  0.23283969  0.15996179  1
  H+  H43  1  0.85911741  0.72751988  0.17214623  1
  H+  H44  1  0.10218908  0.89252495  1.01157483  1
  H+  H45  1  0.17160302  0.27152373  0.88720150  1
  H+  H46  1  0.53063694  0.13639706  0.48890146  1
  H+  H47  1  0.77393375  0.89005411  0.82531403  1
  H+  H48  1  0.11611660  0.47794670  0.33297032  1
  H+  H49  1  0.11943378  0.49052321  0.19320290  1
  H+  H50  1  0.88261260  0.43692980  0.31643535  1
  H+  H51  1  0.63496979  0.52378730  0.17489501  1
  H+  H52  1  0.61455425  0.72380746  0.14818053  1
  H+  H53  1  0.19900354  0.78556742  0.47956919  1
  H+  H54  1  0.40003187  0.13357559  0.99439207  1
  H+  H55  1  0.62744934  0.74937981  0.31941630  1
  H+  H56  1  0.40143924  0.33828148  0.89053302  1
  H+  H57  1  0.28884979  0.40138551  0.25814671  1
  H+  H58  1  0.03588910  0.39842922  0.18340475  1
  H+  H59  1  0.55697131  0.66265013  0.89928663  1
  H+  H60  1  0.85193612  0.49408814  0.34786624  1
  H+  H61  1  0.46478731  0.39025376  -0.01019825  1
  H+  H62  1  0.77486799  0.89140150  0.67158835  1
  H+  H63  1  0.90314195  1.00645829  0.34947859  1
  H+  H64  1  0.38422676  0.97532742  0.31929543  1
  H+  H65  1  0.13122963  0.75897243  0.86359194  1
  H+  H66  1  0.11391569  0.46023145  0.82912540  1
  H+  H67  1  1.00691142  0.11733802  0.52066174  1
  H+  H68  1  0.11477091  0.22298245  0.67363014  1
  H+  H69  1  0.10783767  -0.02924988  0.16594001  1
  H+  H70  1  0.86650805  0.38171677  0.52886134  1
  H+  H71  1  0.37537451  0.27249026  0.83251601  1
  H+  H72  1  0.12571697  1.03327824  -0.01188582  1
  H+  H73  1  0.54314641  0.41022501  0.47506381  1
  H+  H74  1  0.40506865  1.02950524  0.49390218  1
  H+  H75  1  0.85712111  0.89042040  0.00074978  1
  H+  H76  1  0.84029646  0.86579127  0.32867434  1
  H+  H77  1  0.36643061  0.14265191  0.82560759  1
  H+  H78  1  0.74226493  0.36223211  0.32647675  1
  H+  H79  1  0.62965917  0.11624329  0.50470030  1
  H+  H80  1  0.11100328  0.88942628  0.48707876  1
  H+  H81  1  0.14932278  0.24574273  0.47669789  1
  H+  H82  1  0.86836945  0.39410947  0.01734366  1
  H+  H83  1  0.07039226  0.08068229  0.30891082  1
  H+  H84  1  0.65163783  0.88469071  -0.00709285  1
  H+  H85  1  0.73425300  0.37534501  1.01832631  1
  H+  H86  1  0.12437178  0.59350061  0.85227279  1
  H+  H87  1  0.91720932  0.36986815  0.64945667  1
  H+  H88  1  0.37636451  0.48528667  0.13098039  1
  H+  H89  1  0.76946127  0.63902256  0.16381862  1
  H+  H90  1  0.28171814  0.64510760  0.16676851  1
  H+  H91  1  0.61646843  0.63611196  0.15275953  1
  H+  H92  1  0.76095958  0.86692347  0.15667746  1
  H+  H93  1  0.63390888  0.52940557  0.65216251  1
  H+  H94  1  0.86694418  0.13175492  0.82378630  1
  H+  H95  1  0.61689103  0.72593811  0.48889836  1
  H+  H96  1  0.72685774  0.12105723  0.65729635  1
  H+  H97  1  0.21257155  0.60539368  0.30959181  1
  H+  H98  1  0.67948506  0.66603588  0.96166785  1
  H+  H99  1  0.59661405  0.39563825  0.66963379  1
  H+  H100  1  0.86356833  0.22745140  0.67687028  1
  H+  H101  1  0.11564497  0.46540321  0.02160689  1
  H+  H102  1  0.13963756  0.35958836  0.66484329  1
  H+  H103  1  0.39762662  0.62165261  0.15845017  1
  H+  H104  1  0.87778862  0.24126496  0.00597165  1
  H+  H105  1  0.53745542  0.14050255  0.18696906  1
  H+  H106  1  0.49949433  0.11666814  0.81886582  1
  H+  H107  1  0.52051869  0.39262499  0.16911590  1
  H+  H108  1  0.17227149  0.13668944  0.32055222  1
  H+  H109  1  0.51318609  0.35505574  0.32293934  1
  H+  H110  1  0.51993895  0.89382119  0.31297895  1
  H+  H111  1  0.41562590  0.23661898  0.32507075  1
  H+  H112  1  0.87091540  0.60942659  0.17919451  1
  H+  H113  1  0.08810352  0.63146724  0.32261319  1
  H+  H114  1  0.65073344  0.12457172  0.00090958  1
  H+  H115  1  0.26644312  0.11432490  0.66536021  1
  H+  H116  1  0.88870714  0.23092589  0.31234497  1
  H+  H117  1  0.72296590  0.80967294  0.30064591  1
  H+  H118  1  0.31863417  0.62405055  0.64187072  1
  H+  H119  1  0.77959922  0.16857528  0.47202129  1
  H+  H120  1  0.85991906  0.88487369  0.49582500  1
  H+  H121  1  0.34464686  0.40642370  0.45480302  1
  H+  H122  1  0.88090265  0.60704736  0.50974773  1
  H+  H123  1  0.86870808  0.53222943  0.86690817  1
  H+  H124  1  1.01440784  0.62973470  0.84483260  1
  H+  H125  1  0.89571636  0.02594008  0.83477871  1
  H+  H126  1  0.11720572  0.97999082  0.66114024  1
  H+  H127  1  0.82671186  0.16706662  0.73647880  1
  H+  H128  1  0.54016301  0.90084953  0.65724558  1
  H+  H129  1  0.30054814  0.74455936  0.69830672  1
  H+  H130  1  0.16597132  0.40070317  0.19172454  1
  H+  H131  1  0.14099853  0.52603852  0.50749440  1
  H+  H132  1  0.03595820  0.39216612  0.49149904  1
  H+  H133  1  0.59733047  0.43483977  0.81667424  1
  H+  H134  1  0.13713514  0.99874543  0.33701108  1
  H+  H135  1  0.49658291  0.60697795  0.66316475  1
  H+  H136  1  0.59691650  0.40006865  0.01050951  1
  H+  H137  1  0.65108933  0.60957365  0.32746829  1
  H+  H138  1  0.37176718  0.12802930  0.47820344  1
  H+  H139  1  0.74140334  0.12736375  -0.00344995  1
  H+  H140  1  0.23893124  0.38086570  0.16975111  1
  H+  H141  1  0.15498187  0.87789950  0.34569450  1
  H+  H142  1  0.77543351  0.12557242  0.83078733  1
  H+  H143  1  0.88893240  0.11884812  0.98869721  1
  H+  H144  1  0.23967091  0.59228306  -0.00393728  1
  H+  H145  1  0.62047585  0.22516451  0.49163739  1
  H+  H146  1  0.63312286  0.49298840  0.48813900  1
  H+  H147  1  0.11489393  0.34457944  0.32532019  1
  H+  H148  1  0.85888804  0.46789016  0.53180093  1
  H+  H149  1  0.27784265  0.88307427  0.69019031  1
  H+  H150  1  0.86166667  -0.01785912  0.67485854  1
  H+  H151  1  0.41115097  0.85596697  0.85528098  1
  H+  H152  1  1.03002644  0.65537717  1.02861038  1
  H+  H153  1  0.34908589  0.62657866  0.82547926  1
  H+  H154  1  0.38812956  0.59291924  0.98340074  1
  H+  H155  1  0.14270620  0.87571529  0.18487044  1
  H+  H156  1  0.88524722  0.02739696  0.98971811  1
  H+  H157  1  0.46588807  0.36046164  0.66806330  1
  H+  H158  1  0.38954451  0.60734607  0.50721445  1
  H+  H159  1  0.91802717  0.59286898  0.57272583  1
  H+  H160  1  0.09931634  0.42990212  0.39876986  1
  H+  H161  1  0.50086180  0.40821507  0.81413314  1
  H+  H162  1  0.63893266  0.11079068  0.18504146  1
  H+  H163  1  0.15210095  1.01727882  0.83415788  1
  H+  H164  1  0.46451147  0.81184991  0.92686825  1
  H+  H165  1  0.68593620  0.98800564  0.34589988  1
  H+  H166  1  0.98323038  0.37235080  1.00953262  1
  H+  H167  1  0.35896352  0.47790569  0.81971874  1
  H+  H168  1  0.17073071  0.08117923  0.88975123  1
  H+  H169  1  0.34121285  0.81912927  -0.00884876  1
  H+  H170  1  0.62297183  0.23357587  1.02708427  1
  H+  H171  1  0.36014998  0.20921575  0.47844755  1
  H+  H172  1  0.76100010  0.11628489  0.31594645  1
  H+  H173  1  0.72840140  0.11717379  0.17714956  1
  H+  H174  1  0.27719515  0.63614185  0.49137367  1
  H+  H175  1  0.37966717  0.09941839  0.65223990  1
  H+  H176  1  0.89720014  0.27919151  0.49972514  1
  H+  H177  1  0.65702551  0.26753272  0.32671909  1
  H+  H178  1  0.87523413  0.85374194  0.17477306  1
  H+  H179  1  0.83551759  0.01042322  0.51741373  1
  H+  H180  1  0.63199583  0.73910273  0.99946239  1
  H+  H181  1  0.22500114  0.64799720  0.69294313  1
  H+  H182  1  0.97234349  0.11637508  0.66337460  1
  H+  H183  1  0.88255669  0.62513919  0.85375792  1
  H+  H184  1  0.21697028  0.11246157  0.17165002  1
  H+  H185  1  0.34728431  0.65892326  0.61987421  1
  H+  H186  1  0.82362271  0.39896197  0.79358843  1
  H+  H187  1  0.60803012  0.66810646  0.04997994  1
  H+  H188  1  0.22769135  0.35823904  0.66263554  1
  H+  H189  1  0.26711821  0.86578822  0.85958778  1
  H+  H190  1  0.80057094  0.96305744  0.36365250  1
  H+  H191  1  0.35156969  0.91865303  0.03876095  1
  H+  H192  1  0.39174341  0.37669916  0.16211797  1
  H+  H193  1  0.13246829  0.60932457  0.50416422  1
  H+  H194  1  0.63951906  0.27648563  0.17764702  1
  H+  H195  1  0.63882233  0.02226470  0.50381255  1
  H+  H196  1  0.68247905  0.07474083  0.27125554  1
  H+  H197  1  0.38538689  0.00831370  0.19326324  1
  H+  H198  1  0.77288882  0.89597388  0.00180421  1
  H+  H199  1  0.34825240  0.66039050  0.06482411  1
  H+  H200  1  0.40649851  0.13286264  0.32404783  1
  H+  H201  1  0.21437535  0.87925543  1.01559799  1
  H+  H202  1  0.66293347  0.00181487  0.85192465  1
  H+  H203  1  0.33554988  0.69786633  0.32331015  1
  H+  H204  1  0.08268521  0.08644921  0.13430951  1
  H+  H205  1  0.84462323  0.18113897  0.06359099  1
  H+  H206  1  0.84024086  0.93104411  0.44082597  1
  H+  H207  1  0.29019611  0.89573479  0.33624721  1
  H+  H208  1  0.12614850  0.39450238  0.49446144  1
  H+  H209  1  0.87288930  0.73582264  0.82889777  1
  H+  H210  1  0.12964586  0.12353647  -0.01942630  1
  H+  H211  1  0.09997482  0.68678489  0.08245404  1
  H+  H212  1  0.36584117  0.15911735  0.38472145  1
  H+  H213  1  0.12100452  0.27534059  0.97975985  1
  H+  H214  1  0.30253120  0.36182460  -0.03176879  1
  H+  H215  1  0.50391865  0.88437999  0.34518688  1
  H+  H216  1  0.82193835  0.40824952  0.61853677  1
  H+  H217  1  0.63115712  -0.00411423  1.01318509  1
  H+  H218  1  0.37467625  0.47082294  0.28791129  1
  H+  H219  1  0.88929971  0.87628651  0.65002182  1
  H+  H220  1  0.53519426  0.14681170  0.01796880  1
  H+  H221  1  1.03224915  0.16443195  0.83046875  1
  H+  H222  1  0.51338871  0.10941648  0.30528943  1
  H+  H223  1  0.01475742  0.89413015  0.01096605  1
  H+  H224  1  0.91325210  0.13707762  0.20494558  1
  H+  H225  1  0.95386748  0.09134278  0.24049194  1
  H+  H226  1  0.60393764  0.11723621  0.67103763  1
  H+  H227  1  0.64483126  0.61846702  0.49902465  1
  H+  H228  1  0.78193601  0.65200345  0.83978617  1
  H+  H229  1  0.18516052  0.82929241  0.42098958  1
  H+  H230  1  0.87918190  0.77269989  0.99580437  1
  H+  H231  1  0.07283019  0.90714188  0.11027220  1
  H+  H232  1  0.38001757  0.47553260  0.50739949  1
  H+  H233  1  0.89122851  0.53174298  1.01191536  1
  H+  H234  1  0.89480699  0.37930533  0.18653799  1
  H+  H235  1  0.94973892  0.63351869  0.33374230  1
  H+  H236  1  0.62920920  0.64008094  0.66856045  1
  H+  H237  1  0.38168821  0.33977274  0.52437805  1
  H+  H238  1  0.65708845  0.52405515  0.32350958  1
  H+  H239  1  0.14549660  0.87061949  0.68548993  1
  H+  H240  1  0.88057444  0.65667787  0.02257718  1
  H+  H241  1  0.38937564  0.88303499  0.17086198  1
  H+  H242  1  0.45387872  0.31781317  0.54329691  1
  H+  H243  1  0.10782210  0.59994751  0.66379650  1
  H+  H244  1  0.47434384  0.87354202  0.16815030  1
  H+  H245  1  0.61546895  0.97686126  0.16854645  1
  H+  H246  1  0.08720277  0.40966687  0.73855743  1
  H+  H247  1  0.66987756  0.89036241  0.34493863  1
  H+  H248  1  0.73563263  0.61935921  0.49950110  1
  H+  H249  1  0.64404129  0.86253556  0.50671942  1
  H+  H250  1  0.69795575  0.36779102  0.65950968  1
  H+  H251  1  0.00135836  0.61444769  0.49122030  1
  H+  H252  1  0.11119587  0.97805119  0.49125231  1
  H+  H253  1  0.85981315  0.48158682  0.17290347  1
  H+  H254  1  0.21565687  0.60013749  0.85029485  1
  H+  H255  1  1.02964975  0.36936808  0.82932343  1
  H+  H256  1  0.57554494  0.21217008  0.80805505  1
  H+  H257  1  0.08719908  0.16814034  0.73345130  1
  H+  H258  1  0.77545357  0.38908455  0.16773263  1
  H+  H259  1  1.01982873  0.14234477  0.99057092  1
  H+  H260  1  0.37674828  1.01099995  0.85363396  1
  H+  H261  1  1.03418239  0.88015345  0.82181000  1
  H+  H262  1  0.89292911  0.34438658  0.35934880  1
  H+  H263  1  0.35782006  0.83233606  0.31122247  1
  H+  H264  1  0.64520542  0.13293826  0.33851877  1
  H+  H265  1  0.90341308  0.34768217  0.83867018  1
  H+  H266  1  0.64094645  0.36128279  0.50295509  1
  H+  H267  1  0.23030223  0.10236836  0.49115001  1
  H+  H268  1  0.15560534  0.12329319  0.48700879  1
  H+  H269  1  0.37054863  0.46806380  0.67193974  1
  H+  H270  1  -0.01027293  0.37213300  0.33977445  1
  H+  H271  1  -0.00399408  0.35744105  0.66329261  1
  H+  H272  1  0.13613833  0.11183738  0.65124504  1
  H+  H273  1  0.88313263  0.53594641  0.65827136  1
  H+  H274  1  0.73001523  0.85828984  0.50495089  1
  H+  H275  1  0.92971047  0.34348419  0.94559822  1
  H+  H276  1  0.62623227  0.89813166  0.66452264  1
  H+  H277  1  0.40750739  0.86997196  0.48123479  1
  H+  H278  1  -0.00081238  0.09348938  0.13799672  1
  H+  H279  1  0.46176469  0.60455703  0.83321746  1
  H+  H280  1  0.64938675  0.63948546  0.86414179  1
  H+  H281  1  0.13049498  0.78243446  1.01592430  1
  H+  H282  1  0.79399766  0.62878022  0.33315286  1
  H+  H283  1  0.65704628  0.34745892  0.85104636  1
  H+  H284  1  0.16334357  0.85095276  0.74942929  1
  H+  H285  1  0.89624122  0.86939851  0.83264579  1
  H+  H286  1  0.11682720  0.21469437  0.19135577  1
  H+  H287  1  0.35929439  0.37246814  0.67908093  1
  H+  H288  1  0.28884432  0.44637876  0.38801361  1
  H+  H289  1  0.91906042  0.08406693  0.89453227  1
  H+  H290  1  0.07968735  0.42056081  0.08517584  1
  H+  H291  1  0.97590194  0.87257470  0.64667847  1
  H+  H292  1  0.32839871  0.14708124  0.72406538  1
  H+  H293  1  0.28894251  0.92325004  0.18459119  1
  H+  H294  1  0.91154401  0.83251423  0.55894946  1
  H+  H295  1  0.30610909  0.66956842  0.78260972  1
  H+  H296  1  0.60309818  0.66802596  0.73076874  1
  H+  H297  1  0.60661162  0.38698612  0.16337570  1
  H+  H298  1  0.33797875  0.96177139  0.09660895  1
  H+  H299  1  0.84455433  0.66028744  0.43225928  1
  H+  H300  1  0.82888200  0.66054804  0.73992457  1
  H+  H301  1  0.96496318  0.85677477  0.18782168  1
  H+  H302  1  0.83085297  0.39855944  0.69310138  1
  H+  H303  1  0.82329723  0.77993105  0.94633184  1
  H+  H304  1  0.41812300  0.08309405  0.90507425  1
  H+  H305  1  0.39508195  0.76166894  0.84471078  1
  H+  H306  1  0.11496829  0.94627099  0.39948857  1
  H+  H307  1  0.84910203  0.81914102  0.26983207  1
  H+  H308  1  0.27224043  0.39872874  0.38813890  1
  H+  H309  1  0.27547738  0.13612575  0.82238535  1
  H+  H310  1  0.58970593  0.92476083  0.10649140  1
  H+  H311  1  0.38502114  0.37516155  0.23176331  1
  H+  H312  1  0.42794426  0.58426174  0.56681832  1
  H+  H313  1  0.84776016  0.68922561  0.07859162  1
  H+  H314  1  0.39787717  0.56617939  0.88838119  1
  H+  H315  1  0.07069055  0.15216490  0.05040187  1
  H+  H316  1  0.25765237  0.13276090  0.00178130  1
  H+  H317  1  0.90538345  0.15534684  0.32558929  1
  H+  H318  1  0.62602410  0.85460496  0.17180238  1
  H+  H319  1  0.12563916  0.78707210  0.58366568  1
  H+  H320  1  0.92086033  0.59458132  0.95472484  1
  H+  H321  1  0.42823071  0.59218059  0.24943149  1
  H+  H322  1  0.14766343  0.07977019  0.22631194  1
  H+  H323  1  0.91841472  0.34184393  0.24522840  1
  H+  H324  1  0.55944339  0.14138123  0.73763891  1
  H+  H325  1  0.56753081  0.43866302  0.72361354  1
  H+  H326  1  0.36217348  0.73685982  0.15490770  1
  H+  H327  1  0.84279057  0.13895820  0.49396804  1
  H+  H328  1  0.07801393  0.70554923  0.47642578  1
  H+  H329  1  0.40627127  0.60205724  0.66268755  1
  H+  H330  1  0.43518648  0.84061504  0.54055174  1
  H+  H331  1  0.08321371  0.26109512  0.81086335  1
  H+  H332  1  0.37420696  0.93311350  0.71642639  1
  H+  H333  1  0.57835136  0.65168448  0.39412084  1
  H+  H334  1  0.44452753  0.32494474  0.26649110  1
  H+  H335  1  0.66673007  0.85034873  0.92635588  1
  H+  H336  1  0.31571594  0.87670406  0.79929135  1
  H+  H337  1  0.67789481  0.07095921  0.90272025  1
  H+  H338  1  0.58294685  0.16231817  0.11914919  1
  H+  H339  1  0.88474270  0.57984185  0.24331941  1
  H+  H340  1  0.61080034  0.42278469  0.39290831  1
  H+  H341  1  0.36726867  0.93565246  0.41585317  1
  H+  H342  1  0.67042602  0.83127203  0.59785524  1
  H+  H343  1  0.93727722  0.32853408  0.56271165  1
  H+  H344  1  0.32937263  0.41403974  0.75636351  1
  H+  H345  1  0.48589132  0.61862571  0.15365306  1
  H+  H346  1  0.83247804  0.91666430  0.76552322  1
  H+  H347  1  0.07127142  0.65557580  0.78455284  1
  H+  H348  1  0.72212000  0.35401090  0.52511572  1
  H+  H349  1  0.14765258  0.31306642  0.26971942  1
  H+  H350  1  0.16955963  0.55904073  0.94381465  1
  H+  H351  1  0.16583135  0.08587649  0.58883066  1
  H+  H352  1  0.63291583  0.93616694  0.43379418  1
  H+  H353  1  0.35228540  0.41852658  0.07512392  1
  H+  H354  1  0.15945242  0.82497880  0.92134621  1
  H+  H355  1  0.67567041  0.59292940  0.59484224  1
  H+  H356  1  0.67101032  0.33709727  0.23481704  1
  H+  H357  1  0.54525271  0.89824405  0.47611462  1
  H+  H358  1  0.11763006  0.87421577  0.83600134  1
  H+  H359  1  0.56261788  0.30678631  0.87305251  1
  H+  H360  1  0.84172892  0.42317154  0.07954070  1
  H+  H361  1  0.92400653  0.83988579  0.89220025  1
  H+  H362  1  0.67537124  0.34380191  0.96108887  1
  H+  H363  1  0.66529079  0.08536643  0.56967351  1
  H+  H364  1  0.06070080  0.64668761  0.38828485  1
  H+  H365  1  0.56554070  0.43005790  0.06561442  1
  H+  H366  1  0.78126248  0.23060124  0.12059116  1
  H+  H367  1  0.31974888  0.64463012  0.38542405  1
  H+  H368  1  0.82570193  0.90426917  0.10060234  1
  H+  H369  1  0.32135297  0.18273440  0.10654581  1
  H+  H370  1  0.67040112  0.58558202  0.23318262  1
  H+  H371  1  0.65356583  0.81455847  0.22709103  1
  H+  H372  1  0.09823401  0.18363261  0.42238069  1
  H+  H373  1  0.39587474  0.50879391  0.97046734  1
  H+  H374  1  0.15750180  0.77202845  0.58808007  1
  H+  H375  1  0.38503734  0.28759632  0.63142284  1
  H+  H376  1  0.37702690  0.80201832  0.24853784  1
  H+  H377  1  0.04916343  0.20623695  0.32944742  1
  H+  H378  1  0.42398692  0.08489492  0.55587445  1
  H+  H379  1  0.50746671  0.11313776  0.66516629  1
  H+  H380  1  0.63356430  0.32567864  0.60608617  1
  H+  H381  1  0.60231350  0.15880706  0.39271162  1
  H+  H382  1  0.60383504  0.73768644  0.85106528  1
  H+  H383  1  0.14909934  0.74900481  0.17686004  1
  O2-  O384  1  0.03878472  0.08920361  0.10872165  1
  O2-  O385  1  0.14709050  0.20042420  0.44991331  1
  O2-  O386  1  0.08991797  0.21086752  0.81667728  1
  O2-  O387  1  0.09693910  0.43351692  0.17145729  1
  O2-  O388  1  0.09732077  0.42567391  0.47789721  1
  O2-  O389  1  0.08658477  0.40252153  0.80924707  1
  O2-  O390  1  0.12437523  0.69159174  0.15847430  1
  O2-  O391  1  0.05913209  0.64487930  0.46969814  1
  O2-  O392  1  0.07455809  0.65608623  0.82986934  1
  O2-  O393  1  0.07764088  0.90763511  0.15512397  1
  O2-  O394  1  0.07811141  0.91725157  0.47593968  1
  O2-  O395  1  0.09478307  0.90203412  0.80836217  1
  O2-  O396  1  0.31745187  0.17977418  0.15125060  1
  O2-  O397  1  0.34040247  0.15375911  0.45709469  1
  O2-  O398  1  0.33760674  0.17178578  0.80742578  1
  O2-  O399  1  0.34742285  0.42337835  0.11932828  1
  O2-  O400  1  0.35031310  0.41178982  0.49900401  1
  O2-  O401  1  0.32745189  0.41477583  0.80375821  1
  O2-  O402  1  0.33660167  0.67442961  0.14494746  1
  O2-  O403  1  0.33523642  0.65707765  0.47367469  1
  O2-  O404  1  0.32218105  0.66350059  0.82503417  1
  O2-  O405  1  0.34868211  0.95377132  0.16793017  1
  O2-  O406  1  0.36483054  0.93424383  0.46201366  1
  O2-  O407  1  0.32714248  0.89501718  0.84153149  1
  O2-  O408  1  0.59411093  0.16899697  0.16367003  1
  O2-  O409  1  0.59325770  0.16382744  0.47679534  1
  O2-  O410  1  0.55612288  0.15177829  0.79734952  1
  O2-  O411  1  0.57795979  0.41944114  0.14986859  1
  O2-  O412  1  0.60446751  0.43142732  0.47168478  1
  O2-  O413  1  0.55807496  0.45035423  0.79750648  1
  O2-  O414  1  0.58846134  0.66422115  0.13072858  1
  O2-  O415  1  0.58789356  0.66491314  0.47407033  1
  O2-  O416  1  0.57282766  0.67181757  0.85614955  1
  O2-  O417  1  0.58099397  0.91758941  0.15151961  1
  O2-  O418  1  0.60913453  0.93538656  0.47584164  1
  O2-  O419  1  0.62253253  0.88885693  0.82569044  1
  O2-  O420  1  0.81417602  0.20596458  0.13772005  1
  O2-  O421  1  0.84021991  0.18598370  0.47051895  1
  O2-  O422  1  0.83510823  0.16255157  0.81285969  1
  O2-  O423  1  0.83755205  0.42084431  0.15631842  1
  O2-  O424  1  0.82959599  0.40562963  0.54331746  1
  O2-  O425  1  0.87149168  0.39919791  0.77259466  1
  O2-  O426  1  0.83155602  0.66880022  0.15256381  1
  O2-  O427  1  0.83777426  0.66222481  0.47701134  1
  O2-  O428  1  0.83942416  0.67229501  0.82073036  1
  O2-  O429  1  0.82194410  0.89208543  0.14457005  1
  O2-  O430  1  0.82792461  0.91531886  0.48512802  1
  O2-  O431  1  0.83473902  0.91646644  0.81117876  1
  O2-  O432  1  0.15500838  0.07247795  0.18222140  1
  O2-  O433  1  0.17247734  0.08388117  0.50789728  1
  O2-  O434  1  0.18020304  0.07849853  0.84543877  1
  O2-  O435  1  0.20537050  0.37944215  0.20540937  1
  O2-  O436  1  0.17532807  0.34094337  0.52466466  1
  O2-  O437  1  0.20793666  0.31641066  0.91711948  1
  O2-  O438  1  0.16467064  0.58520762  0.22757280  1
  O2-  O439  1  0.16707272  0.58663982  0.52309368  1
  O2-  O440  1  0.15460574  0.56151236  0.86189383  1
  O2-  O441  1  0.18390023  0.85924384  0.20335878  1
  O2-  O442  1  0.18907293  0.83179069  0.46679744  1
  O2-  O443  1  0.16420419  0.82077051  0.87583388  1
  O2-  O444  1  0.44960763  0.09468166  0.22698097  1
  O2-  O445  1  0.43069190  0.08959447  0.51051399  1
  O2-  O446  1  0.40966478  0.07398591  0.86016566  1
  O2-  O447  1  0.40912249  0.35378201  0.19775105  1
  O2-  O448  1  0.39266471  0.29219930  0.53542957  1
  O2-  O449  1  0.40009361  0.33462693  0.84512188  1
  O2-  O450  1  0.42504308  0.58725608  0.16926623  1
  O2-  O451  1  0.42336364  0.58028040  0.52168411  1
  O2-  O452  1  0.39907738  0.56852399  0.84100024  1
  O2-  O453  1  0.41112935  0.84214875  0.17633231  1
  O2-  O454  1  0.43546643  0.83696587  0.49553807  1
  O2-  O455  1  0.43984147  0.82161234  0.85737113  1
  O2-  O456  1  0.67087109  0.07972082  0.19528756  1
  O2-  O457  1  0.66043035  0.08348268  0.52237270  1
  O2-  O458  1  0.68104405  0.06285333  0.85852664  1
  O2-  O459  1  0.66721931  0.33846777  0.18957144  1
  O2-  O460  1  0.65798231  0.32219260  0.52223511  1
  O2-  O461  1  0.59782560  0.31582046  0.83703588  1
  O2-  O462  1  0.66514899  0.58522366  0.18798416  1
  O2-  O463  1  0.67473697  0.58781222  0.51486685  1
  O2-  O464  1  0.68895646  0.61984958  0.88006510  1
  O2-  O465  1  0.65344484  0.81966834  0.18157949  1
  O2-  O466  1  0.66803056  0.82616818  0.51993980  1
  O2-  O467  1  0.66234547  0.84125740  0.85293146  1
  O2-  O468  1  0.93630228  0.09889875  0.19912960  1
  O2-  O469  1  0.83126480  0.05816385  0.53632868  1
  O2-  O470  1  0.92472462  0.08677365  0.84900382  1
  O2-  O471  1  0.92222114  0.34512947  0.20035192  1
  O2-  O472  1  0.93159376  0.33867429  0.51896384  1
  O2-  O473  1  0.92657236  0.31831647  0.86304114  1
  O2-  O474  1  0.89211722  0.57361063  0.19981106  1
  O2-  O475  1  0.91101195  0.57799254  0.52811896  1
  O2-  O476  1  0.91040728  0.59270289  0.87237927  1
  O2-  O477  1  0.90321525  0.82537857  0.19834903  1
  O2-  O478  1  0.90817397  0.82524321  0.51265079  1
  O2-  O479  1  0.92914739  0.84118851  0.84688394  1
  O2-  O480  1  0.12900442  0.08221921  0.30316483  1
  O2-  O481  1  0.16503498  0.08142656  0.63407678  1
  O2-  O482  1  0.15946089  0.09062853  0.96883206  1
  O2-  O483  1  0.12226087  0.29651846  0.31078251  1
  O2-  O484  1  0.16714706  0.32751118  0.64773185  1
  O2-  O485  1  0.14556344  0.32747023  0.95252557  1
  O2-  O486  1  0.15191772  0.58026196  0.29434677  1
  O2-  O487  1  0.14261967  0.57389707  0.64975015  1
  O2-  O488  1  0.17747993  0.55964152  0.98829189  1
  O2-  O489  1  0.17727312  0.83567053  0.34341914  1
  O2-  O490  1  0.17458656  0.84226758  0.70716410  1
  O2-  O491  1  0.15816172  0.84377030  0.99608316  1
  O2-  O492  1  0.45105153  0.08087576  0.29374142  1
  O2-  O493  1  0.41656180  0.07539274  0.63304360  1
  O2-  O494  1  0.43173635  0.10297514  0.98445377  1
  O2-  O495  1  0.45171270  0.31518715  0.30967012  1
  O2-  O496  1  0.40196044  0.32070531  0.66916217  1
  O2-  O497  1  0.40755278  0.35826921  0.96782374  1
  O2-  O498  1  0.42536951  0.58458140  0.29462173  1
  O2-  O499  1  0.43610656  0.57358830  0.64635205  1
  O2-  O500  1  0.41262974  0.56681650  0.95553366  1
  O2-  O501  1  0.35152633  0.78159860  0.28947050  1
  O2-  O502  1  0.43152999  0.84150619  0.62126954  1
  O2-  O503  1  0.48065330  0.80273510  0.96919135  1
  O2-  O504  1  0.69621205  0.08132242  0.31583971  1
  O2-  O505  1  0.66728856  0.08843785  0.63930201  1
  O2-  O506  1  0.67948628  0.09407150  0.98411297  1
  O2-  O507  1  0.68121078  0.32819712  0.31267189  1
  O2-  O508  1  0.63574866  0.33563830  0.65037342  1
  O2-  O509  1  0.67165703  0.34426587  1.00517896  1
  O2-  O510  1  0.68702295  0.58573163  0.31154153  1
  O2-  O511  1  0.67196468  0.59147031  0.64014140  1
  O2-  O512  1  0.72800515  0.67647296  0.93228037  1
  O2-  O513  1  0.66534903  0.80767310  0.30196280  1
  O2-  O514  1  0.67076119  0.83672232  0.64326456  1
  O2-  O515  1  0.66630760  0.84392592  0.97261253  1
  O2-  O516  1  0.98722778  0.07929736  0.31449971  1
  O2-  O517  1  0.91099737  0.08634882  0.65105957  1
  O2-  O518  1  0.91499837  0.08612082  0.97086578  1
  O2-  O519  1  0.92712626  0.34007078  0.32659586  1
  O2-  O520  1  0.93616341  0.32823300  0.64401074  1
  O2-  O521  1  0.92279391  0.34403649  0.99024386  1
  O2-  O522  1  0.88612474  0.59971183  0.32689414  1
  O2-  O523  1  0.91977103  0.59816539  0.64948581  1
  O2-  O524  1  0.92242410  0.59329565  0.99957710  1
  O2-  O525  1  0.81323467  0.81059091  0.30621211  1
  O2-  O526  1  0.91814126  0.84865759  0.62896388  1
  O2-  O527  1  0.87985630  0.81765031  0.96541542  1
  O2-  O528  1  0.07987156  0.17441198  0.00689942  1
  O2-  O529  1  0.00342564  0.15358975  0.35263263  1
  O2-  O530  1  0.08435429  0.16228833  0.68859607  1
  O2-  O531  1  0.07248780  0.40981080  0.04109732  1
  O2-  O532  1  0.08990441  0.42146288  0.35387572  1
  O2-  O533  1  0.08820788  0.41062779  0.69178381  1
  O2-  O534  1  0.09155360  0.69302375  0.03829354  1
  O2-  O535  1  0.06122195  0.66055812  0.34441072  1
  O2-  O536  1  0.06962485  0.65817543  0.70382609  1
  O2-  O537  1  0.07401247  0.92615610  0.02509679  1
  O2-  O538  1  0.14843354  0.95884562  0.36140285  1
  O2-  O539  1  0.08795929  0.91972142  0.67764565  1
  O2-  O540  1  0.30821830  0.13905586  0.02595009  1
  O2-  O541  1  0.37838365  0.16598843  0.33944374  1
  O2-  O542  1  0.32439978  0.12992309  0.68083586  1
  O2-  O543  1  0.35766719  0.39697971  -0.00956089  1
  O2-  O544  1  0.34120140  0.40855501  0.27846514  1
  O2-  O545  1  0.33177252  0.41002187  0.68903056  1
  O2-  O546  1  0.35343056  0.65380749  0.02048496  1
  O2-  O547  1  0.31364847  0.63810174  0.34083579  1
  O2-  O548  1  0.26570921  0.69301473  0.72179901  1
  O2-  O549  1  0.33093332  0.95766042  0.05029341  1
  O2-  O550  1  0.35280750  0.92138578  0.34334832  1
  O2-  O551  1  0.34076307  0.90635321  0.67984072  1
  O2-  O552  1  0.59315446  0.17124322  0.03691621  1
  O2-  O553  1  0.60970772  0.16082459  0.34803047  1
  O2-  O554  1  0.56490122  0.13845581  0.68742218  1
  O2-  O555  1  0.56301826  0.42740177  0.02069944  1
  O2-  O556  1  0.60878065  0.41763538  0.34780250  1
  O2-  O557  1  0.56904888  0.43189559  0.67820164  1
  O2-  O558  1  0.61545872  0.67810647  0.00531303  1
  O2-  O559  1  0.58116912  0.64667328  0.34920889  1
  O2-  O560  1  0.59570300  0.66730828  0.68680989  1
  O2-  O561  1  0.60700225  0.93618338  0.03014818  1
  O2-  O562  1  0.68700861  0.94223062  0.37106259  1
  O2-  O563  1  0.59829196  0.93269594  0.67439827  1
  O2-  O564  1  0.84661390  0.17864620  0.01872974  1
  O2-  O565  1  0.86599110  0.16930746  0.30352177  1
  O2-  O566  1  0.82488253  0.16753959  0.69061231  1
  O2-  O567  1  0.83703992  0.42283946  0.03392610  1
  O2-  O568  1  0.84366696  0.43507849  0.34805510  1
  O2-  O569  1  0.81307200  0.42413384  0.66087373  1
  O2-  O570  1  0.86040899  0.69695161  0.03401491  1
  O2-  O571  1  0.85279264  0.65248146  0.35240778  1
  O2-  O572  1  0.83230841  0.66012321  0.69500160  1
  O2-  O573  1  0.83271380  0.92526029  0.01765788  1
  O2-  O574  1  0.85129575  0.95608069  0.36894250  1
  O2-  O575  1  0.83434298  0.92083454  0.68841324  1
