# generated using pymatgen
data_H2O
_symmetry_space_group_name_H-M   'P 1'
_cell_length_a   17.96316767
_cell_length_b   17.97959893
_cell_length_c   21.99548013
_cell_angle_alpha   90.01302586
_cell_angle_beta   89.98161699
_cell_angle_gamma   120.01590366
_symmetry_Int_Tables_number   1
_chemical_formula_structural   H2O
_chemical_formula_sum   'H384 O192'
_cell_volume   6151.16472683
_cell_formula_units_Z   192
loop_
 _symmetry_equiv_pos_site_id
 _symmetry_equiv_pos_as_xyz
  1  'x, y, z'
loop_
 _atom_type_symbol
 _atom_type_oxidation_number
  H+  1.0
  O2-  -2.0
loop_
 _atom_site_type_symbol
 _atom_site_label
 _atom_site_symmetry_multiplicity
 _atom_site_fract_x
 _atom_site_fract_y
 _atom_site_fract_z
 _atom_site_occupancy
  H+  H0  1  0.62508896  0.60517791  0.50141717  1
  H+  H1  1  0.97305355  0.60637221  0.17260305  1
  H+  H2  1  0.37803944  0.89193137  1.01737103  1
  H+  H3  1  0.11744398  0.72346684  0.67324354  1
  H+  H4  1  0.50839748  0.13929365  1.00161698  1
  H+  H5  1  0.15953149  0.27936782  0.16334138  1
  H+  H6  1  0.22217252  0.70546658  0.56898656  1
  H+  H7  1  0.60532050  0.46143455  0.81051627  1
  H+  H8  1  1.00869060  0.11993133  0.33688537  1
  H+  H9  1  0.39234376  0.87120088  0.32951468  1
  H+  H10  1  0.75923289  0.62866454  0.48525979  1
  H+  H11  1  0.46816909  0.10915649  0.16678313  1
  H+  H12  1  0.40038122  0.79129183  0.49543941  1
  H+  H13  1  0.32732776  0.19739882  0.01004073  1
  H+  H14  1  0.23595122  0.86830456  0.83501865  1
  H+  H15  1  0.39605516  0.85936301  0.17695417  1
  H+  H16  1  0.97644397  0.11869128  0.65352117  1
  H+  H17  1  0.01850583  0.88625918  0.48369099  1
  H+  H18  1  0.08883877  0.21644566  0.98957768  1
  H+  H19  1  0.15393038  0.85756763  0.99205041  1
  H+  H20  1  0.30418274  0.37668658  0.02564957  1
  H+  H21  1  0.14214455  0.76364798  -0.00330187  1
  H+  H22  1  0.15721326  0.98389929  0.18038757  1
  H+  H23  1  0.60505607  0.21159921  0.81105270  1
  H+  H24  1  0.35963881  0.47064921  0.81971154  1
  H+  H25  1  0.61226626  0.86467349  0.84036789  1
  H+  H26  1  0.14470109  0.48317026  0.64140589  1
  H+  H27  1  0.85821606  0.12720756  1.00835322  1
  H+  H28  1  0.62016722  0.98100679  0.32986690  1
  H+  H29  1  0.83174822  0.92424039  0.43299566  1
  H+  H30  1  0.14181389  0.14522524  0.35036464  1
  H+  H31  1  0.40185598  0.61778777  0.16794525  1
  H+  H32  1  0.62493993  0.35150775  0.19253704  1
  H+  H33  1  0.88194577  0.92954246  0.16888523  1
  H+  H34  1  0.78299329  0.89820859  0.34188189  1
  H+  H35  1  0.96605907  0.85752131  0.84706536  1
  H+  H36  1  0.38805676  0.48904230  0.16412317  1
  H+  H37  1  0.39376633  0.87629243  0.49746104  1
  H+  H38  1  0.39702515  1.01943430  0.32394376  1
  H+  H39  1  0.64337854  1.04105967  0.49624508  1
  H+  H40  1  0.59537331  0.14124255  0.48614182  1
  H+  H41  1  0.85442742  0.88896032  0.49158368  1
  H+  H42  1  0.61544332  0.90235188  0.48886222  1
  H+  H43  1  0.25034602  0.63113405  0.67878594  1
  H+  H44  1  0.91759103  0.84082860  1.00564012  1
  H+  H45  1  1.02042679  0.14074300  0.49451075  1
  H+  H46  1  0.46529782  0.35525469  0.49547927  1
  H+  H47  1  0.34084097  0.21469924  0.16734884  1
  H+  H48  1  0.13120980  0.48895206  0.31892244  1
  H+  H49  1  0.47819993  0.63305173  0.32833749  1
  H+  H50  1  0.85822354  0.89566738  0.83336556  1
  H+  H51  1  0.85821242  0.73906828  0.99250985  1
  H+  H52  1  0.72361323  0.13612655  0.95224906  1
  H+  H53  1  0.12796937  0.38106805  0.18758868  1
  H+  H54  1  0.83070806  0.59277392  0.14824069  1
  H+  H55  1  0.40498904  0.33208395  0.58628603  1
  H+  H56  1  0.65199130  0.77019219  0.18043129  1
  H+  H57  1  0.88718634  0.22176931  0.33679824  1
  H+  H58  1  0.01954400  0.39132735  0.03185921  1
  H+  H59  1  0.45273888  0.34028830  0.32699095  1
  H+  H60  1  0.63268531  0.91086421  -0.03404439  1
  H+  H61  1  0.77459761  0.14376340  0.47816046  1
  H+  H62  1  0.34231501  0.63511539  0.66658913  1
  H+  H63  1  0.56965994  0.16459123  0.72051963  1
  H+  H64  1  0.13428238  0.39856859  0.32180124  1
  H+  H65  1  0.28358963  0.64236715  0.00411908  1
  H+  H66  1  0.28228649  0.63466678  0.15867020  1
  H+  H67  1  0.72552372  0.35454365  0.32937354  1
  H+  H68  1  0.39274041  0.60947962  0.99303809  1
  H+  H69  1  0.55007704  0.21681179  0.67046529  1
  H+  H70  1  0.85338259  0.10467395  0.84475810  1
  H+  H71  1  0.85731748  0.39091480  0.16603697  1
  H+  H72  1  0.98553783  0.62155156  0.65299374  1
  H+  H73  1  0.11347210  0.62998522  0.67472866  1
  H+  H74  1  0.63312895  0.36860526  0.48655347  1
  H+  H75  1  0.23377944  0.63050850  0.32315799  1
  H+  H76  1  0.61689348  0.62333020  0.16086145  1
  H+  H77  1  0.90244914  0.04933849  0.18557770  1
  H+  H78  1  1.03690213  0.98193277  0.20761332  1
  H+  H79  1  0.73012070  0.87016498  0.65836290  1
  H+  H80  1  0.88137155  0.60119417  0.98901891  1
  H+  H81  1  0.51562834  0.63450823  0.49516898  1
  H+  H82  1  0.11560019  0.71190125  0.15954979  1
  H+  H83  1  0.76244802  0.61243291  0.99035610  1
  H+  H84  1  0.44973049  0.30518953  1.03104457  1
  H+  H85  1  0.69519199  0.29565963  0.62189560  1
  H+  H86  1  0.90864132  0.13844369  0.19417740  1
  H+  H87  1  0.07918468  0.65828074  0.06459809  1
  H+  H88  1  0.85202822  0.63413390  0.48799464  1
  H+  H89  1  0.33357118  0.91709188  0.40064609  1
  H+  H90  1  0.62866473  0.47929763  0.64533737  1
  H+  H91  1  0.26386054  0.13697473  0.80607584  1
  H+  H92  1  0.90872840  0.28491406  0.65239100  1
  H+  H93  1  0.37596227  0.59779391  0.83388944  1
  H+  H94  1  0.37267998  0.10316149  -0.00052599  1
  H+  H95  1  -0.01353438  0.35599488  0.31768529  1
  H+  H96  1  0.88724531  0.75565421  0.16863426  1
  H+  H97  1  0.10720729  0.08997336  0.99714726  1
  H+  H98  1  0.73236212  0.57783078  0.14033425  1
  H+  H99  1  0.30646357  0.40157367  0.72610621  1
  H+  H100  1  0.25460186  0.14509056  0.65965230  1
  H+  H101  1  0.72211539  0.84518118  0.84069761  1
  H+  H102  1  0.91850292  0.79564587  0.69348223  1
  H+  H103  1  0.86563447  0.39658450  0.48655776  1
  H+  H104  1  0.52766711  0.36937873  -0.04105744  1
  H+  H105  1  0.85456755  0.47502666  0.01248528  1
  H+  H106  1  0.63853690  0.10920692  0.31276895  1
  H+  H107  1  1.04539079  0.15527084  0.15767751  1
  H+  H108  1  0.28498186  0.88218760  0.01362138  1
  H+  H109  1  0.52864459  0.90641496  0.48561309  1
  H+  H110  1  0.87033017  0.76441515  0.49277539  1
  H+  H111  1  0.04575357  0.57609863  0.37886487  1
  H+  H112  1  0.84713451  0.23827131  0.04951503  1
  H+  H113  1  0.80134508  0.40225933  0.65997292  1
  H+  H114  1  0.10157843  0.00075711  1.00959860  1
  H+  H115  1  0.14184824  0.61853816  0.99397433  1
  H+  H116  1  1.00736037  0.61926394  0.82458956  1
  H+  H117  1  0.64300604  1.01858497  0.21819019  1
  H+  H118  1  0.92023088  0.34559515  1.09853775  1
  H+  H119  1  0.11500487  0.36162357  0.98186872  1
  H+  H120  1  0.82584191  0.69213228  0.63852723  1
  H+  H121  1  0.91021219  0.82583167  0.54974346  1
  H+  H122  1  0.23860798  0.84068246  0.18235561  1
  H+  H123  1  1.00327130  0.88641145  0.70208429  1
  H+  H124  1  0.99093736  0.37752460  0.82409346  1
  H+  H125  1  0.60228246  0.12009739  0.80481190  1
  H+  H126  1  0.99021893  0.89286444  0.17510136  1
  H+  H127  1  0.49382962  0.62151552  0.17275608  1
  H+  H128  1  0.12927296  0.36462663  0.48661686  1
  H+  H129  1  0.60998771  0.52705886  0.12084093  1
  H+  H130  1  0.66419352  0.31487140  0.27169383  1
  H+  H131  1  0.88708552  0.27993470  0.49344413  1
  H+  H132  1  0.86240705  0.73899049  0.19780335  1
  H+  H133  1  0.12356465  0.12158621  0.81985867  1
  H+  H134  1  0.08076175  0.17408978  0.72467765  1
  H+  H135  1  0.36583308  0.74045304  0.34062916  1
  H+  H136  1  0.60528491  0.72361009  0.49645165  1
  H+  H137  1  0.88159356  1.02610059  0.50230871  1
  H+  H138  1  0.61464613  0.46086932  -0.04495894  1
  H+  H139  1  0.72969226  0.60208748  0.31910475  1
  H+  H140  1  0.36585259  0.96903762  0.16646117  1
  H+  H141  1  0.37118901  0.72400766  0.16085835  1
  H+  H142  1  0.74158293  0.85192576  1.00195165  1
  H+  H143  1  0.46129829  0.11822052  0.50959862  1
  H+  H144  1  0.02199981  0.38447532  0.47335098  1
  H+  H145  1  0.59984721  0.21873535  0.16000319  1
  H+  H146  1  0.75584314  0.05321123  0.86215380  1
  H+  H147  1  0.11106238  0.24381879  0.80977461  1
  H+  H148  1  0.13339511  0.78380761  0.50407939  1
  H+  H149  1  0.82817814  0.96797933  0.83882829  1
  H+  H150  1  1.01431645  0.17494684  0.80167128  1
  H+  H151  1  0.35125765  0.47481769  0.49944356  1
  H+  H152  1  0.13669300  0.87381458  0.50507354  1
  H+  H153  1  0.39015355  0.05836461  0.72998464  1
  H+  H154  1  0.85412089  0.72554479  0.82230839  1
  H+  H155  1  0.37668649  0.26241635  0.82460808  1
  H+  H156  1  0.71398125  0.34022673  0.82427473  1
  H+  H157  1  0.87840954  -0.01621231  0.34334514  1
  H+  H158  1  0.37298733  0.26711515  0.49848199  1
  H+  H159  1  0.13097946  0.27219372  0.49815799  1
  H+  H160  1  0.58892571  0.72295692  0.66987233  1
  H+  H161  1  0.89865998  0.13220266  0.34329109  1
  H+  H162  1  0.87465121  0.90155809  0.68813767  1
  H+  H163  1  0.44459831  0.60815951  0.65982716  1
  H+  H164  1  0.72127574  0.36491636  0.01456998  1
  H+  H165  1  0.23796249  0.10828583  0.01373602  1
  H+  H166  1  0.59852252  0.46949045  0.47819427  1
  H+  H167  1  0.65448090  0.35349962  0.64404790  1
  H+  H168  1  0.62794764  0.99890858  0.83292737  1
  H+  H169  1  0.10860964  0.85689925  0.34672796  1
  H+  H170  1  0.24845912  0.37167309  0.16982288  1
  H+  H171  1  0.63435884  0.70749876  0.00450186  1
  H+  H172  1  0.12174776  0.01701357  0.50265642  1
  H+  H173  1  0.27090690  0.89184562  0.49317758  1
  H+  H174  1  0.62586540  0.34010429  0.82409066  1
  H+  H175  1  0.62449202  0.60022093  0.82345229  1
  H+  H176  1  0.39851808  0.52332922  0.99622439  1
  H+  H177  1  0.86096087  0.72834962  0.33401228  1
  H+  H178  1  0.64308052  0.85514632  0.18407061  1
  H+  H179  1  0.82823505  0.66704012  0.39240629  1
  H+  H180  1  0.11059415  0.65814638  0.49959635  1
  H+  H181  1  0.25344930  0.13196547  0.49328865  1
  H+  H182  1  0.11005389  0.48931478  0.82077163  1
  H+  H183  1  0.20195475  0.36513028  0.96910100  1
  H+  H184  1  0.86826294  0.50836475  0.83525386  1
  H+  H185  1  0.89417265  0.62235651  0.32445264  1
  H+  H186  1  0.86262648  0.13985726  0.48896260  1
  H+  H187  1  -0.01505950  0.36191205  0.18243572  1
  H+  H188  1  0.38011022  0.61439889  0.49948346  1
  H+  H189  1  0.35739118  0.98248038  0.49192061  1
  H+  H190  1  0.25335877  0.42009038  0.35104299  1
  H+  H191  1  0.88780171  0.48868517  0.66856860  1
  H+  H192  1  0.26683842  0.62252977  0.82464834  1
  H+  H193  1  0.14955044  0.27159022  0.32707953  1
  H+  H194  1  0.53203351  0.11393214  0.32597042  1
  H+  H195  1  0.62877490  0.59084387  0.98167869  1
  H+  H196  1  0.49537274  0.84672180  0.69411396  1
  H+  H197  1  0.66121963  0.04360127  0.98333922  1
  H+  H198  1  0.61851552  0.46310292  0.32968225  1
  H+  H199  1  0.51246689  0.35273675  0.66115561  1
  H+  H200  1  0.12758220  0.23245989  0.66788513  1
  H+  H201  1  0.20779502  0.10218557  0.19460162  1
  H+  H202  1  0.38717920  -0.02168215  0.65476651  1
  H+  H203  1  0.37533332  0.10318198  0.17350195  1
  H+  H204  1  0.36928924  0.88142934  0.82481073  1
  H+  H205  1  0.62928013  0.36378848  0.97971203  1
  H+  H206  1  0.18345158  0.32565830  0.26442300  1
  H+  H207  1  0.35127025  0.38327491  0.50084468  1
  H+  H208  1  0.09171646  0.41340000  0.24050534  1
  H+  H209  1  0.45849827  0.34488885  0.19349831  1
  H+  H210  1  0.54982915  0.99988986  0.63440293  1
  H+  H211  1  -0.00324649  0.13571257  0.00043845  1
  H+  H212  1  0.13692686  0.05746834  0.78105579  1
  H+  H213  1  0.11265512  0.62284583  0.15536900  1
  H+  H214  1  0.82084443  -0.00322930  1.02286092  1
  H+  H215  1  0.92791674  0.24145973  0.81989429  1
  H+  H216  1  0.83549924  0.42514940  0.39069267  1
  H+  H217  1  0.91302574  0.37462839  0.65128791  1
  H+  H218  1  0.03175058  0.83739322  0.04409419  1
  H+  H219  1  0.59406508  0.46053643  0.19077639  1
  H+  H220  1  0.70988689  0.57054163  0.65370682  1
  H+  H221  1  0.86510282  0.13428848  0.66966964  1
  H+  H222  1  0.40197669  0.77699533  0.00388578  1
  H+  H223  1  0.88494496  0.53037839  0.50009636  1
  H+  H224  1  0.14201779  0.03212956  0.67019404  1
  H+  H225  1  0.11195806  0.40317001  0.80688661  1
  H+  H226  1  0.74804440  0.19322584  0.63649608  1
  H+  H227  1  0.85868449  0.48065112  0.33093287  1
  H+  H228  1  0.02109635  0.63070882  0.00342741  1
  H+  H229  1  0.12725477  0.61273536  0.83791198  1
  H+  H230  1  0.65071346  0.17240250  0.63713551  1
  H+  H231  1  0.64802619  0.87624338  0.33007158  1
  H+  H232  1  0.37210475  0.36279450  0.64566487  1
  H+  H233  1  1.02464819  0.86747404  0.34349456  1
  H+  H234  1  0.18613986  0.38414889  0.65471276  1
  H+  H235  1  0.22894515  0.36934316  0.50233639  1
  H+  H236  1  0.61279910  0.73870381  0.34523810  1
  H+  H237  1  0.37611440  0.39108528  0.16875839  1
  H+  H238  1  0.40546611  0.35653174  1.00892113  1
  H+  H239  1  0.64226874  0.06676659  0.88407182  1
  H+  H240  1  0.08019955  0.80214706  0.63665927  1
  H+  H241  1  0.51298457  0.62518538  0.82359565  1
  H+  H242  1  0.53366491  0.63329077  0.00419956  1
  H+  H243  1  0.36334909  0.65076823  0.33705594  1
  H+  H244  1  0.39522844  0.07612836  0.56515499  1
  H+  H245  1  0.35180132  0.24589548  0.65501049  1
  H+  H246  1  0.51638330  0.37392792  0.81502135  1
  H+  H247  1  0.32911720  0.51481444  0.35110693  1
  H+  H248  1  0.85772655  0.47997338  0.17062574  1
  H+  H249  1  0.63596522  0.85805850  0.66090184  1
  H+  H250  1  0.34234720  0.13227302  0.48926743  1
  H+  H251  1  0.85974214  0.37806127  0.81746406  1
  H+  H252  1  0.11860799  0.88856558  0.84780781  1
  H+  H253  1  0.48346251  0.86894198  0.85204294  1
  H+  H254  1  0.35326108  0.37807813  0.81779113  1
  H+  H255  1  0.35823074  0.95715123  0.79457519  1
  H+  H256  1  0.75194612  0.15711202  0.04221966  1
  H+  H257  1  0.98121967  0.61466529  0.32983357  1
  H+  H258  1  0.14248340  0.90911597  0.69419464  1
  H+  H259  1  0.87077944  0.59902855  0.83749388  1
  H+  H260  1  0.15911300  0.85264536  0.18174196  1
  H+  H261  1  0.77563321  0.39598316  0.48109266  1
  H+  H262  1  0.13581091  0.74480504  0.33618120  1
  H+  H263  1  0.17493552  0.07153156  0.26266124  1
  H+  H264  1  0.36175976  0.76319942  0.67105816  1
  H+  H265  1  0.27279953  0.87474850  0.34312941  1
  H+  H266  1  0.56305785  0.01063553  0.66712360  1
  H+  H267  1  0.49217321  0.86521640  1.00767826  1
  H+  H268  1  0.91980634  0.58699017  0.23526102  1
  H+  H269  1  1.06649215  0.38951298  0.63376615  1
  H+  H270  1  0.52808607  0.88361577  0.17869933  1
  H+  H271  1  0.38594238  0.31599072  0.24179636  1
  H+  H272  1  0.71635266  0.60521294  0.82463719  1
  H+  H273  1  0.60065925  0.14236762  0.99822809  1
  H+  H274  1  0.56493033  0.40003508  0.25196312  1
  H+  H275  1  0.78232288  0.90229503  0.17696399  1
  H+  H276  1  0.22264214  0.37081102  0.82517110  1
  H+  H277  1  0.46173731  0.07701889  0.65534225  1
  H+  H278  1  0.10786475  0.13661687  0.49933171  1
  H+  H279  1  0.21372647  0.97560802  0.12877953  1
  H+  H280  1  0.78687299  0.12992813  0.70774171  1
  H+  H281  1  0.71654853  0.35803383  0.17755742  1
  H+  H282  1  0.28042045  0.65776172  0.49577128  1
  H+  H283  1  0.71840896  0.86563780  0.50089922  1
  H+  H284  1  0.85095114  0.16247370  0.40113466  1
  H+  H285  1  0.13608549  0.54630470  0.70597695  1
  H+  H286  1  0.83627215  0.41277864  0.75872360  1
  H+  H287  1  0.14848230  0.52136115  0.18255042  1
  H+  H288  1  0.19167519  0.84155633  0.90057939  1
  H+  H289  1  0.14282499  0.53108453  -0.00635534  1
  H+  H290  1  0.09918347  0.17455416  0.40504783  1
  H+  H291  1  0.11322685  0.92861615  0.75972492  1
  H+  H292  1  0.16377354  0.58709165  0.89700921  1
  H+  H293  1  0.36681720  0.42514136  0.07995884  1
  H+  H294  1  0.57135527  0.87765192  0.77914159  1
  H+  H295  1  0.90965519  0.56683139  0.93213686  1
  H+  H296  1  0.40180379  0.58117298  0.56021648  1
  H+  H297  1  0.93574607  0.86190482  0.27303680  1
  H+  H298  1  0.97182377  0.62313984  0.50012910  1
  H+  H299  1  0.89229561  0.86909060  0.33312389  1
  H+  H300  1  0.16409057  0.84362360  0.60065297  1
  H+  H301  1  0.93193620  0.33829884  0.88424478  1
  H+  H302  1  0.30474883  0.15256593  0.10883385  1
  H+  H303  1  0.77545683  0.13765797  0.20180742  1
  H+  H304  1  0.14966907  0.07154997  0.56552367  1
  H+  H305  1  0.56935729  0.40688990  0.41959797  1
  H+  H306  1  0.42247512  0.59840778  0.26691845  1
  H+  H307  1  0.12814565  0.11455031  0.65895687  1
  H+  H308  1  0.42700682  0.85294824  0.91153934  1
  H+  H309  1  0.08512379  0.91192386  0.42856367  1
  H+  H310  1  0.66925166  0.56933310  0.26137167  1
  H+  H311  1  0.34732285  0.86864802  0.72515406  1
  H+  H312  1  0.60008764  0.93668207  0.12941226  1
  H+  H313  1  0.08357152  0.91222937  0.09018364  1
  H+  H314  1  0.13802417  0.61932662  0.32512545  1
  H+  H315  1  0.06918060  0.65441159  0.76683363  1
  H+  H316  1  0.65377860  0.56156498  0.55390839  1
  H+  H317  1  0.59752896  0.66765617  0.10563889  1
  H+  H318  1  0.82208867  0.42638104  0.07839408  1
  H+  H319  1  0.08318140  0.41136776  0.41480142  1
  H+  H320  1  0.90054362  0.18420235  0.76087743  1
  H+  H321  1  0.42568560  0.07619393  0.26404858  1
  H+  H322  1  0.32958864  0.67359480  0.43157613  1
  H+  H323  1  0.42172867  0.83002488  0.23814195  1
  H+  H324  1  0.59916905  0.23087678  0.49146513  1
  H+  H325  1  0.17800552  0.59618593  0.23008434  1
  H+  H326  1  0.40298446  0.31310638  0.88692584  1
  H+  H327  1  0.89662643  0.82031713  0.90020016  1
  H+  H328  1  0.38781478  0.02419807  0.99889752  1
  H+  H329  1  0.88861430  0.02766689  0.66004356  1
  H+  H330  1  0.55506616  0.41804893  0.07400781  1
  H+  H331  1  0.41136512  0.57166348  0.89366884  1
  H+  H332  1  0.34839543  0.12694032  0.79064118  1
  H+  H333  1  0.91062189  0.08545685  0.56177376  1
  H+  H334  1  0.15237313  0.34096149  0.87900086  1
  H+  H335  1  0.67920169  0.83979927  0.27473254  1
  H+  H336  1  1.01514584  0.84863544  0.59287297  1
  H+  H337  1  0.85606724  0.08368790  0.94391947  1
  H+  H338  1  0.94874104  0.09712356  0.27587880  1
  H+  H339  1  0.54913439  0.37531154  0.08408472  1
  H+  H340  1  0.32207029  0.18059836  0.72001331  1
  H+  H341  1  0.92445777  0.33939230  0.55234149  1
  H+  H342  1  0.68031035  0.12289170  0.54342088  1
  H+  H343  1  0.89708932  0.32978638  0.28560436  1
  H+  H344  1  0.55442569  0.67390629  0.73370595  1
  H+  H345  1  0.10638666  0.42406690  0.06729445  1
  H+  H346  1  0.68344421  0.94062716  0.02657244  1
  H+  H347  1  0.67723816  0.35167543  0.54427053  1
  H+  H348  1  0.92175469  0.59010840  0.59348744  1
  H+  H349  1  0.34119488  0.66581702  0.06443524  1
  H+  H350  1  0.68184868  0.80500234  0.90446806  1
  H+  H351  1  0.16571625  0.80183432  0.27588001  1
  H+  H352  1  0.28298340  0.14642196  0.39543187  1
  H+  H353  1  0.65818428  0.57459010  0.91492813  1
  H+  H354  1  0.62381288  0.26742495  0.00887582  1
  H+  H355  1  0.88967421  0.27584869  0.18115254  1
  H+  H356  1  0.35599082  0.26382870  0.33044837  1
  H+  H357  1  0.48333797  0.87207089  0.32837661  1
  H+  H358  1  0.88447070  0.37268173  1.04031841  1
  H+  H359  1  0.62120508  0.20440555  0.33346120  1
  H+  H360  1  0.60547003  0.71187012  0.82705912  1
  H+  H361  1  0.87403504  0.64184190  0.66024162  1
  H+  H362  1  0.32469673  0.65111487  0.76516317  1
  H+  H363  1  0.07846214  0.66844698  0.43222403  1
  H+  H364  1  0.52855327  0.78115764  0.70844471  1
  H+  H365  1  0.83088479  0.92983431  0.73699607  1
  H+  H366  1  0.80960428  0.62726185  0.05578399  1
  H+  H367  1  0.35842010  0.51550302  0.65439524  1
  H+  H368  1  0.56908424  0.16578812  0.09814418  1
  H+  H369  1  0.66201117  0.83871395  0.56074593  1
  H+  H370  1  0.57629455  0.67280166  0.40026271  1
  H+  H371  1  0.77513362  0.79438501  0.97378646  1
  H+  H372  1  0.80163664  0.94319323  0.08522791  1
  H+  H373  1  1.05064832  0.89455941  0.59322841  1
  H+  H374  1  0.10217301  0.96848872  0.84844587  1
  H+  H375  1  0.45589526  0.09819882  0.78535639  1
  H+  H376  1  0.08523689  0.17639893  0.09153932  1
  H+  H377  1  0.57040942  0.37859438  0.72128480  1
  H+  H378  1  0.61169344  0.36879553  0.33388931  1
  H+  H379  1  0.17123122  0.60973463  0.58599791  1
  H+  H380  1  0.59137402  0.93120854  0.39459379  1
  H+  H381  1  0.34000408  0.90935581  0.10774099  1
  H+  H382  1  0.81611309  0.16127952  0.13486757  1
  H+  H383  1  0.83078996  0.67063103  0.76119850  1
  O2-  O384  1  0.10044838  0.18306225  0.13515037  1
  O2-  O385  1  0.08258163  0.17154914  0.48303878  1
  O2-  O386  1  0.07276899  0.18195004  0.79704942  1
  O2-  O387  1  0.09242048  0.40980660  0.19521761  1
  O2-  O388  1  0.08239971  0.40792948  0.45931053  1
  O2-  O389  1  0.07877862  0.43263784  0.79850553  1
  O2-  O390  1  0.08180575  0.65328576  0.14118885  1
  O2-  O391  1  0.07734148  0.68069893  0.47848440  1
  O2-  O392  1  0.06834052  0.64999911  0.81175108  1
  O2-  O393  1  0.15734988  0.94241168  0.14794636  1
  O2-  O394  1  0.08078498  0.91929356  0.47472123  1
  O2-  O395  1  0.07792516  0.90943973  0.83316039  1
  O2-  O396  1  0.30882081  0.15312221  0.15399694  1
  O2-  O397  1  0.31183712  0.16242102  0.47419991  1
  O2-  O398  1  0.32385823  0.16699160  0.78935005  1
  O2-  O399  1  0.35631897  0.42839141  0.14734908  1
  O2-  O400  1  0.31536342  0.41071447  0.49810199  1
  O2-  O401  1  0.32546974  0.41040863  0.80261086  1
  O2-  O402  1  0.34250512  0.66526446  0.14238514  1
  O2-  O403  1  0.33691331  0.67671919  0.47699947  1
  O2-  O404  1  0.32578612  0.64136211  0.80961211  1
  O2-  O405  1  0.34023722  0.90720518  0.15333807  1
  O2-  O406  1  0.33090128  0.92186974  0.47706031  1
  O2-  O407  1  0.33341526  0.89395501  0.79530420  1
  O2-  O408  1  0.56537694  0.15981354  0.14275908  1
  O2-  O409  1  0.55925870  0.16787850  0.49026473  1
  O2-  O410  1  0.57296147  0.15145245  0.79176032  1
  O2-  O411  1  0.56415012  0.39687283  0.20719356  1
  O2-  O412  1  0.56782699  0.40777812  0.46512018  1
  O2-  O413  1  0.57456636  0.40031407  0.79667225  1
  O2-  O414  1  0.59855350  0.66823266  0.15067431  1
  O2-  O415  1  0.57750302  0.66269788  0.48262883  1
  O2-  O416  1  0.57266466  0.65523997  0.80582238  1
  O2-  O417  1  0.59284623  0.91842362  0.17173083  1
  O2-  O418  1  0.59174980  0.93795211  0.47252535  1
  O2-  O419  1  0.58439568  0.89595239  0.82313238  1
  O2-  O420  1  0.83132049  0.16901665  0.17872403  1
  O2-  O421  1  0.83810661  0.17181951  0.46709288  1
  O2-  O422  1  0.92290902  0.18730614  0.80257004  1
  O2-  O423  1  0.82454284  0.41919601  0.15365225  1
  O2-  O424  1  0.83871424  0.43031301  0.47207874  1
  O2-  O425  1  0.82641967  0.40531143  0.80362868  1
  O2-  O426  1  0.79066555  0.59755428  0.12011872  1
  O2-  O427  1  0.82093177  0.66334128  0.47182905  1
  O2-  O428  1  0.82555351  0.66567468  0.80576656  1
  O2-  O429  1  0.83845192  0.94562509  0.15787393  1
  O2-  O430  1  0.82748903  0.92320196  0.47879688  1
  O2-  O431  1  0.82110537  0.91726598  0.81598172  1
  O2-  O432  1  0.15815569  0.05710610  0.21802041  1
  O2-  O433  1  0.14999898  0.07680512  0.52065646  1
  O2-  O434  1  0.15444956  0.08844907  0.81962774  1
  O2-  O435  1  0.18817868  0.33695161  0.18472288  1
  O2-  O436  1  0.15917159  0.33559060  0.50865456  1
  O2-  O437  1  0.15952697  0.34344183  0.83420845  1
  O2-  O438  1  0.17677064  0.58524796  0.18472013  1
  O2-  O439  1  0.19011975  0.64872508  0.55035946  1
  O2-  O440  1  0.16101208  0.58428974  0.85202359  1
  O2-  O441  1  0.17666093  0.81086592  0.19512303  1
  O2-  O442  1  0.16649823  0.84341367  0.52156473  1
  O2-  O443  1  0.18739819  0.86248536  0.86018242  1
  O2-  O444  1  0.40746316  0.07325338  0.18368609  1
  O2-  O445  1  0.39774113  0.08458366  0.52082528  1
  O2-  O446  1  0.39365318  0.06875808  0.77506245  1
  O2-  O447  1  0.39408689  0.31834566  0.19565649  1
  O2-  O448  1  0.40694130  0.32720802  0.51493043  1
  O2-  O449  1  0.40610351  0.32155405  0.84294501  1
  O2-  O450  1  0.43182286  0.58876278  0.18565292  1
  O2-  O451  1  0.40815943  0.58202083  0.51514606  1
  O2-  O452  1  0.41021860  0.56920080  0.84856326  1
  O2-  O453  1  0.42553259  0.82805930  0.19233086  1
  O2-  O454  1  0.43162711  0.85248817  0.50773362  1
  O2-  O455  1  0.42688453  0.85812841  0.86701390  1
  O2-  O456  1  0.67568869  0.07997972  0.23049436  1
  O2-  O457  1  0.67711779  0.10550272  0.50047750  1
  O2-  O458  1  0.66033023  0.06251811  0.84267408  1
  O2-  O459  1  0.65750557  0.31950722  0.19326547  1
  O2-  O460  1  0.66887475  0.34283471  0.49967028  1
  O2-  O461  1  0.65268199  0.30586610  0.83644267  1
  O2-  O462  1  0.63644035  0.54691663  0.16068892  1
  O2-  O463  1  0.65498159  0.57128973  0.50916553  1
  O2-  O464  1  0.65525463  0.56986477  0.83811388  1
  O2-  O465  1  0.67950815  0.83056625  0.19658752  1
  O2-  O466  1  0.65767931  0.83579426  0.51550967  1
  O2-  O467  1  0.66540893  0.80994426  0.86188212  1
  O2-  O468  1  0.94193811  0.10848784  0.20108204  1
  O2-  O469  1  0.91237783  0.08774065  0.51649298  1
  O2-  O470  1  0.81131885  0.05551284  0.87083601  1
  O2-  O471  1  0.92251384  0.33956026  0.17340625  1
  O2-  O472  1  0.91851831  0.34083113  0.50727933  1
  O2-  O473  1  0.92911524  0.33337775  0.84011137  1
  O2-  O474  1  0.91397197  0.57918687  0.18951524  1
  O2-  O475  1  0.91139774  0.59080544  0.51637466  1
  O2-  O476  1  0.89807060  0.56702455  0.85376031  1
  O2-  O477  1  0.97944890  0.93046272  0.20104163  1
  O2-  O478  1  0.90298734  0.82694239  0.50593401  1
  O2-  O479  1  0.90310847  0.83019089  0.85540079  1
  O2-  O480  1  0.19089010  0.10141499  0.33375769  1
  O2-  O481  1  0.16152793  0.08548650  0.64566154  1
  O2-  O482  1  0.13739657  0.05726446  0.99061137  1
  O2-  O483  1  0.17397148  0.32981562  0.30844361  1
  O2-  O484  1  0.21054168  0.34471457  0.66728887  1
  O2-  O485  1  0.14100771  0.33138717  0.95944153  1
  O2-  O486  1  0.17443161  0.59761300  0.30466569  1
  O2-  O487  1  0.15839253  0.57785891  0.66785333  1
  O2-  O488  1  0.17495433  0.59089872  0.97888230  1
  O2-  O489  1  0.16514851  0.80461497  0.32109498  1
  O2-  O490  1  0.14208749  0.83099469  0.64370277  1
  O2-  O491  1  0.18246858  0.82479103  0.98346126  1
  O2-  O492  1  0.43617769  0.07802716  0.30844696  1
  O2-  O493  1  0.39856227  0.03840868  0.65281026  1
  O2-  O494  1  0.41172513  0.08382098  0.98347352  1
  O2-  O495  1  0.39364556  0.32213552  0.31403729  1
  O2-  O496  1  0.40214567  0.33147231  0.63299333  1
  O2-  O497  1  0.42371835  0.31450843  0.99490606  1
  O2-  O498  1  0.41778335  0.60570488  0.31106757  1
  O2-  O499  1  0.38808334  0.57491219  0.63870185  1
  O2-  O500  1  0.42411800  0.58070185  0.97700654  1
  O2-  O501  1  0.42259465  0.84093962  0.31301796  1
  O2-  O502  1  0.40163672  0.82855413  0.66316710  1
  O2-  O503  1  0.43240197  0.84026236  0.99449948  1
  O2-  O504  1  0.67695895  0.07729601  0.29739536  1
  O2-  O505  1  0.70347215  0.19453398  0.61173280  1
  O2-  O506  1  0.66766786  0.10063857  0.97137077  1
  O2-  O507  1  0.66353233  0.31549380  0.31718608  1
  O2-  O508  1  0.70296308  0.35414510  0.62181309  1
  O2-  O509  1  0.65631374  0.33421564  1.00888303  1
  O2-  O510  1  0.66997994  0.56187504  0.30520871  1
  O2-  O511  1  0.65615307  0.53926620  0.63091056  1
  O2-  O512  1  0.65978106  0.56527425  0.95992679  1
  O2-  O513  1  0.68217279  0.84761449  0.31976425  1
  O2-  O514  1  0.67205177  0.83874169  0.63969116  1
  O2-  O515  1  0.72265460  0.80015243  0.97555666  1
  O2-  O516  1  0.94610090  0.09040551  0.32150474  1
  O2-  O517  1  0.91446474  0.08705120  0.64189776  1
  O2-  O518  1  0.87941653  0.09309656  0.98626776  1
  O2-  O519  1  0.92406463  0.31257012  0.31667645  1
  O2-  O520  1  0.93742991  0.34103351  0.63216875  1
  O2-  O521  1  0.91698361  0.34283560  1.05249197  1
  O2-  O522  1  0.92298221  0.59105076  0.30874379  1
  O2-  O523  1  0.92329145  0.59196704  0.63919076  1
  O2-  O524  1  0.91388713  0.57093167  0.97758739  1
  O2-  O525  1  0.92030921  0.83822234  0.31456992  1
  O2-  O526  1  0.94075917  0.85780087  0.69449822  1
  O2-  O527  1  0.87490714  0.79950097  0.97743265  1
  O2-  O528  1  0.05865182  0.15986571  0.00971037  1
  O2-  O529  1  0.10288140  0.17208877  0.35996976  1
  O2-  O530  1  0.08541507  0.17200654  0.67864624  1
  O2-  O531  1  0.08389846  0.41862890  0.02611059  1
  O2-  O532  1  0.09593897  0.42439017  0.32064252  1
  O2-  O533  1  0.12960000  0.42243905  0.63214583  1
  O2-  O534  1  0.08165050  0.66261083  0.01888524  1
  O2-  O535  1  0.06910077  0.63538996  0.36537756  1
  O2-  O536  1  0.08020272  0.66252087  0.68419560  1
  O2-  O537  1  0.04375376  0.89503629  0.05436905  1
  O2-  O538  1  0.08322023  0.89186075  0.36068451  1
  O2-  O539  1  0.12433251  0.94625203  0.71566242  1
  O2-  O540  1  0.29969126  0.14006073  0.02869483  1
  O2-  O541  1  0.28183895  0.15233431  0.35029453  1
  O2-  O542  1  0.31842864  0.18233893  0.67326050  1
  O2-  O543  1  0.36483475  0.41712968  0.03274205  1
  O2-  O544  1  0.27668788  0.47456805  0.37350434  1
  O2-  O545  1  0.30294565  0.40058770  0.68007343  1
  O2-  O546  1  0.34423503  0.66886165  0.01883749  1
  O2-  O547  1  0.33131998  0.67904814  0.35404627  1
  O2-  O548  1  0.31765533  0.66744368  0.68692068  1
  O2-  O549  1  0.34361027  0.91848550  0.03097922  1
  O2-  O550  1  0.33397843  0.91252224  0.35516068  1
  O2-  O551  1  0.35019147  0.86765778  0.67895962  1
  O2-  O552  1  0.57186262  0.17222637  0.01520087  1
  O2-  O553  1  0.59538329  0.14117441  0.33874290  1
  O2-  O554  1  0.56219468  0.16977810  0.67493430  1
  O2-  O555  1  0.58891844  0.39733655  -0.05320709  1
  O2-  O556  1  0.57886645  0.40034643  0.34013725  1
  O2-  O557  1  0.56891701  0.36460911  0.67678984  1
  O2-  O558  1  0.59158937  0.64970031  0.02059226  1
  O2-  O559  1  0.57408076  0.67755416  0.35555738  1
  O2-  O560  1  0.53644075  0.68744749  0.69387797  1
  O2-  O561  1  0.63570394  0.94170145  0.00328033  1
  O2-  O562  1  0.58855592  0.92245916  0.34935949  1
  O2-  O563  1  0.54606948  0.84329149  0.70947640  1
  O2-  O564  1  0.81075640  0.17389209  0.05455856  1
  O2-  O565  1  0.86123161  0.16027521  0.35461932  1
  O2-  O566  1  0.84236331  0.17012709  0.68974866  1
  O2-  O567  1  0.82104606  0.41713499  0.03291598  1
  O2-  O568  1  0.82840350  0.42034103  0.34585929  1
  O2-  O569  1  0.85812898  0.42684852  0.68077521  1
  O2-  O570  1  0.82056483  0.64278233  0.00977479  1
  O2-  O571  1  0.83275646  0.66726336  0.34722723  1
  O2-  O572  1  0.84049259  0.67071311  0.67468738  1
  O2-  O573  1  0.77728433  0.94315648  0.04423168  1
  O2-  O574  1  0.84340058  0.92374562  0.35863190  1
  O2-  O575  1  0.83837534  0.92906767  0.69206800  1
