# generated using pymatgen
data_H2O
_symmetry_space_group_name_H-M   'P 1'
_cell_length_a   17.99379666
_cell_length_b   17.99425522
_cell_length_c   22.01081982
_cell_angle_alpha   90.00053822
_cell_angle_beta   89.99916912
_cell_angle_gamma   120.00092782
_symmetry_Int_Tables_number   1
_chemical_formula_structural   H2O
_chemical_formula_sum   'H384 O192'
_cell_volume   6171.90843450
_cell_formula_units_Z   192
loop_
 _symmetry_equiv_pos_site_id
 _symmetry_equiv_pos_as_xyz
  1  'x, y, z'
loop_
 _atom_type_symbol
 _atom_type_oxidation_number
  H+  1.0
  O2-  -2.0
loop_
 _atom_site_type_symbol
 _atom_site_label
 _atom_site_symmetry_multiplicity
 _atom_site_fract_x
 _atom_site_fract_y
 _atom_site_fract_z
 _atom_site_occupancy
  H+  H0  1  0.18117404  0.06230241  0.72310897  1
  H+  H1  1  0.38480686  0.52389715  0.83842709  1
  H+  H2  1  0.41076870  0.14029511  0.66569160  1
  H+  H3  1  0.73118643  0.63140709  0.17673104  1
  H+  H4  1  0.64989507  0.27172217  0.99212181  1
  H+  H5  1  0.57693246  0.91984676  0.73123765  1
  H+  H6  1  0.90778695  0.36353259  0.32902058  1
  H+  H7  1  0.36122506  0.63693966  0.83301623  1
  H+  H8  1  0.71195162  0.11172617  0.83573123  1
  H+  H9  1  0.77359320  0.13881317  1.00418352  1
  H+  H10  1  0.41619718  0.15809235  0.51684543  1
  H+  H11  1  0.86062046  0.99027062  0.15215997  1
  H+  H12  1  0.35663684  0.97441765  0.82863946  1
  H+  H13  1  0.37492787  0.29280036  0.20685339  1
  H+  H14  1  0.10793006  0.62564638  0.67879548  1
  H+  H15  1  0.35598895  0.37677998  -0.00016906  1
  H+  H16  1  0.34949054  0.41286333  0.33301609  1
  H+  H17  1  0.81205996  0.64560184  1.01194030  1
  H+  H18  1  0.89608397  0.15045892  0.33995277  1
  H+  H19  1  0.12621857  0.85508326  0.83354036  1
  H+  H20  1  0.86559543  0.63070936  0.49827731  1
  H+  H21  1  0.38640542  -0.00913982  0.35074821  1
  H+  H22  1  0.61436549  0.23136432  0.83584178  1
  H+  H23  1  0.09345243  -0.03120647  0.16470458  1
  H+  H24  1  0.34301012  0.87579682  0.68364211  1
  H+  H25  1  0.58531168  0.75672158  1.01456369  1
  H+  H26  1  0.88675718  0.11531399  0.17042405  1
  H+  H27  1  0.97511654  0.85966722  0.18940197  1
  H+  H28  1  0.84635712  0.41263105  0.28223790  1
  H+  H29  1  0.61134377  0.23141063  0.33969376  1
  H+  H30  1  0.87163183  0.72266446  0.17189015  1
  H+  H31  1  0.12330598  0.13758278  0.82162513  1
  H+  H32  1  0.36421387  0.39119975  0.82318041  1
  H+  H33  1  0.81872294  0.90984745  0.76730454  1
  H+  H34  1  0.12202453  0.08969748  0.98537201  1
  H+  H35  1  0.63353092  0.51832251  0.66393108  1
  H+  H36  1  0.76898334  0.63211345  0.67553047  1
  H+  H37  1  0.87621376  0.26785391  0.84172617  1
  H+  H38  1  0.61307832  0.63342480  0.50000005  1
  H+  H39  1  0.09647437  0.67564548  0.06365241  1
  H+  H40  1  0.21842050  0.10194815  0.52233036  1
  H+  H41  1  0.14724871  0.62468820  0.99539453  1
  H+  H42  1  0.73165638  0.36602720  0.65812218  1
  H+  H43  1  0.08891968  0.94682053  0.67076680  1
  H+  H44  1  0.50520168  0.66181034  0.34605991  1
  H+  H45  1  0.39651551  0.81045795  0.22486197  1
  H+  H46  1  0.11345580  0.47190276  0.68037239  1
  H+  H47  1  0.51208638  0.38087577  0.16093194  1
  H+  H48  1  0.84647326  0.88846387  0.66695107  1
  H+  H49  1  0.11894366  0.66427186  0.32354683  1
  H+  H50  1  0.89210944  0.27574764  0.17415440  1
  H+  H51  1  0.09839297  0.96710504  0.50692902  1
  H+  H52  1  0.36130747  0.22870245  0.13734021  1
  H+  H53  1  0.88272265  0.52082032  0.65880952  1
  H+  H54  1  0.40849783  0.33926073  0.32056601  1
  H+  H55  1  0.76877329  0.14177124  0.66890277  1
  H+  H56  1  0.47997079  0.12297684  -0.01331526  1
  H+  H57  1  0.41758243  0.54076880  0.21720091  1
  H+  H58  1  0.86303858  0.90431868  0.13868943  1
  H+  H59  1  0.36221383  -0.01619820  0.99834665  1
  H+  H60  1  0.90040222  0.53358467  0.99517277  1
  H+  H61  1  0.61253165  0.74638356  0.17146294  1
  H+  H62  1  0.14330368  0.43436213  0.33656199  1
  H+  H63  1  0.77243486  0.63954189  0.34791385  1
  H+  H64  1  0.88169707  0.75561333  0.50487467  1
  H+  H65  1  0.61585323  0.47720002  0.50703764  1
  H+  H66  1  0.27377157  0.38814751  0.82589306  1
  H+  H67  1  0.11567747  0.23482070  0.66830523  1
  H+  H68  1  0.13326952  0.08528497  0.32842269  1
  H+  H69  1  0.22666297  0.36726083  0.17052798  1
  H+  H70  1  0.48849153  0.12335065  0.66444174  1
  H+  H71  1  0.53788815  0.14535760  0.14045561  1
  H+  H72  1  0.14359222  0.27539858  0.83810417  1
  H+  H73  1  0.22048089  0.88447369  0.98615020  1
  H+  H74  1  0.85170960  0.97970995  0.67417555  1
  H+  H75  1  0.23409174  0.11036489  0.83705087  1
  H+  H76  1  0.97805693  0.36455107  0.66066414  1
  H+  H77  1  0.71606636  0.86625210  0.66391670  1
  H+  H78  1  0.22222378  0.60975072  0.84164408  1
  H+  H79  1  0.89018184  0.53079339  0.32505641  1
  H+  H80  1  0.67373976  0.86628167  0.50411613  1
  H+  H81  1  0.37406108  0.23734852  0.83210469  1
  H+  H82  1  0.63234162  0.60785803  0.66470774  1
  H+  H83  1  0.39555602  0.13351447  0.83730413  1
  H+  H84  1  0.64138779  0.27558920  0.16637654  1
  H+  H85  1  0.86397772  0.13988842  1.00456322  1
  H+  H86  1  0.92082638  0.28119944  0.33095331  1
  H+  H87  1  0.36927136  0.26076477  0.98038676  1
  H+  H88  1  0.13800728  0.51480055  0.51637834  1
  H+  H89  1  0.86484368  0.76379914  0.65331486  1
  H+  H90  1  0.63479401  0.02242906  0.65742278  1
  H+  H91  1  0.90243279  0.82054357  0.56666353  1
  H+  H92  1  0.86040364  0.63541119  0.34731632  1
  H+  H93  1  0.46201524  0.33821377  0.99335827  1
  H+  H94  1  0.28236197  0.61793485  0.53237121  1
  H+  H95  1  0.86224999  0.38646677  0.82977968  1
  H+  H96  1  0.63807906  0.11285960  0.65813157  1
  H+  H97  1  0.10602381  0.96755938  0.81852666  1
  H+  H98  1  0.91391506  0.62707440  -0.00440443  1
  H+  H99  1  0.54753928  0.16770066  0.49943752  1
  H+  H100  1  0.25747765  0.11639317  0.99235648  1
  H+  H101  1  -0.01839820  0.60903730  0.50692542  1
  H+  H102  1  -0.02877317  0.60962873  0.83917163  1
  H+  H103  1  0.36179984  0.47301733  0.47671962  1
  H+  H104  1  0.91908269  0.84165392  0.93455764  1
  H+  H105  1  0.66384023  0.09197252  0.22429647  1
  H+  H106  1  0.02213038  0.12702901  0.00094990  1
  H+  H107  1  0.09798301  0.11318333  0.15949916  1
  H+  H108  1  0.64574255  0.63752862  0.18076929  1
  H+  H109  1  0.54374180  0.41525827  0.32889992  1
  H+  H110  1  0.13319014  0.87749316  0.51762499  1
  H+  H111  1  0.84746099  0.88006602  0.82672418  1
  H+  H112  1  0.22580650  0.60978917  0.67255355  1
  H+  H113  1  0.63061518  0.77422085  0.66458950  1
  H+  H114  1  0.62888836  0.02901731  0.31135006  1
  H+  H115  1  0.60673276  0.13649793  0.83377081  1
  H+  H116  1  0.49380331  0.13320777  0.83890116  1
  H+  H117  1  0.36614105  0.38054041  0.16054657  1
  H+  H118  1  0.17702903  0.82151423  0.11966823  1
  H+  H119  1  0.26222769  0.62112419  0.01431720  1
  H+  H120  1  0.72739199  0.61556472  0.85031552  1
  H+  H121  1  0.11115049  0.47318108  0.83121896  1
  H+  H122  1  0.64815499  0.62658252  0.33424640  1
  H+  H123  1  0.38450365  0.77381713  0.84011802  1
  H+  H124  1  0.63718571  0.53003260  0.86030085  1
  H+  H125  1  0.10552113  0.37974700  0.00795798  1
  H+  H126  1  0.72182420  0.86909232  0.98769426  1
  H+  H127  1  0.85792560  0.23300526  0.67123621  1
  H+  H128  1  0.02944919  0.39285687  0.16399267  1
  H+  H129  1  0.25217215  0.86222273  0.28680200  1
  H+  H130  1  0.33084052  0.66567191  0.77381362  1
  H+  H131  1  0.12739478  0.52586303  0.99450835  1
  H+  H132  1  0.22862347  0.83516454  0.47398394  1
  H+  H133  1  0.63724437  0.87753800  0.17674137  1
  H+  H134  1  0.25004568  0.86670636  0.68671850  1
  H+  H135  1  0.30027014  0.15856339  0.68011070  1
  H+  H136  1  0.48398888  0.37388793  0.83815859  1
  H+  H137  1  0.02420980  0.38614267  0.49132039  1
  H+  H138  1  -0.00562207  0.61235410  0.14951658  1
  H+  H139  1  0.64710335  -0.00745335  0.48432545  1
  H+  H140  1  0.52768403  0.13778838  0.35030867  1
  H+  H141  1  0.76629059  0.38214043  0.32362430  1
  H+  H142  1  0.98531647  0.89219223  0.98762579  1
  H+  H143  1  0.39064148  0.36868616  0.50251690  1
  H+  H144  1  0.37976175  0.25495290  0.67647191  1
  H+  H145  1  0.41652520  0.59214117  0.41765019  1
  H+  H146  1  0.02262437  0.38343663  0.83178360  1
  H+  H147  1  0.64790144  0.28227282  0.50225923  1
  H+  H148  1  0.11946667  0.19817914  0.32974050  1
  H+  H149  1  0.22097415  0.10328192  0.17327924  1
  H+  H150  1  0.62501525  0.23232061  0.67356843  1
  H+  H151  1  0.52024404  0.63326415  0.82979324  1
  H+  H152  1  0.28920147  0.90611941  0.16285463  1
  H+  H153  1  0.37289912  0.76148574  0.16294517  1
  H+  H154  1  0.57481056  0.89580158  0.48467945  1
  H+  H155  1  0.73248415  0.36439309  0.84356207  1
  H+  H156  1  0.97243210  0.60735785  0.66052693  1
  H+  H157  1  0.65844681  0.83867877  0.93025156  1
  H+  H158  1  0.86017947  0.63705537  0.67275000  1
  H+  H159  1  0.36089775  0.19007601  0.35320200  1
  H+  H160  1  0.86248480  0.47633021  0.82965441  1
  H+  H161  1  0.87109440  0.47758844  0.48716898  1
  H+  H162  1  0.36741818  0.74759332  0.52684231  1
  H+  H163  1  0.62610580  0.14355491  0.14818361  1
  H+  H164  1  0.09026932  0.42879569  0.43515675  1
  H+  H165  1  0.51893446  0.27824397  0.04220254  1
  H+  H166  1  0.36527659  0.14238275  0.13935198  1
  H+  H167  1  0.89563928  1.02246462  0.32390637  1
  H+  H168  1  0.90959498  0.32641601  0.90216308  1
  H+  H169  1  0.84509654  0.13126096  0.81878276  1
  H+  H170  1  0.14895363  0.55584065  0.32661041  1
  H+  H171  1  0.11575925  0.75237998  0.66724250  1
  H+  H172  1  0.27339389  0.38567475  0.49474183  1
  H+  H173  1  0.02700287  0.11557683  0.33222519  1
  H+  H174  1  0.61428303  0.37947965  0.66529640  1
  H+  H175  1  0.23549216  0.64738023  0.31772445  1
  H+  H176  1  0.63561030  0.74090800  0.34605919  1
  H+  H177  1  0.63670425  0.02864856  0.99395590  1
  H+  H178  1  0.77533332  0.14260558  0.15903867  1
  H+  H179  1  0.86834714  0.59991588  0.17121206  1
  H+  H180  1  0.52348957  0.63563624  0.67304680  1
  H+  H181  1  0.88082634  0.84099555  0.21224760  1
  H+  H182  1  0.59554076  0.61740730  -0.01201611  1
  H+  H183  1  0.08048382  0.40783226  0.73669452  1
  H+  H184  1  0.10841326  0.30445748  0.33185733  1
  H+  H185  1  0.07789847  0.70211862  0.14997115  1
  H+  H186  1  0.86843569  0.37461632  0.01116675  1
  H+  H187  1  0.86256703  0.89524340  -0.00142002  1
  H+  H188  1  0.89290790  0.27099103  0.50525202  1
  H+  H189  1  0.72577541  0.87752894  0.17079244  1
  H+  H190  1  0.48039444  0.37541211  0.65568571  1
  H+  H191  1  0.15352963  0.79770417  0.28713282  1
  H+  H192  1  0.35369088  0.10094931  0.36476941  1
  H+  H193  1  0.97375076  0.36149245  1.00003262  1
  H+  H194  1  0.86551151  0.38868548  0.67316008  1
  H+  H195  1  0.81825638  0.16754663  0.76207009  1
  H+  H196  1  0.85111435  0.67883576  0.10530212  1
  H+  H197  1  0.08011206  0.85496673  0.67361011  1
  H+  H198  1  0.46022724  0.61244488  0.99877385  1
  H+  H199  1  0.36561324  -0.02226161  0.52150018  1
  H+  H200  1  0.48007480  0.61296584  0.47288236  1
  H+  H201  1  0.22815739  0.91775623  0.54378915  1
  H+  H202  1  0.88927669  0.35823907  0.50165699  1
  H+  H203  1  0.96683729  0.85904870  0.84027191  1
  H+  H204  1  0.34576061  0.61157329  1.01172448  1
  H+  H205  1  0.62278735  0.63635801  1.01587007  1
  H+  H206  1  0.63632387  0.03133660  0.16515325  1
  H+  H207  1  0.13196080  0.93973541  -0.01550015  1
  H+  H208  1  0.38263370  0.86222055  0.83868862  1
  H+  H209  1  0.12395265  0.74080623  0.00748027  1
  H+  H210  1  0.87858601  0.11567237  0.66669533  1
  H+  H211  1  0.08453679  0.87912464  0.14743573  1
  H+  H212  1  0.86111320  0.47216401  0.15966586  1
  H+  H213  1  0.10166123  0.14110236  0.65959820  1
  H+  H214  1  0.08130218  0.41437842  0.06731189  1
  H+  H215  1  0.12102278  0.39319984  0.16402092  1
  H+  H216  1  0.42562776  0.84693976  0.50731934  1
  H+  H217  1  0.60146841  0.68019821  0.40709869  1
  H+  H218  1  0.35156214  0.22831985  0.50211430  1
  H+  H219  1  0.95261131  0.85105361  0.65221505  1
  H+  H220  1  0.51654317  0.89389455  0.34703502  1
  H+  H221  1  0.61419026  0.90054935  0.00453274  1
  H+  H222  1  0.61949402  0.72630109  0.50230953  1
  H+  H223  1  0.11305820  0.21194187  0.00270057  1
  H+  H224  1  0.39147684  0.37937301  0.65858234  1
  H+  H225  1  0.64150949  0.35313955  0.00179536  1
  H+  H226  1  -0.02385078  0.62407030  0.31911482  1
  H+  H227  1  0.61393066  0.13700253  -0.00485369  1
  H+  H228  1  0.88517923  1.02831272  -0.01349755  1
  H+  H229  1  0.36231634  0.63004811  0.16689526  1
  H+  H230  1  0.11713174  -0.04406908  0.35515335  1
  H+  H231  1  0.22178594  0.08552100  0.33304408  1
  H+  H232  1  0.86518489  0.13085237  0.49260948  1
  H+  H233  1  0.02807312  0.13894971  0.48537416  1
  H+  H234  1  0.61666442  0.38217905  0.50237557  1
  H+  H235  1  0.23780560  0.60527737  0.17197922  1
  H+  H236  1  0.67318874  0.54294810  1.01622176  1
  H+  H237  1  0.87944858  0.76994781  0.84428562  1
  H+  H238  1  0.13777392  0.27759305  0.50257761  1
  H+  H239  1  0.02699563  0.87164329  0.36128070  1
  H+  H240  1  0.39326711  0.87544851  -0.01236959  1
  H+  H241  1  0.62780222  0.38860936  0.83136678  1
  H+  H242  1  0.30947006  0.40514227  0.39848693  1
  H+  H243  1  0.13615202  0.36322381  0.66021902  1
  H+  H244  1  0.27341716  0.39116985  0.66932290  1
  H+  H245  1  0.86997020  0.38522117  0.16136206  1
  H+  H246  1  0.22865494  0.02209440  0.68931300  1
  H+  H247  1  0.11089383  0.71415933  0.53206019  1
  H+  H248  1  0.51859318  0.38235365  0.50373413  1
  H+  H249  1  0.42279067  0.33989537  0.89689015  1
  H+  H250  1  0.85887129  0.63284138  0.83008454  1
  H+  H251  1  0.96573929  0.11440837  0.66760603  1
  H+  H252  1  0.46692990  0.86494719  0.66443791  1
  H+  H253  1  0.63618579  0.49257741  0.33451285  1
  H+  H254  1  0.57987523  0.66115493  0.73409821  1
  H+  H255  1  0.87951900  0.89116591  0.35328553  1
  H+  H256  1  0.78115852  0.13865307  0.49190419  1
  H+  H257  1  0.92120868  0.33792108  0.59953817  1
  H+  H258  1  0.48841851  0.63270523  0.19286993  1
  H+  H259  1  0.99237061  0.13269495  0.83695017  1
  H+  H260  1  0.35714234  0.46590304  0.14176478  1
  H+  H261  1  0.21837524  0.35361473  0.99523935  1
  H+  H262  1  0.04435555  0.41000388  0.33556181  1
  H+  H263  1  0.36936903  0.62882869  0.50308264  1
  H+  H264  1  0.72624594  0.60278902  0.51291402  1
  H+  H265  1  0.60276088  0.38268159  0.16053668  1
  H+  H266  1  0.21767713  0.85976463  0.83934525  1
  H+  H267  1  0.74548595  0.86735315  0.33109548  1
  H+  H268  1  0.55434446  0.36791970  0.07699174  1
  H+  H269  1  0.71885969  0.86345637  0.83712034  1
  H+  H270  1  0.39840330  0.03014366  0.15111167  1
  H+  H271  1  0.92089818  0.07926820  0.26250822  1
  H+  H272  1  0.63864719  0.37055249  0.32254521  1
  H+  H273  1  0.77442346  0.37937345  1.01273303  1
  H+  H274  1  0.36338877  0.64006851  0.67920776  1
  H+  H275  1  0.64838932  0.12086774  0.50348534  1
  H+  H276  1  0.60949160  0.89116515  0.82593121  1
  H+  H277  1  -0.02502817  0.85483733  0.50736698  1
  H+  H278  1  0.60240006  0.88540311  0.67232213  1
  H+  H279  1  0.34294995  0.99558026  0.50282153  1
  H+  H280  1  0.88977601  0.74395054  0.01183962  1
  H+  H281  1  0.36474998  0.88580345  0.15584174  1
  H+  H282  1  -0.02808551  0.10477001  0.16648857  1
  H+  H283  1  0.72759279  0.36408799  0.17101470  1
  H+  H284  1  0.10827394  0.63157983  0.82975279  1
  H+  H285  1  0.29384512  0.80147089  0.47758754  1
  H+  H286  1  0.51739811  0.88829260  0.15793730  1
  H+  H287  1  0.13648643  0.50991554  0.17304826  1
  H+  H288  1  0.31981637  0.15633416  0.45042961  1
  H+  H289  1  0.59975447  0.17982437  0.43625009  1
  H+  H290  1  0.68191672  0.84042468  0.27400424  1
  H+  H291  1  0.83339709  0.41598727  0.73308911  1
  H+  H292  1  0.08582215  0.16723320  0.42679217  1
  H+  H293  1  0.91525791  0.58220627  0.89984766  1
  H+  H294  1  0.65309445  0.47011700  0.79081413  1
  H+  H295  1  0.14445444  0.60653326  0.52252801  1
  H+  H296  1  0.92323202  0.09793396  0.93203411  1
  H+  H297  1  0.09558475  0.71432305  0.37244945  1
  H+  H298  1  0.43279401  0.62068665  0.29503787  1
  H+  H299  1  0.35937959  0.72711643  0.68062674  1
  H+  H300  1  0.39772148  0.82952131  0.61007899  1
  H+  H301  1  0.16254919  0.06739171  0.88879531  1
  H+  H302  1  0.21250439  0.34650797  0.32974598  1
  H+  H303  1  0.42683404  0.84590692  0.93110800  1
  H+  H304  1  0.16056039  0.32618929  0.93619670  1
  H+  H305  1  0.41340645  0.57876012  0.90003065  1
  H+  H306  1  0.16867640  0.06847575  0.23618919  1
  H+  H307  1  0.59067740  0.17101952  0.05506277  1
  H+  H308  1  0.86544423  0.18093661  0.39905328  1
  H+  H309  1  0.82794715  0.66365140  0.77167707  1
  H+  H310  1  0.40107539  0.59689048  0.60199059  1
  H+  H311  1  0.82763177  0.92731777  0.05397128  1
  H+  H312  1  0.83021853  0.65800521  0.43981328  1
  H+  H313  1  0.57786798  0.92106108  0.09908260  1
  H+  H314  1  0.85438320  0.93904385  0.40351327  1
  H+  H315  1  0.66663714  0.57649244  0.57295401  1
  H+  H316  1  0.88898739  0.76831581  0.35013458  1
  H+  H317  1  0.16683191  0.57408483  0.61309508  1
  H+  H318  1  0.67280662  0.08496274  0.56215251  1
  H+  H319  1  0.45499762  0.13913272  0.57594803  1
  H+  H320  1  0.10746591  0.72068413  0.82811420  1
  H+  H321  1  0.57614221  0.39654755  0.72578878  1
  H+  H322  1  0.33261321  0.42337173  0.72905011  1
  H+  H323  1  0.61191769  0.63948666  0.83426730  1
  H+  H324  1  0.07313571  0.14029681  0.09711710  1
  H+  H325  1  0.35146612  0.18441759  0.77044833  1
  H+  H326  1  0.40324477  0.05209351  0.29707200  1
  H+  H327  1  0.83632641  0.17217477  0.10099149  1
  H+  H328  1  0.56640373  0.68994566  0.11334706  1
  H+  H329  1  0.88272880  0.27069318  -0.00060122  1
  H+  H330  1  0.38572164  0.11848084  -0.01489940  1
  H+  H331  1  0.59532108  0.17616812  0.73467755  1
  H+  H332  1  0.15074664  0.71051007  0.47164902  1
  H+  H333  1  0.42356206  0.09859581  0.90106481  1
  H+  H334  1  0.16289229  0.06475398  0.58174679  1
  H+  H335  1  0.16211416  0.58072015  0.90043862  1
  H+  H336  1  0.60019139  0.92979395  0.38649159  1
  H+  H337  1  0.62842201  0.77572757  0.83917324  1
  H+  H338  1  0.33144090  0.92331777  0.05656340  1
  H+  H339  1  0.66745086  0.82875548  0.57054445  1
  H+  H340  1  0.66479836  0.08410368  0.93195529  1
  H+  H341  1  0.67411701  0.33613676  0.59712957  1
  H+  H342  1  0.83798481  0.40938702  0.07753089  1
  H+  H343  1  0.15777069  0.84871437  0.92927049  1
  H+  H344  1  0.73267566  0.37496507  0.50033573  1
  H+  H345  1  0.37053290  0.67690176  0.34946771  1
  H+  H346  1  0.66105233  0.33035978  0.26449231  1
  H+  H347  1  0.16990320  0.82982979  0.19362234  1
  H+  H348  1  0.69879515  0.57309322  0.94854574  1
  H+  H349  1  0.32488586  0.64449851  0.10110203  1
  H+  H350  1  0.09410183  0.17058435  0.76331480  1
  H+  H351  1  0.31701168  0.15616678  0.05093724  1
  H+  H352  1  0.07440329  0.65478904  0.73692183  1
  H+  H353  1  0.36810257  0.85634558  0.33506861  1
  H+  H354  1  0.51922500  0.88894286  0.82533900  1
  H+  H355  1  0.96072354  0.19257521  0.86032684  1
  H+  H356  1  0.62330505  0.02210741  0.83800719  1
  H+  H357  1  0.38276855  0.52760530  0.65470528  1
  H+  H358  1  0.41780869  0.34240099  0.56528368  1
  H+  H359  1  0.17217864  0.58601567  0.23286593  1
  H+  H360  1  0.14019210  0.36705600  0.50547829  1
  H+  H361  1  0.92870573  0.82589457  0.29137910  1
  H+  H362  1  0.92013331  0.57742699  0.56531220  1
  H+  H363  1  0.52442762  0.90085834  0.00337932  1
  H+  H364  1  0.43389954  0.10270925  0.20121517  1
  H+  H365  1  0.07732370  0.90781459  0.44432914  1
  H+  H366  1  0.43164643  0.38642009  0.25722345  1
  H+  H367  1  0.92816669  0.33512878  0.23414168  1
  H+  H368  1  0.84064834  0.41881850  0.42789451  1
  H+  H369  1  0.38319221  0.51264752  -0.00609852  1
  H+  H370  1  0.16484253  0.33301012  0.22934336  1
  H+  H371  1  0.32038184  0.91016751  0.77162737  1
  H+  H372  1  0.67590361  0.33862960  0.90504615  1
  H+  H373  1  0.16619028  0.33572232  0.59870258  1
  H+  H374  1  0.68161773  0.60646311  0.27169511  1
  H+  H375  1  0.30333742  0.85328504  0.38517231  1
  H+  H376  1  0.90137209  0.57365847  0.23091112  1
  H+  H377  1  0.13822789  0.36192403  0.84118175  1
  H+  H378  1  0.32660589  0.40139628  0.06173918  1
  H+  H379  1  0.15023849  0.82271539  0.61181127  1
  H+  H380  1  0.63715377  0.12063371  0.31619089  1
  H+  H381  1  0.49792415  0.73456300  0.04517579  1
  H+  H382  1  0.45131909  0.76751319  0.30436958  1
  H+  H383  1  0.06141670  0.90028516  0.76342353  1
  O2-  O384  1  0.06463817  0.13786456  0.14160692  1
  O2-  O385  1  0.08383513  0.18333035  0.46962071  1
  O2-  O386  1  0.09502808  0.17045065  0.80869540  1
  O2-  O387  1  0.08981988  0.42537586  0.14856355  1
  O2-  O388  1  0.08659309  0.41992524  0.47971468  1
  O2-  O389  1  0.08260409  0.41200040  0.81650031  1
  O2-  O390  1  0.05453041  0.64296742  0.13507209  1
  O2-  O391  1  0.10218888  0.67352540  0.49956726  1
  O2-  O392  1  0.07663651  0.65991700  0.81324438  1
  O2-  O393  1  0.05183920  0.90987483  0.15013648  1
  O2-  O394  1  0.06889146  0.90583500  0.49160053  1
  O2-  O395  1  0.07070072  0.90570634  0.80823126  1
  O2-  O396  1  0.32820677  0.16692696  0.12824065  1
  O2-  O397  1  0.32093662  0.16525138  0.49493579  1
  O2-  O398  1  0.34686458  0.17660747  0.81615974  1
  O2-  O399  1  0.32759661  0.40378392  0.13728966  1
  O2-  O400  1  0.33147381  0.40892854  0.47538366  1
  O2-  O401  1  0.33303400  0.42004954  0.80799722  1
  O2-  O402  1  0.32738709  0.65278383  0.14841549  1
  O2-  O403  1  0.34627204  0.65107445  0.53517353  1
  O2-  O404  1  0.32951472  0.66638300  0.81927454  1
  O2-  O405  1  0.34305656  0.92483260  0.14109926  1
  O2-  O406  1  0.24898610  0.80164695  0.45047357  1
  O2-  O407  1  0.32469448  0.91338694  0.81820018  1
  O2-  O408  1  0.59961119  0.17738411  0.12976356  1
  O2-  O409  1  0.60618584  0.18431880  0.48145730  1
  O2-  O410  1  0.57854960  0.17104309  0.82003223  1
  O2-  O411  1  0.56750715  0.40180758  0.13833065  1
  O2-  O412  1  0.58316246  0.41399451  0.49232946  1
  O2-  O413  1  0.60380165  0.42322566  0.81146466  1
  O2-  O414  1  0.57782797  0.68509086  0.15693665  1
  O2-  O415  1  0.58704816  0.66627548  0.48361584  1
  O2-  O416  1  0.58053700  0.66461682  0.81369982  1
  O2-  O417  1  0.57800764  0.92086349  0.14481973  1
  O2-  O418  1  0.62940022  0.93488817  0.46557370  1
  O2-  O419  1  0.58016591  0.92265626  0.81055748  1
  O2-  O420  1  0.83731467  0.17350594  0.14627308  1
  O2-  O421  1  0.84311723  0.16868481  0.47943726  1
  O2-  O422  1  0.81505479  0.16275704  0.80810449  1
  O2-  O423  1  0.83712689  0.41139994  0.14256691  1
  O2-  O424  1  0.83760840  0.41675824  0.47226629  1
  O2-  O425  1  0.83075867  0.41521108  0.81435259  1
  O2-  O426  1  0.83806341  0.66722661  0.14984353  1
  O2-  O427  1  0.83265496  0.65964308  0.48622129  1
  O2-  O428  1  0.82599727  0.66174486  0.81690242  1
  O2-  O429  1  0.82693978  0.92981399  0.13282283  1
  O2-  O430  1  0.87321735  0.97759383  0.48517260  1
  O2-  O431  1  0.81477046  0.90742982  0.81238470  1
  O2-  O432  1  0.16309855  0.07145534  0.19104720  1
  O2-  O433  1  0.15909789  0.06235896  0.53769306  1
  O2-  O434  1  0.17107108  0.07615087  0.84389424  1
  O2-  O435  1  0.16878099  0.35109847  0.18651201  1
  O2-  O436  1  0.17004702  0.33688562  0.52117425  1
  O2-  O437  1  0.17146106  0.33432456  0.85583715  1
  O2-  O438  1  0.17466661  0.57503701  0.18792002  1
  O2-  O439  1  0.17073919  0.57247824  0.53653977  1
  O2-  O440  1  0.16063108  0.57801144  0.85476323  1
  O2-  O441  1  0.14112858  0.82160349  0.15278661  1
  O2-  O442  1  0.17705718  0.86252566  0.53513899  1
  O2-  O443  1  0.15610386  0.82659709  0.85212542  1
  O2-  O444  1  0.42720717  0.09433016  0.15742094  1
  O2-  O445  1  0.46996565  0.16529869  0.53408298  1
  O2-  O446  1  0.42680189  0.10168595  0.85358156  1
  O2-  O447  1  0.41342477  0.34942176  0.19022322  1
  O2-  O448  1  0.42171974  0.33973240  0.51990287  1
  O2-  O449  1  0.42364868  0.34109156  0.85096046  1
  O2-  O450  1  0.42920552  0.59952000  0.21279533  1
  O2-  O451  1  0.41734038  0.58287492  0.46178415  1
  O2-  O452  1  0.41609536  0.58376759  0.85461380  1
  O2-  O453  1  0.39958613  0.82077427  0.18056464  1
  O2-  O454  1  0.37140082  0.80652525  0.52643486  1
  O2-  O455  1  0.41741456  0.83593768  0.85178585  1
  O2-  O456  1  0.66845606  0.09286941  0.17746940  1
  O2-  O457  1  0.67739289  0.08836401  0.51680731  1
  O2-  O458  1  0.65267457  0.08337520  0.85346045  1
  O2-  O459  1  0.66736886  0.33369391  0.18552749  1
  O2-  O460  1  0.67342920  0.34407005  0.51764886  1
  O2-  O461  1  0.67146210  0.33506573  0.85966477  1
  O2-  O462  1  0.67618466  0.61004209  0.19868884  1
  O2-  O463  1  0.66533071  0.57157410  0.52730983  1
  O2-  O464  1  0.67079169  0.59062459  0.87230965  1
  O2-  O465  1  0.66911660  0.84878572  0.19155475  1
  O2-  O466  1  0.67692960  0.82100665  0.52693072  1
  O2-  O467  1  0.65743664  0.83623259  0.85342007  1
  O2-  O468  1  0.91080014  0.07844124  0.18352137  1
  O2-  O469  1  0.91024886  0.05576083  0.50231784  1
  O2-  O470  1  0.94090157  0.13162115  0.85550732  1
  O2-  O471  1  0.92300212  0.33698823  0.18895225  1
  O2-  O472  1  0.92229146  0.33263384  0.51900864  1
  O2-  O473  1  0.91117913  0.32798414  0.85705744  1
  O2-  O474  1  0.89335542  0.56375303  0.18624341  1
  O2-  O475  1  0.92077848  0.57791472  0.51938167  1
  O2-  O476  1  0.91040926  0.57938029  0.85395049  1
  O2-  O477  1  0.91981690  0.81834843  0.21414517  1
  O2-  O478  1  0.91036274  0.81855339  0.51969625  1
  O2-  O479  1  0.90824135  0.83070724  0.85832221  1
  O2-  O480  1  0.16436966  0.05466139  0.31402613  1
  O2-  O481  1  0.19717576  0.05271454  0.68259891  1
  O2-  O482  1  0.15143606  0.05813883  0.96773741  1
  O2-  O483  1  0.15483630  0.30511959  0.30874198  1
  O2-  O484  1  0.16794515  0.33456583  0.64437894  1
  O2-  O485  1  0.15711551  0.32258819  0.98146290  1
  O2-  O486  1  0.17435453  0.61183385  0.30433811  1
  O2-  O487  1  0.16453760  0.57672556  0.65851731  1
  O2-  O488  1  0.16467066  0.58382252  0.97754475  1
  O2-  O489  1  0.19896773  0.84648151  0.26419074  1
  O2-  O490  1  0.14089451  0.81525721  0.65633657  1
  O2-  O491  1  0.16044264  0.86438722  0.97310800  1
  O2-  O492  1  0.40997157  0.05355057  0.34102495  1
  O2-  O493  1  0.43116618  0.10429798  0.64645225  1
  O2-  O494  1  0.42046247  0.09291428  0.96879183  1
  O2-  O495  1  0.43503658  0.39695269  0.30371548  1
  O2-  O496  1  0.41923911  0.34688768  0.64202357  1
  O2-  O497  1  0.40757785  0.32294639  0.97103535  1
  O2-  O498  1  0.44270117  0.64436928  0.33673724  1
  O2-  O499  1  0.41481386  0.59022894  0.64408306  1
  O2-  O500  1  0.40661634  0.57207256  0.97724322  1
  O2-  O501  1  0.40447413  0.78150154  0.30492734  1
  O2-  O502  1  0.40391979  0.83087848  0.65474511  1
  O2-  O503  1  0.43135086  0.85293495  0.97607068  1
  O2-  O504  1  0.65934183  0.08801167  0.29402657  1
  O2-  O505  1  0.66721033  0.08249735  0.64123823  1
  O2-  O506  1  0.66865131  0.08928924  0.97726090  1
  O2-  O507  1  0.66446509  0.33341995  0.30986748  1
  O2-  O508  1  0.67103887  0.33495373  0.64249899  1
  O2-  O509  1  0.68203803  0.33589764  0.98404158  1
  O2-  O510  1  0.68185422  0.60054100  0.31764820  1
  O2-  O511  1  0.66450474  0.57894647  0.64956119  1
  O2-  O512  1  0.71883467  0.55880389  0.98653289  1
  O2-  O513  1  0.68489121  0.83197563  0.31804301  1
  O2-  O514  1  0.65490033  0.83370608  0.64894381  1
  O2-  O515  1  0.66007238  0.84268284  0.97596177  1
  O2-  O516  1  0.92842856  0.08238729  0.30757804  1
  O2-  O517  1  0.90541279  0.08122188  0.65482072  1
  O2-  O518  1  0.91881582  0.09150454  0.97708884  1
  O2-  O519  1  0.94583874  0.34331196  0.31324406  1
  O2-  O520  1  0.91797438  0.33854232  0.64482660  1
  O2-  O521  1  0.91154159  0.33315749  0.98602615  1
  O2-  O522  1  0.91344702  0.59022046  0.30995708  1
  O2-  O523  1  0.91353069  0.58074222  0.64224431  1
  O2-  O524  1  0.93018174  0.58860490  0.97404450  1
  O2-  O525  1  0.92505708  0.82955624  0.33649989  1
  O2-  O526  1  0.89353194  0.82244782  0.63420897  1
  O2-  O527  1  0.92437805  0.84941180  0.97998155  1
  O2-  O528  1  0.08336991  0.14961364  0.01332531  1
  O2-  O529  1  0.08732612  0.14023016  0.34847993  1
  O2-  O530  1  0.08505040  0.17428685  0.68539349  1
  O2-  O531  1  0.07463571  0.40987102  0.02229401  1
  O2-  O532  1  0.10352639  0.45137120  0.35288776  1
  O2-  O533  1  0.08138496  0.40932522  0.69127759  1
  O2-  O534  1  0.13803372  0.70205941  0.02942232  1
  O2-  O535  1  0.08573659  0.69464148  0.33041417  1
  O2-  O536  1  0.07414164  0.65392385  0.69107368  1
  O2-  O537  1  0.10193171  0.97291406  -0.00361294  1
  O2-  O538  1  0.08694762  0.90054183  0.37764993  1
  O2-  O539  1  0.04959462  0.88786242  0.68434495  1
  O2-  O540  1  0.31846696  0.15349282  0.00556168  1
  O2-  O541  1  0.32412402  0.13479299  0.37238857  1
  O2-  O542  1  0.35779182  0.19705145  0.69661675  1
  O2-  O543  1  0.32633183  0.40673820  0.01613209  1
  O2-  O544  1  0.30086412  0.41253847  0.35453399  1
  O2-  O545  1  0.33452358  0.42461530  0.68352654  1
  O2-  O546  1  0.31905400  0.64032681  0.03403713  1
  O2-  O547  1  0.34030596  0.71093466  0.34370488  1
  O2-  O548  1  0.33045893  0.66653103  0.69593210  1
  O2-  O549  1  0.32787231  0.92330880  0.01180363  1
  O2-  O550  1  0.33518869  0.88393139  0.34747930  1
  O2-  O551  1  0.30975985  0.90112412  0.70136041  1
  O2-  O552  1  0.58480115  0.16983364  0.00933744  1
  O2-  O553  1  0.58953210  0.17345574  0.35865808  1
  O2-  O554  1  0.59647332  0.17249148  0.68999232  1
  O2-  O555  1  0.54535918  0.33936382  0.03318951  1
  O2-  O556  1  0.60120933  0.42995827  0.34363307  1
  O2-  O557  1  0.58170674  0.40764203  0.68172227  1
  O2-  O558  1  0.53625463  0.71149161  0.03929133  1
  O2-  O559  1  0.59799418  0.67940443  0.36170683  1
  O2-  O560  1  0.58319859  0.66211883  0.68864298  1
  O2-  O561  1  0.58477455  0.93034910  0.02209331  1
  O2-  O562  1  0.57868340  0.92860795  0.34478846  1
  O2-  O563  1  0.57371466  0.91834111  0.68577998  1
  O2-  O564  1  0.83378355  0.17031198  0.02026678  1
  O2-  O565  1  0.87957865  0.19226326  0.35530062  1
  O2-  O566  1  0.82692968  0.17364989  0.68837360  1
  O2-  O567  1  0.83648788  0.40701433  0.02887359  1
  O2-  O568  1  0.83212847  0.41261384  0.32507045  1
  O2-  O569  1  0.83295706  0.41717772  0.68775365  1
  O2-  O570  1  0.86981879  0.68604004  0.02952474  1
  O2-  O571  1  0.83162725  0.66377602  0.36780855  1
  O2-  O572  1  0.83020567  0.66684806  0.68895731  1
  O2-  O573  1  0.82941510  0.92489198  0.00876403  1
  O2-  O574  1  0.85070282  0.92593237  0.35967942  1
  O2-  O575  1  0.81841422  0.91712806  0.68682125  1
