# generated using pymatgen
data_H2O
_symmetry_space_group_name_H-M   'P 1'
_cell_length_a   17.98923700
_cell_length_b   17.98289117
_cell_length_c   21.99251560
_cell_angle_alpha   90.01822988
_cell_angle_beta   89.99343556
_cell_angle_gamma   120.00376191
_symmetry_Int_Tables_number   1
_chemical_formula_structural   H2O
_chemical_formula_sum   'H384 O192'
_cell_volume   6161.14334512
_cell_formula_units_Z   192
loop_
 _symmetry_equiv_pos_site_id
 _symmetry_equiv_pos_as_xyz
  1  'x, y, z'
loop_
 _atom_type_symbol
 _atom_type_oxidation_number
  H+  1.0
  O2-  -2.0
loop_
 _atom_site_type_symbol
 _atom_site_label
 _atom_site_symmetry_multiplicity
 _atom_site_fract_x
 _atom_site_fract_y
 _atom_site_fract_z
 _atom_site_occupancy
  H+  H0  1  0.86161531  0.98125551  0.49894016  1
  H+  H1  1  0.13390618  0.60677194  0.50160986  1
  H+  H2  1  0.38146201  0.86988272  0.15782935  1
  H+  H3  1  0.58681271  0.66833669  0.40375545  1
  H+  H4  1  0.32014074  0.69353621  -0.00830408  1
  H+  H5  1  0.85296379  0.98294493  0.34272208  1
  H+  H6  1  0.05462187  0.37514127  0.80377624  1
  H+  H7  1  0.34591152  0.21874341  0.00586593  1
  H+  H8  1  0.88990066  0.51392980  0.99216331  1
  H+  H9  1  0.72846167  0.86615670  0.51014522  1
  H+  H10  1  0.00795639  0.36940998  0.00856007  1
  H+  H11  1  0.72827599  0.87735741  0.32971191  1
  H+  H12  1  0.38537942  0.91102354  -0.00243433  1
  H+  H13  1  0.52699966  0.13272305  0.49046828  1
  H+  H14  1  0.10137872  0.97198218  0.00299522  1
  H+  H15  1  0.51901406  0.36389567  0.01477946  1
  H+  H16  1  0.13587220  0.76868318  0.49773598  1
  H+  H17  1  0.37302093  -0.00679801  0.99056938  1
  H+  H18  1  0.13409733  0.03210907  0.83445745  1
  H+  H19  1  0.53189503  0.38869751  0.50078017  1
  H+  H20  1  0.52537226  0.89318072  0.34619191  1
  H+  H21  1  0.61680617  0.22277582  0.48910612  1
  H+  H22  1  0.86743112  0.23131913  0.17479138  1
  H+  H23  1  0.51232337  0.89707341  1.00187311  1
  H+  H24  1  0.36758567  0.63388123  0.16707736  1
  H+  H25  1  0.50744618  0.87500790  0.15949592  1
  H+  H26  1  0.89188947  0.63967463  0.02399681  1
  H+  H27  1  0.68032597  0.33252731  0.55906253  1
  H+  H28  1  0.63394137  0.24244291  0.00821630  1
  H+  H29  1  0.84463968  0.37955068  0.83051400  1
  H+  H30  1  0.20127251  0.10968613  -0.00458890  1
  H+  H31  1  0.39370148  0.22840923  0.66671362  1
  H+  H32  1  0.63401423  0.02329106  0.15929368  1
  H+  H33  1  0.61786833  0.88801021  0.49446090  1
  H+  H34  1  0.12330990  0.72513975  0.33390486  1
  H+  H35  1  0.61393010  0.89177907  0.82839218  1
  H+  H36  1  0.63709583  0.37440188  0.16718985  1
  H+  H37  1  0.12223437  0.72227928  0.67038956  1
  H+  H38  1  0.10457551  0.55770686  0.19685772  1
  H+  H39  1  0.48334860  0.86496952  0.50197667  1
  H+  H40  1  0.88084666  0.78493925  0.17708025  1
  H+  H41  1  0.90613467  0.84197820  0.26750421  1
  H+  H42  1  0.21456918  0.61908596  0.16373972  1
  H+  H43  1  0.35966432  0.13186671  0.15909038  1
  H+  H44  1  0.85233830  0.65114334  0.18351082  1
  H+  H45  1  0.88765097  0.30551761  0.94428151  1
  H+  H46  1  0.24357276  0.60235225  1.00260721  1
  H+  H47  1  0.57590709  0.13929736  0.00405449  1
  H+  H48  1  0.58265091  0.08384272  0.78610807  1
  H+  H49  1  0.12508468  0.38473892  0.65846787  1
  H+  H50  1  0.88773039  0.61448869  0.50031238  1
  H+  H51  1  0.64860271  0.27932986  0.65136899  1
  H+  H52  1  0.16841464  0.68287642  0.12757002  1
  H+  H53  1  0.11372471  0.22398049  0.15365932  1
  H+  H54  1  0.48644922  0.61306649  0.64775982  1
  H+  H55  1  0.67542178  0.54147001  0.85420350  1
  H+  H56  1  0.48743331  0.87191045  0.83994686  1
  H+  H57  1  0.63896392  0.11424360  0.16446098  1
  H+  H58  1  0.37656876  0.36589211  0.49812340  1
  H+  H59  1  0.61571141  0.63952308  0.49665712  1
  H+  H60  1  0.42144713  0.07787681  0.23033983  1
  H+  H61  1  0.48631514  0.09717657  0.32231855  1
  H+  H62  1  0.22157462  0.11013519  0.16734801  1
  H+  H63  1  0.39279331  0.26334097  0.83906064  1
  H+  H64  1  0.61762883  0.47958188  0.50067818  1
  H+  H65  1  0.28672847  0.13511309  0.48573801  1
  H+  H66  1  0.06961370  0.85983367  0.35282918  1
  H+  H67  1  0.78082868  0.14589554  0.35111816  1
  H+  H68  1  0.02196483  0.63671355  0.49271486  1
  H+  H69  1  0.36150193  0.73484260  0.82152639  1
  H+  H70  1  0.33434545  0.12685001  0.99840880  1
  H+  H71  1  0.98841763  0.38299107  0.87457132  1
  H+  H72  1  0.12547086  0.47605683  0.66036574  1
  H+  H73  1  0.52424066  0.63084680  0.17593753  1
  H+  H74  1  0.01765531  0.88958685  0.15824287  1
  H+  H75  1  0.28299663  0.11408594  0.33031031  1
  H+  H76  1  0.65140628  0.03105664  0.33626913  1
  H+  H77  1  0.11404612  0.48885441  -0.00419378  1
  H+  H78  1  0.63820895  0.27782354  0.17201458  1
  H+  H79  1  0.78619602  0.38814236  0.48510774  1
  H+  H80  1  0.67553772  0.04449486  1.02434835  1
  H+  H81  1  0.05624794  0.51982509  0.86029220  1
  H+  H82  1  0.45579408  0.07818517  0.81671588  1
  H+  H83  1  0.11325858  0.64496964  0.82466268  1
  H+  H84  1  0.84780490  0.88979552  0.33849931  1
  H+  H85  1  0.56655027  0.15448812  0.71007731  1
  H+  H86  1  0.59714103  0.23690940  0.84775369  1
  H+  H87  1  0.10982938  0.88096975  0.49540101  1
  H+  H88  1  0.18173381  0.31722129  1.01417654  1
  H+  H89  1  0.88082731  0.87359740  0.17599016  1
  H+  H90  1  0.39295924  0.86339489  0.50026300  1
  H+  H91  1  0.87763255  0.10478887  0.18342073  1
  H+  H92  1  0.52195796  0.66260113  1.01793726  1
  H+  H93  1  0.72986219  0.35469832  0.33293394  1
  H+  H94  1  0.89992677  0.36361725  0.32788783  1
  H+  H95  1  0.39367169  1.03164376  0.16539747  1
  H+  H96  1  0.10221613  0.60317988  0.00095560  1
  H+  H97  1  0.11661861  0.14177843  0.67216936  1
  H+  H98  1  0.09493465  0.23324016  0.99899709  1
  H+  H99  1  0.29557739  0.88333194  0.88871694  1
  H+  H100  1  0.64196153  0.35588293  0.33540937  1
  H+  H101  1  0.73959799  0.87975411  1.00100609  1
  H+  H102  1  0.87431120  0.47523905  0.16203460  1
  H+  H103  1  0.13107823  1.02167878  0.16545613  1
  H+  H104  1  0.39758839  0.10943055  0.65377038  1
  H+  H105  1  0.29258153  0.38726768  0.84089804  1
  H+  H106  1  0.42318171  0.32277728  0.22957360  1
  H+  H107  1  0.69227018  0.13811144  1.03576946  1
  H+  H108  1  0.41082223  0.67380798  0.16836087  1
  H+  H109  1  0.39253052  0.95809536  0.32835437  1
  H+  H110  1  0.07425770  0.91341531  0.09658101  1
  H+  H111  1  0.46205070  0.14630093  0.97245269  1
  H+  H112  1  0.71939616  0.85971644  0.18147068  1
  H+  H113  1  0.37757316  0.60450598  -0.00429795  1
  H+  H114  1  0.39606017  0.35428087  0.84468114  1
  H+  H115  1  0.52803515  0.64296775  0.49340011  1
  H+  H116  1  0.52402587  0.37774340  0.16424055  1
  H+  H117  1  0.74225011  0.36520496  0.65309822  1
  H+  H118  1  0.87826018  0.39350920  0.66408812  1
  H+  H119  1  0.86878364  0.15391197  0.50682881  1
  H+  H120  1  -0.02640352  0.39749305  0.84727591  1
  H+  H121  1  0.03511806  0.06818324  0.45804458  1
  H+  H122  1  0.74133034  0.40914338  0.84560956  1
  H+  H123  1  0.89337211  0.62292390  0.84547460  1
  H+  H124  1  0.64700974  0.36114877  0.50215183  1
  H+  H125  1  0.77007927  0.63265163  0.33432401  1
  H+  H126  1  -0.01286499  0.10980196  0.83589572  1
  H+  H127  1  0.73072831  0.11531328  0.50428648  1
  H+  H128  1  0.88044398  0.13721189  0.67738932  1
  H+  H129  1  0.46985859  0.62326501  0.33262909  1
  H+  H130  1  0.68578773  0.10795497  0.72786119  1
  H+  H131  1  0.87272443  0.23324038  0.34492073  1
  H+  H132  1  0.34489079  0.90927949  0.42730659  1
  H+  H133  1  0.42544431  0.81344414  1.01402618  1
  H+  H134  1  0.86959471  0.61072648  0.65863703  1
  H+  H135  1  0.98002943  0.61921436  0.83776611  1
  H+  H136  1  0.79911789  0.14901701  0.68080299  1
  H+  H137  1  0.17088879  0.82492223  0.59074854  1
  H+  H138  1  0.81404387  0.14296696  1.02865148  1
  H+  H139  1  0.86932869  0.88312449  0.01169251  1
  H+  H140  1  0.73492219  0.37199763  0.16958918  1
  H+  H141  1  0.52564358  0.15040188  0.16692205  1
  H+  H142  1  0.88127609  0.76790104  0.66190910  1
  H+  H143  1  0.15286297  0.11655933  0.50487449  1
  H+  H144  1  0.33209045  0.43338544  0.39171124  1
  H+  H145  1  0.73561972  0.66873216  -0.03167341  1
  H+  H146  1  0.33200337  0.66687309  0.72517710  1
  H+  H147  1  0.07808685  0.89514617  0.82275287  1
  H+  H148  1  0.26043297  0.85009372  0.31028239  1
  H+  H149  1  0.63401069  0.60991122  0.32979389  1
  H+  H150  1  0.39735907  0.50398947  0.18572640  1
  H+  H151  1  0.86828853  0.88330770  0.67284009  1
  H+  H152  1  1.01272553  0.61454940  0.99897230  1
  H+  H153  1  0.87090472  0.47949366  0.48713517  1
  H+  H154  1  0.62867534  0.62045257  0.65749865  1
  H+  H155  1  0.63060306  0.51952191  0.17371388  1
  H+  H156  1  0.61429905  0.72630671  0.34422673  1
  H+  H157  1  0.36805887  0.66258035  0.33683941  1
  H+  H158  1  0.87174270  0.48003080  0.82504067  1
  H+  H159  1  0.12405376  0.63433863  0.67285153  1
  H+  H160  1  0.89287719  0.09250513  0.83669899  1
  H+  H161  1  0.26645545  0.40392931  0.33598930  1
  H+  H162  1  0.91153990  0.58574495  0.56224661  1
  H+  H163  1  0.22596371  0.85852068  0.49515977  1
  H+  H164  1  0.48256427  0.34604116  0.32077572  1
  H+  H165  1  0.35488207  0.77288362  0.16220663  1
  H+  H166  1  0.13116115  0.34685818  0.16919536  1
  H+  H167  1  0.15375928  1.03015317  0.50922465  1
  H+  H168  1  0.62769855  0.22211357  0.85771071  1
  H+  H169  1  0.34730574  0.64214381  0.82419455  1
  H+  H170  1  0.02667869  0.23622994  0.39514126  1
  H+  H171  1  0.63486561  0.90785764  0.01581888  1
  H+  H172  1  0.63987900  0.04223343  0.67687643  1
  H+  H173  1  0.10950247  0.45999357  0.33687704  1
  H+  H174  1  0.64515540  0.53673298  0.65835803  1
  H+  H175  1  0.61438984  0.22137095  0.33800094  1
  H+  H176  1  0.37600647  0.79432952  0.33641441  1
  H+  H177  1  0.27425095  0.65053387  0.33736900  1
  H+  H178  1  0.22093917  0.34583565  0.16748420  1
  H+  H179  1  0.86697860  0.38296988  0.16946590  1
  H+  H180  1  0.63975039  0.10828107  0.49671539  1
  H+  H181  1  0.27615325  0.90325570  0.14369443  1
  H+  H182  1  0.39173287  0.08431595  0.32344700  1
  H+  H183  1  0.57572291  0.69226303  0.07995587  1
  H+  H184  1  0.38682172  0.48749039  1.00416041  1
  H+  H185  1  0.71747648  0.61083777  0.17453269  1
  H+  H186  1  0.13901082  0.54800741  0.93388350  1
  H+  H187  1  0.51799588  0.38168335  0.82306928  1
  H+  H188  1  0.34618112  0.42171272  0.77978129  1
  H+  H189  1  0.36667958  0.97216271  0.48501719  1
  H+  H190  1  0.50188681  0.36702922  0.65338222  1
  H+  H191  1  0.37304243  0.85097023  0.64953640  1
  H+  H192  1  0.12893276  0.50895678  0.83257111  1
  H+  H193  1  0.63828189  0.39666372  0.66389080  1
  H+  H194  1  0.95628064  0.86617602  0.33126211  1
  H+  H195  1  0.22342416  0.60880482  0.49986947  1
  H+  H196  1  0.27455200  0.13793670  0.82398868  1
  H+  H197  1  0.35852311  0.12905258  0.82061063  1
  H+  H198  1  0.13058837  0.74601787  0.13660143  1
  H+  H199  1  0.93700532  0.13376462  0.02565746  1
  H+  H200  1  0.40352931  0.52770628  0.84887290  1
  H+  H201  1  0.91028158  0.07873391  0.57563530  1
  H+  H202  1  0.22664865  0.86083816  0.65168023  1
  H+  H203  1  0.36385756  0.72657093  0.49035821  1
  H+  H204  1  0.73743621  0.37119195  0.99916952  1
  H+  H205  1  0.64143101  0.78599583  0.85351497  1
  H+  H206  1  0.36497952  0.49346051  0.67754079  1
  H+  H207  1  0.36644274  0.97662944  0.66570701  1
  H+  H208  1  0.11157167  0.77123185  0.83460834  1
  H+  H209  1  0.23092396  0.60722738  0.65154118  1
  H+  H210  1  0.11477354  0.46200167  0.17089500  1
  H+  H211  1  0.13717197  1.01333825  0.32293574  1
  H+  H212  1  0.37696045  0.48658406  0.48652260  1
  H+  H213  1  0.84050149  0.23600357  0.84716018  1
  H+  H214  1  0.62918237  0.87109990  0.33018297  1
  H+  H215  1  0.22829020  0.87512332  -0.01706079  1
  H+  H216  1  0.49804363  0.90017957  0.67432268  1
  H+  H217  1  0.48792950  0.61870677  0.84820742  1
  H+  H218  1  0.72325764  0.68149468  0.99748049  1
  H+  H219  1  0.88612677  0.86406856  0.50575678  1
  H+  H220  1  0.82962055  0.67765038  0.74302087  1
  H+  H221  1  0.39268458  0.10691985  0.49893181  1
  H+  H222  1  0.39091701  0.61876756  0.49895798  1
  H+  H223  1  0.59773025  0.87708190  0.16961627  1
  H+  H224  1  -0.11655161  0.80713848  0.83479776  1
  H+  H225  1  0.90909976  -0.03579283  0.82826775  1
  H+  H226  1  0.10077462  0.24964510  0.35131629  1
  H+  H227  1  0.12517817  0.36288918  0.32480462  1
  H+  H228  1  0.36173359  0.37229404  0.15792246  1
  H+  H229  1  -0.01777003  0.10885978  0.66363407  1
  H+  H230  1  0.67672487  0.12619285  0.83839862  1
  H+  H231  1  0.63730318  0.64621758  0.84159886  1
  H+  H232  1  0.97627806  0.36043411  0.17963661  1
  H+  H233  1  0.39488405  0.61363609  0.65070457  1
  H+  H234  1  0.28470311  0.39813681  0.48623597  1
  H+  H235  1  0.65181943  0.40759280  0.84785027  1
  H+  H236  1  0.18977881  0.86410525  0.83114893  1
  H+  H237  1  0.40084447  0.36105548  0.99289636  1
  H+  H238  1  0.86499329  0.37879036  1.01299679  1
  H+  H239  1  0.14423229  0.27410830  0.65489701  1
  H+  H240  1  0.30649742  0.39986395  -0.01206251  1
  H+  H241  1  0.11095622  0.45940022  0.48129198  1
  H+  H242  1  0.39042559  0.26794901  0.16789110  1
  H+  H243  1  0.61565948  0.64366478  0.16609353  1
  H+  H244  1  0.64326193  0.79827526  1.00554613  1
  H+  H245  1  0.84778756  0.97300259  0.16965807  1
  H+  H246  1  0.78023479  0.88197082  0.68328150  1
  H+  H247  1  0.90904805  0.30058202  0.54501222  1
  H+  H248  1  0.61544653  0.98209694  0.81560851  1
  H+  H249  1  0.92889374  0.61799251  0.13385999  1
  H+  H250  1  0.11204002  0.88793902  1.00331193  1
  H+  H251  1  0.57576811  0.48906097  0.98054243  1
  H+  H252  1  0.13454240  0.02813260  0.65513530  1
  H+  H253  1  0.33200303  0.28659775  0.54153286  1
  H+  H254  1  0.87589154  0.11495734  0.33780021  1
  H+  H255  1  0.14105094  0.60598413  0.32600328  1
  H+  H256  1  0.96809837  0.10910485  0.51604750  1
  H+  H257  1  0.62096701  0.97987529  0.48916609  1
  H+  H258  1  0.08523345  0.92122434  0.59078433  1
  H+  H259  1  0.36803917  0.00518281  0.84245082  1
  H+  H260  1  0.96403198  0.11762149  0.33902587  1
  H+  H261  1  0.02928788  0.64201025  0.33354698  1
  H+  H262  1  0.12699780  0.23437216  0.82806561  1
  H+  H263  1  0.77564857  0.12148720  0.80885668  1
  H+  H264  1  0.85985028  0.72589004  0.48832249  1
  H+  H265  1  0.64713975  0.11643075  0.33227755  1
  H+  H266  1  0.08895303  0.67045343  0.76092842  1
  H+  H267  1  0.16100991  0.37004619  0.84423224  1
  H+  H268  1  0.85470873  0.72523493  0.33349653  1
  H+  H269  1  0.64210386  0.76596306  0.66338814  1
  H+  H270  1  0.40059917  0.25241685  0.31489044  1
  H+  H271  1  0.61566102  0.38092185  0.01371667  1
  H+  H272  1  0.90362765  0.80079028  0.94118978  1
  H+  H273  1  0.13543841  0.86971757  0.16442829  1
  H+  H274  1  0.97539760  0.85443660  -0.00793326  1
  H+  H275  1  0.36169850  0.87560473  0.84735051  1
  H+  H276  1  0.23180795  0.36537153  0.65861584  1
  H+  H277  1  0.17828839  0.83825087  0.21588616  1
  H+  H278  1  0.37246115  0.22349183  0.48033153  1
  H+  H279  1  0.11471270  0.88084451  0.64150865  1
  H+  H280  1  0.19431104  0.88066184  0.31568390  1
  H+  H281  1  0.72508487  0.61320548  0.50694282  1
  H+  H282  1  0.86996964  0.47471767  0.33428725  1
  H+  H283  1  0.89166161  0.26407468  1.00883017  1
  H+  H284  1  0.09182712  0.36010247  0.00885370  1
  H+  H285  1  0.01129904  0.62232359  0.15775472  1
  H+  H286  1  0.61329249  0.47189280  0.34225499  1
  H+  H287  1  0.36130817  0.72055576  0.66358118  1
  H+  H288  1  0.32458702  0.15688702  0.09904454  1
  H+  H289  1  0.35094756  0.16592489  0.72327876  1
  H+  H290  1  0.76631558  0.64676054  0.68355031  1
  H+  H291  1  0.18137559  0.09960584  0.60674086  1
  H+  H292  1  0.11216844  0.41887665  0.74703573  1
  H+  H293  1  0.58521248  0.41490892  0.40219603  1
  H+  H294  1  0.62882002  0.15000058  0.66476977  1
  H+  H295  1  0.57120700  0.47641695  0.79929019  1
  H+  H296  1  0.85503792  0.17087167  0.76590770  1
  H+  H297  1  0.84109343  0.41578816  0.07163605  1
  H+  H298  1  0.11256153  0.12962784  0.15336834  1
  H+  H299  1  0.92109407  0.33545174  0.24223733  1
  H+  H300  1  0.61193231  0.55693520  0.92918058  1
  H+  H301  1  0.66699487  0.04057176  0.91309417  1
  H+  H302  1  0.77407409  0.25120301  0.88559743  1
  H+  H303  1  0.84522955  0.67298779  0.11421322  1
  H+  H304  1  -0.00602484  0.36853271  0.64250458  1
  H+  H305  1  0.87623883  0.52576697  0.65427984  1
  H+  H306  1  0.01192913  0.92753319  0.80617639  1
  H+  H307  1  0.65889164  0.57793919  0.26916458  1
  H+  H308  1  0.92739243  0.59317814  0.25975829  1
  H+  H309  1  0.59318940  0.92436175  0.07663397  1
  H+  H310  1  0.08092962  0.66382023  0.43238971  1
  H+  H311  1  0.89618843  0.73049632  0.02691326  1
  H+  H312  1  0.60019903  0.41886945  0.72310752  1
  H+  H313  1  0.67012850  0.59031002  0.56916343  1
  H+  H314  1  0.90760764  0.82460685  0.56419018  1
  H+  H315  1  0.87032006  0.18094686  0.08733605  1
  H+  H316  1  0.89973235  0.06936376  0.24256507  1
  H+  H317  1  0.33246494  0.67277302  0.42919526  1
  H+  H318  1  0.89341669  0.01679016  0.66765342  1
  H+  H319  1  0.64028452  0.77717139  0.50981904  1
  H+  H320  1  0.87839071  0.91004660  0.76787081  1
  H+  H321  1  0.37526410  0.54032847  0.33122459  1
  H+  H322  1  0.08673870  0.40217423  0.42057681  1
  H+  H323  1  0.55708797  0.64245670  0.71418607  1
  H+  H324  1  0.41647816  0.07187147  0.55912929  1
  H+  H325  1  0.68215441  0.36060275  0.93929001  1
  H+  H326  1  0.15270656  0.36761576  0.49227417  1
  H+  H327  1  0.42437804  0.58991087  0.93857659  1
  H+  H328  1  0.62937563  0.76668889  0.18676767  1
  H+  H329  1  0.88886914  0.97950632  0.01920355  1
  H+  H330  1  0.09119294  0.17758984  0.73065033  1
  H+  H331  1  0.82464701  0.91401281  0.10840895  1
  H+  H332  1  0.75808019  0.63708031  0.85130825  1
  H+  H333  1  0.58152868  0.15892113  0.39563076  1
  H+  H334  1  0.16275578  0.08706669  0.89660826  1
  H+  H335  1  0.43446117  0.33723589  0.59941850  1
  H+  H336  1  0.58656570  0.91273952  0.40533729  1
  H+  H337  1  0.82958580  0.66574063  0.42913208  1
  H+  H338  1  0.01905948  0.88212301  0.50015922  1
  H+  H339  1  0.42405647  0.32134658  0.93605891  1
  H+  H340  1  -0.02731946  0.85289390  0.64659690  1
  H+  H341  1  0.06800320  0.91252606  0.40923645  1
  H+  H342  1  0.16652386  0.32713415  0.90761430  1
  H+  H343  1  0.07238693  0.16432290  0.44133196  1
  H+  H344  1  0.18482132  0.34297446  0.55320554  1
  H+  H345  1  0.41196678  0.09116677  0.91398713  1
  H+  H346  1  0.48298597  0.10416365  0.64354774  1
  H+  H347  1  0.41293956  0.82770974  0.59216020  1
  H+  H348  1  0.84546291  0.42032597  0.39628192  1
  H+  H349  1  0.10686883  0.09938445  0.99325711  1
  H+  H350  1  0.43591415  0.84003897  0.90292235  1
  H+  H351  1  0.77927004  0.14189548  0.15961536  1
  H+  H352  1  0.62673664  0.04268750  0.91782314  1
  H+  H353  1  0.91938279  0.57792905  0.93229554  1
  H+  H354  1  0.84811671  0.19168765  0.44873906  1
  H+  H355  1  0.12620694  0.14584428  0.82406367  1
  H+  H356  1  0.58249153  0.40890505  0.10318855  1
  H+  H357  1  0.99332886  0.36275213  0.32748784  1
  H+  H358  1  0.55422033  0.92551764  0.73574584  1
  H+  H359  1  0.06603032  0.15192771  0.08825653  1
  H+  H360  1  0.15795296  0.32108456  0.26921492  1
  H+  H361  1  0.50783965  0.02420847  0.74283467  1
  H+  H362  1  0.07847367  0.40388247  0.10811849  1
  H+  H363  1  0.16773496  0.57733874  0.59301635  1
  H+  H364  1  0.17235159  0.56988039  0.27000549  1
  H+  H365  1  0.33099950  0.91494977  0.72429768  1
  H+  H366  1  0.42347641  0.56777423  0.24388704  1
  H+  H367  1  0.09037860  0.66338939  0.05707726  1
  H+  H368  1  0.41960077  0.58680818  0.55878205  1
  H+  H369  1  0.83131014  0.92368148  0.43777377  1
  H+  H370  1  0.67722180  0.83624911  0.61212005  1
  H+  H371  1  0.66423583  0.83868364  0.26270882  1
  H+  H372  1  0.89028798  0.61837333  0.31757558  1
  H+  H373  1  0.15700653  0.83938496  0.92985785  1
  H+  H374  1  0.16866997  0.07238081  0.26397613  1
  H+  H375  1  0.58892889  0.18194028  0.10885686  1
  H+  H376  1  0.33891103  0.93507445  0.08581702  1
  H+  H377  1  0.34406790  0.14854230  0.38871398  1
  H+  H378  1  0.84526752  0.41565959  0.72621910  1
  H+  H379  1  0.33715413  0.40880071  0.09989481  1
  H+  H380  1  0.28892759  0.47361208  0.72078070  1
  H+  H381  1  0.62632980  0.69385701  0.78540801  1
  H+  H382  1  0.26910030  0.66078092  0.09871493  1
  H+  H383  1  0.67024409  0.85315926  0.90684567  1
  O2-  O384  1  0.08179262  0.16073586  0.13813189  1
  O2-  O385  1  0.06616945  0.12507739  0.47632881  1
  O2-  O386  1  0.09636050  0.17701137  0.80878647  1
  O2-  O387  1  0.08063524  0.39935518  0.15273913  1
  O2-  O388  1  0.09166267  0.40087397  0.46668087  1
  O2-  O389  1  0.11419658  0.41674022  0.79390460  1
  O2-  O390  1  0.11275875  0.68624378  0.12228945  1
  O2-  O391  1  0.08325655  0.66651611  0.47760809  1
  O2-  O392  1  0.08239524  0.67240011  0.80762368  1
  O2-  O393  1  0.07759983  0.91595340  0.14233190  1
  O2-  O394  1  0.08135252  0.91607324  0.48733791  1
  O2-  O395  1  0.07291255  0.94203480  0.80405556  1
  O2-  O396  1  0.32697009  0.15990484  0.14435759  1
  O2-  O397  1  0.34606899  0.16226409  0.46817690  1
  O2-  O398  1  0.33519817  0.16673276  0.80858965  1
  O2-  O399  1  0.32824029  0.40016220  0.14423861  1
  O2-  O400  1  0.34716409  0.42631888  0.47090724  1
  O2-  O401  1  0.35226216  0.41638960  0.82435550  1
  O2-  O402  1  0.25017935  0.67648090  0.13601251  1
  O2-  O403  1  0.33239346  0.66647752  0.47456118  1
  O2-  O404  1  0.32563584  0.67638015  0.80440587  1
  O2-  O405  1  0.33770056  0.93465511  0.13110465  1
  O2-  O406  1  0.33526355  0.91024247  0.47149122  1
  O2-  O407  1  0.31840374  0.89637515  0.84741068  1
  O2-  O408  1  0.58781173  0.18462159  0.15403050  1
  O2-  O409  1  0.58619772  0.16246229  0.47335679  1
  O2-  O410  1  0.52460034  0.07536294  0.76861764  1
  O2-  O411  1  0.58617456  0.41109028  0.14956845  1
  O2-  O412  1  0.59004330  0.41906318  0.48431340  1
  O2-  O413  1  0.57463939  0.42419617  0.80305052  1
  O2-  O414  1  0.58339085  0.67459238  0.15890638  1
  O2-  O415  1  0.58972242  0.67298503  0.47960857  1
  O2-  O416  1  0.60445525  0.67460219  0.82636714  1
  O2-  O417  1  0.57093591  0.90756803  0.15041275  1
  O2-  O418  1  0.58752702  0.91664433  0.47583254  1
  O2-  O419  1  0.57954942  0.91757138  0.81143349  1
  O2-  O420  1  0.84356152  0.17228354  0.15709474  1
  O2-  O421  1  0.84552977  0.19122475  0.49400425  1
  O2-  O422  1  0.83965790  0.15979359  0.81128221  1
  O2-  O423  1  0.83726244  0.41401360  0.15129829  1
  O2-  O424  1  0.84492988  0.42166761  0.46832612  1
  O2-  O425  1  0.83433940  0.42127671  0.80809045  1
  O2-  O426  1  0.82530286  0.67477778  0.15756319  1
  O2-  O427  1  0.82867121  0.66495179  0.47437225  1
  O2-  O428  1  0.84671185  0.68202096  0.82763219  1
  O2-  O429  1  0.81794019  0.91066763  0.15351457  1
  O2-  O430  1  0.83613135  0.92106799  0.48257219  1
  O2-  O431  1  0.90412898  0.91167524  0.80845566  1
  O2-  O432  1  0.16018572  0.08214873  0.18099897  1
  O2-  O433  1  0.18842656  0.09190263  0.51965569  1
  O2-  O434  1  0.17219822  0.09230006  0.85187835  1
  O2-  O435  1  0.15967167  0.31254850  0.18085688  1
  O2-  O436  1  0.19115975  0.34555624  0.50861606  1
  O2-  O437  1  0.18612067  0.33845551  0.86458717  1
  O2-  O438  1  0.15399712  0.54931721  0.19861460  1
  O2-  O439  1  0.16385295  0.57627021  0.51627149  1
  O2-  O440  1  0.11882281  0.54808108  0.85947726  1
  O2-  O441  1  0.17163709  0.84229509  0.17150207  1
  O2-  O442  1  0.16635055  0.83069396  0.51173067  1
  O2-  O443  1  0.13331940  0.83124146  0.85021020  1
  O2-  O444  1  0.42216468  0.08949608  0.18562071  1
  O2-  O445  1  0.41908814  0.07262485  0.51336750  1
  O2-  O446  1  0.40584561  0.06912197  0.84307568  1
  O2-  O447  1  0.42315499  0.32822744  0.18300446  1
  O2-  O448  1  0.38564144  0.31935144  0.51905476  1
  O2-  O449  1  0.42662398  0.32301491  0.85712733  1
  O2-  O450  1  0.44459400  0.55447098  0.20590062  1
  O2-  O451  1  0.42414101  0.59097082  0.51311001  1
  O2-  O452  1  0.42701472  0.58866064  0.86114484  1
  O2-  O453  1  0.40256326  0.83120772  0.17146651  1
  O2-  O454  1  0.42216689  0.83270725  0.51633916  1
  O2-  O455  1  0.42700416  0.83903398  0.85853551  1
  O2-  O456  1  0.67215808  0.08597510  0.15464975  1
  O2-  O457  1  0.66825718  0.07597471  0.51035926  1
  O2-  O458  1  0.66599223  0.08822666  0.80410906  1
  O2-  O459  1  0.67196619  0.34342077  0.18131067  1
  O2-  O460  1  0.67566354  0.32831574  0.51361580  1
  O2-  O461  1  0.69753033  0.40887252  0.87327950  1
  O2-  O462  1  0.65761633  0.57904655  0.19018718  1
  O2-  O463  1  0.66533911  0.58350381  0.52335001  1
  O2-  O464  1  0.69274798  0.60084460  0.86383560  1
  O2-  O465  1  0.66059400  0.82969133  0.20142888  1
  O2-  O466  1  0.66799058  0.83777869  0.52459800  1
  O2-  O467  1  0.66399722  0.84740687  0.86194614  1
  O2-  O468  1  0.89549899  0.06347029  0.19772602  1
  O2-  O469  1  0.90769401  0.08202445  0.52971981  1
  O2-  O470  1  0.92827073  0.06741029  0.84934675  1
  O2-  O471  1  0.91620005  0.33597092  0.19527692  1
  O2-  O472  1  0.94362704  0.35910047  0.56257609  1
  O2-  O473  1  0.83390755  0.28071419  0.87290383  1
  O2-  O474  1  0.94862018  0.59567680  0.16692536  1
  O2-  O475  1  0.92013701  0.58752847  0.51662345  1
  O2-  O476  1  0.92128406  0.58739781  0.85627700  1
  O2-  O477  1  0.91453773  0.84572308  0.19081626  1
  O2-  O478  1  0.91461715  0.83095047  0.51849867  1
  O2-  O479  1  0.89209272  0.76589406  0.86005341  1
  O2-  O480  1  0.17918892  0.07076425  0.30807254  1
  O2-  O481  1  0.16462995  0.09103279  0.64992733  1
  O2-  O482  1  0.14312462  0.07572233  0.97700233  1
  O2-  O483  1  0.16063132  0.33006559  0.31344748  1
  O2-  O484  1  0.17566830  0.33411817  0.63769324  1
  O2-  O485  1  0.13373710  0.29789844  0.98595292  1
  O2-  O486  1  0.17795694  0.58158884  0.31575041  1
  O2-  O487  1  0.16916526  0.57561300  0.63882655  1
  O2-  O488  1  0.14288323  0.55074626  0.97950320  1
  O2-  O489  1  0.20046097  0.83431220  0.29806098  1
  O2-  O490  1  0.16681431  0.82675220  0.63600571  1
  O2-  O491  1  0.16611854  0.84377588  0.97464422  1
  O2-  O492  1  0.42549399  0.05768411  0.30709827  1
  O2-  O493  1  0.41987461  0.07120185  0.63557387  1
  O2-  O494  1  0.40824060  0.09653216  0.95993500  1
  O2-  O495  1  0.42656680  0.31217583  0.29989169  1
  O2-  O496  1  0.43960735  0.33221931  0.64345392  1
  O2-  O497  1  0.41801791  0.31797666  0.98150724  1
  O2-  O498  1  0.41167888  0.60253551  0.31605986  1
  O2-  O499  1  0.42032655  0.57930130  0.63524744  1
  O2-  O500  1  0.41898397  0.58590906  0.98416259  1
  O2-  O501  1  0.41249738  0.85824333  0.32620854  1
  O2-  O502  1  0.40654352  0.82310502  0.63764361  1
  O2-  O503  1  0.44940144  0.86342728  0.98742427  1
  O2-  O504  1  0.68423595  0.09113586  0.32290020  1
  O2-  O505  1  0.68540720  0.10333377  0.68223056  1
  O2-  O506  1  0.71575734  0.10634026  1.01493453  1
  O2-  O507  1  0.66832209  0.32208688  0.32114289  1
  O2-  O508  1  0.68251693  0.34011282  0.63656016  1
  O2-  O509  1  0.67737739  0.34133662  0.98302178  1
  O2-  O510  1  0.66427253  0.57971874  0.31446876  1
  O2-  O511  1  0.67153275  0.59759237  0.64541854  1
  O2-  O512  1  0.55820171  0.51636939  0.94947443  1
  O2-  O513  1  0.66528057  0.84372733  0.31291215  1
  O2-  O514  1  0.68034182  0.82923185  0.65635546  1
  O2-  O515  1  0.67930815  0.85762957  0.98763747  1
  O2-  O516  1  0.90459602  0.08120033  0.32335420  1
  O2-  O517  1  0.92120846  0.07593837  0.64937445  1
  O2-  O518  1  0.96222530  0.09687558  1.01293298  1
  O2-  O519  1  0.92685173  0.33082294  0.31175083  1
  O2-  O520  1  0.93307829  0.34366310  0.62807614  1
  O2-  O521  1  0.90644131  0.32023895  0.98743318  1
  O2-  O522  1  0.92489986  0.59157848  0.30432923  1
  O2-  O523  1  0.89502345  0.58214287  0.63521341  1
  O2-  O524  1  0.92289981  0.57528485  0.97815499  1
  O2-  O525  1  0.89794725  0.83633619  0.31300471  1
  O2-  O526  1  0.90953351  0.82446474  0.63962408  1
  O2-  O527  1  0.91189572  0.81732670  0.98471389  1
  O2-  O528  1  0.05422963  0.14613165  0.02832335  1
  O2-  O529  1  0.05337875  0.20425244  0.37945064  1
  O2-  O530  1  0.08749404  0.17506484  0.68519640  1
  O2-  O531  1  0.06921681  0.39786671  0.02319217  1
  O2-  O532  1  0.07792353  0.39878220  0.34763836  1
  O2-  O533  1  0.09560503  0.41498893  0.67659955  1
  O2-  O534  1  0.07734383  0.64225818  0.01194495  1
  O2-  O535  1  0.08788259  0.66748764  0.35169707  1
  O2-  O536  1  0.09972425  0.66723348  0.69250575  1
  O2-  O537  1  0.07587511  0.91220746  0.01947820  1
  O2-  O538  1  0.06013417  0.90688936  0.36381682  1
  O2-  O539  1  0.08248567  0.91281901  0.63482918  1
  O2-  O540  1  0.30933269  0.15751241  0.01986547  1
  O2-  O541  1  0.34439907  0.14098889  0.34385733  1
  O2-  O542  1  0.36467167  0.16687204  0.67979854  1
  O2-  O543  1  0.35607359  0.42372930  0.01484098  1
  O2-  O544  1  0.32715108  0.44366194  0.34798203  1
  O2-  O545  1  0.32123392  0.44705060  0.70583626  1
  O2-  O546  1  0.30376771  0.64314370  0.01691158  1
  O2-  O547  1  0.33517307  0.69068554  0.35214134  1
  O2-  O548  1  0.33378460  0.66059840  0.68007493  1
  O2-  O549  1  0.34508499  0.93295901  0.00534599  1
  O2-  O550  1  0.35997358  0.89629217  0.34484859  1
  O2-  O551  1  0.33026179  0.91462324  0.68002729  1
  O2-  O552  1  0.60957024  0.18671832  0.03161559  1
  O2-  O553  1  0.58206130  0.15829099  0.35010595  1
  O2-  O554  1  0.58836139  0.17375076  0.66794254  1
  O2-  O555  1  0.57797299  0.40143096  0.03151568  1
  O2-  O556  1  0.58552120  0.41161850  0.35714131  1
  O2-  O557  1  0.60657353  0.42613228  0.67854217  1
  O2-  O558  1  0.57587887  0.70741697  0.03660261  1
  O2-  O559  1  0.58461117  0.66623551  0.35782252  1
  O2-  O560  1  0.57438068  0.65631819  0.67192277  1
  O2-  O561  1  0.60334888  0.93761069  0.03193187  1
  O2-  O562  1  0.58519927  0.91187264  0.35836754  1
  O2-  O563  1  0.54108511  0.94925616  0.69903999  1
  O2-  O564  1  0.87676103  0.17863635  0.04142799  1
  O2-  O565  1  0.84251508  0.17548663  0.36576553  1
  O2-  O566  1  0.85959694  0.17491698  0.69427119  1
  O2-  O567  1  0.84080484  0.41613123  0.02620130  1
  O2-  O568  1  0.84300604  0.41556342  0.34989530  1
  O2-  O569  1  0.84344479  0.41741455  0.68122181  1
  O2-  O570  1  0.89204248  0.68224558  0.05251734  1
  O2-  O571  1  0.83223575  0.66477958  0.34684934  1
  O2-  O572  1  0.82762026  0.67436419  0.69797019  1
  O2-  O573  1  0.84621272  0.91900438  0.02859373  1
  O2-  O574  1  0.81743051  0.91964708  0.35495203  1
  O2-  O575  1  0.84329194  0.91440226  0.69463960  1
