# generated using pymatgen
data_H2O
_symmetry_space_group_name_H-M   'P 1'
_cell_length_a   17.99346071
_cell_length_b   17.98909433
_cell_length_c   22.00095597
_cell_angle_alpha   89.98646298
_cell_angle_beta   89.98551021
_cell_angle_gamma   119.99110783
_symmetry_Int_Tables_number   1
_chemical_formula_structural   H2O
_chemical_formula_sum   'H384 O192'
_cell_volume   6167.86753639
_cell_formula_units_Z   192
loop_
 _symmetry_equiv_pos_site_id
 _symmetry_equiv_pos_as_xyz
  1  'x, y, z'
loop_
 _atom_type_symbol
 _atom_type_oxidation_number
  H+  1.0
  O2-  -2.0
loop_
 _atom_site_type_symbol
 _atom_site_label
 _atom_site_symmetry_multiplicity
 _atom_site_fract_x
 _atom_site_fract_y
 _atom_site_fract_z
 _atom_site_occupancy
  H+  H0  1  0.10954722  0.71848497  0.16065753  1
  H+  H1  1  1.02084834  0.14200311  0.35563117  1
  H+  H2  1  0.88174100  0.35977094  0.65927132  1
  H+  H3  1  0.86001922  0.20869946  0.15424602  1
  H+  H4  1  0.20442911  0.30859676  0.33028085  1
  H+  H5  1  0.44686767  0.59054309  0.16212295  1
  H+  H6  1  0.19948909  0.34934098  0.64061371  1
  H+  H7  1  0.12718890  0.50553849  0.66115881  1
  H+  H8  1  0.08394233  0.20633099  0.81657069  1
  H+  H9  1  0.85378983  0.87555017  0.18740318  1
  H+  H10  1  0.02933818  0.88826810  0.15928417  1
  H+  H11  1  0.77097768  0.63160278  0.33981843  1
  H+  H12  1  0.77222586  0.87640912  0.50377770  1
  H+  H13  1  0.87940722  0.52925393  0.17405460  1
  H+  H14  1  0.11958414  0.10112593  0.65208466  1
  H+  H15  1  0.13533513  0.61909636  0.17785828  1
  H+  H16  1  0.40156151  0.91126890  0.52727574  1
  H+  H17  1  0.21941400  0.93797875  0.28214104  1
  H+  H18  1  0.36832467  0.62635940  0.32814401  1
  H+  H19  1  0.44430554  0.34322360  0.69265841  1
  H+  H20  1  0.36013877  0.12537783  0.49837689  1
  H+  H21  1  0.72353159  0.11455833  0.82837012  1
  H+  H22  1  0.37664386  0.63922957  0.83137165  1
  H+  H23  1  0.87141076  -0.00071532  0.16093139  1
  H+  H24  1  0.94647013  0.35597890  0.32060124  1
  H+  H25  1  0.65983367  0.82615458  0.24265634  1
  H+  H26  1  0.10583300  -0.03240632  0.67127206  1
  H+  H27  1  0.62180621  0.63420926  0.84316778  1
  H+  H28  1  0.85710354  0.87727739  0.68034460  1
  H+  H29  1  0.01028104  0.37822253  0.82490815  1
  H+  H30  1  0.61372652  1.01537951  0.32909961  1
  H+  H31  1  0.02709996  0.89046484  0.49524673  1
  H+  H32  1  0.38406661  0.85881113  -0.01448585  1
  H+  H33  1  0.37210604  0.35387125  0.66050551  1
  H+  H34  1  0.53906677  0.39187654  0.83371370  1
  H+  H35  1  0.32154584  0.17521295  0.91041899  1
  H+  H36  1  0.80733189  0.01813509  0.87573320  1
  H+  H37  1  0.57014515  0.65208985  0.09672515  1
  H+  H38  1  0.74383412  0.84261727  0.26879615  1
  H+  H39  1  0.87304564  0.60579911  0.32244569  1
  H+  H40  1  0.10675622  0.87764698  0.00392260  1
  H+  H41  1  0.86810698  0.63570458  1.00113862  1
  H+  H42  1  0.88901734  0.77879251  0.17140369  1
  H+  H43  1  0.26616405  0.12184771  0.49240854  1
  H+  H44  1  0.32435814  0.67070702  0.10847492  1
  H+  H45  1  0.13343424  0.64810294  0.34393225  1
  H+  H46  1  0.40289573  0.77841280  0.81684696  1
  H+  H47  1  0.45108699  0.67373897  0.53610206  1
  H+  H48  1  0.08974381  0.66387154  0.43810885  1
  H+  H49  1  0.28589614  0.35685021  0.12716503  1
  H+  H50  1  0.13254783  0.76614366  -0.00663285  1
  H+  H51  1  -0.00128469  0.11329275  0.81770311  1
  H+  H52  1  0.36984381  0.74518655  0.02304042  1
  H+  H53  1  0.91101025  0.32829507  0.60009799  1
  H+  H54  1  0.84989898  0.22731943  0.49352039  1
  H+  H55  1  0.35808447  0.87866774  0.14351674  1
  H+  H56  1  0.11217052  0.63028468  0.66643869  1
  H+  H57  1  0.61310965  0.47822581  0.00089048  1
  H+  H58  1  0.48775181  0.36210768  0.18459904  1
  H+  H59  1  0.14345441  0.02424361  0.16356761  1
  H+  H60  1  0.29045492  0.46008003  0.18634099  1
  H+  H61  1  0.13047792  0.85354957  0.50634175  1
  H+  H62  1  0.12066226  0.10418683  0.83318460  1
  H+  H63  1  0.61615649  0.37347696  0.49561750  1
  H+  H64  1  0.89236094  0.51928993  -0.00640990  1
  H+  H65  1  0.26741010  0.87155412  0.13900634  1
  H+  H66  1  0.97861663  0.94847886  0.55629780  1
  H+  H67  1  0.22433804  0.86043496  0.66337342  1
  H+  H68  1  0.82904693  0.68652463  0.49123330  1
  H+  H69  1  0.64561971  0.27354738  0.17053582  1
  H+  H70  1  0.72041224  0.10227981  0.17116150  1
  H+  H71  1  0.94009782  0.33477903  0.98259263  1
  H+  H72  1  0.38594652  0.51180895  0.32224208  1
  H+  H73  1  0.12584536  0.73203571  0.34588411  1
  H+  H74  1  0.87999374  0.76963318  0.32796337  1
  H+  H75  1  0.38335227  0.01195982  0.95684269  1
  H+  H76  1  0.74219652  0.13132259  0.49768578  1
  H+  H77  1  0.90116942  0.90336354  0.83194910  1
  H+  H78  1  0.32855677  0.91348517  0.43820615  1
  H+  H79  1  0.75413495  0.38247044  0.34046121  1
  H+  H80  1  0.47861012  0.86952674  0.33006330  1
  H+  H81  1  0.12753170  0.27460126  0.99994380  1
  H+  H82  1  -0.01632975  0.86736673  0.84468335  1
  H+  H83  1  0.88982762  0.50597530  0.83863674  1
  H+  H84  1  0.71609379  0.10184303  0.98220106  1
  H+  H85  1  0.24744975  0.62681715  0.17325082  1
  H+  H86  1  0.76240582  0.87085826  0.17422129  1
  H+  H87  1  0.32682311  0.24287694  0.10843216  1
  H+  H88  1  0.62551778  0.27151743  0.33028734  1
  H+  H89  1  0.16094690  0.07127859  0.55965197  1
  H+  H90  1  0.60722972  0.90577890  0.34448412  1
  H+  H91  1  0.72488543  0.85594505  0.67650196  1
  H+  H92  1  0.62868082  0.82063020  0.52932207  1
  H+  H93  1  0.41169041  0.16055353  0.15397321  1
  H+  H94  1  0.30040589  0.39611871  0.71486181  1
  H+  H95  1  -0.02244020  0.12130205  -0.01414722  1
  H+  H96  1  0.89785152  0.89013522  0.51715266  1
  H+  H97  1  0.37103990  0.13420084  0.34959606  1
  H+  H98  1  0.09290727  0.21326214  0.66334600  1
  H+  H99  1  0.86214400  0.47177028  0.66980946  1
  H+  H100  1  0.75517122  0.40255776  0.15726420  1
  H+  H101  1  0.62089758  0.70024142  0.51394624  1
  H+  H102  1  0.27186982  0.14692824  0.12821435  1
  H+  H103  1  0.10994173  0.89254533  0.33749931  1
  H+  H104  1  0.34726312  0.21617325  0.67015501  1
  H+  H105  1  0.72099557  0.60919911  -0.00878668  1
  H+  H106  1  0.08221054  0.20713660  0.15645018  1
  H+  H107  1  0.13945995  0.40287476  0.17949869  1
  H+  H108  1  0.72268983  0.36886259  0.98618725  1
  H+  H109  1  0.39925320  0.86518419  0.81864085  1
  H+  H110  1  0.60641780  0.97105698  -0.00452973  1
  H+  H111  1  0.63475830  0.60871778  0.32553052  1
  H+  H112  1  0.88779735  0.36111210  0.50099455  1
  H+  H113  1  0.18176934  0.52830648  0.00792940  1
  H+  H114  1  0.90169889  0.06757629  0.56746418  1
  H+  H115  1  0.60038656  0.13398863  0.34057554  1
  H+  H116  1  0.61058296  0.46806770  0.15921696  1
  H+  H117  1  0.63938725  0.35966962  0.83455238  1
  H+  H118  1  0.60510714  0.13501417  0.68335950  1
  H+  H119  1  0.51912887  0.13249915  0.49874409  1
  H+  H120  1  0.71385439  0.61027714  0.17089739  1
  H+  H121  1  0.40739088  0.54656808  0.85810068  1
  H+  H122  1  0.37154070  0.22570141  0.35253266  1
  H+  H123  1  0.20897224  0.10199254  0.65344946  1
  H+  H124  1  0.92712925  0.57648254  0.93435884  1
  H+  H125  1  0.38248286  0.10836218  0.66010522  1
  H+  H126  1  0.10848504  0.62605760  0.49815441  1
  H+  H127  1  0.49417797  0.15186912  0.16150330  1
  H+  H128  1  0.88614817  0.86270158  0.33131298  1
  H+  H129  1  0.28323373  0.65177636  0.02436453  1
  H+  H130  1  0.63487269  0.02656139  0.66933161  1
  H+  H131  1  0.34383184  0.36563745  0.06913811  1
  H+  H132  1  0.84639344  0.37153466  1.00295315  1
  H+  H133  1  0.22138610  0.85272517  0.84185768  1
  H+  H134  1  0.26494736  0.88314108  0.49657370  1
  H+  H135  1  0.11183051  0.71886838  0.82269386  1
  H+  H136  1  0.88558708  0.60586913  0.65763724  1
  H+  H137  1  0.63253577  0.36812661  0.98600434  1
  H+  H138  1  0.31915555  0.40378212  0.39734221  1
  H+  H139  1  0.46849413  0.10426490  0.86131414  1
  H+  H140  1  0.62764820  0.46693935  0.50097251  1
  H+  H141  1  0.40596311  0.79108391  0.66067971  1
  H+  H142  1  0.10179959  0.46708611  0.82481614  1
  H+  H143  1  0.84922807  0.12226708  0.82714160  1
  H+  H144  1  0.34540496  0.62278565  0.16770891  1
  H+  H145  1  0.86290777  0.72127904  0.99820542  1
  H+  H146  1  0.13271037  0.76543905  0.51003702  1
  H+  H147  1  0.32981946  0.66510703  0.74306994  1
  H+  H148  1  0.13934407  0.15396198  0.31579445  1
  H+  H149  1  0.04193084  0.41621863  -0.00120722  1
  H+  H150  1  0.37842881  0.60657537  0.66702749  1
  H+  H151  1  0.24196470  0.39093959  0.23707240  1
  H+  H152  1  0.73000782  0.35691617  0.66362708  1
  H+  H153  1  0.81544380  0.11447039  0.33813855  1
  H+  H154  1  0.10822878  0.12859459  0.49834636  1
  H+  H155  1  0.86045650  0.22236769  0.67056280  1
  H+  H156  1  0.15606581  0.31667024  0.87767713  1
  H+  H157  1  -0.02740228  0.85679599  0.67150875  1
  H+  H158  1  0.85372689  0.37039533  0.81982511  1
  H+  H159  1  0.36346228  0.89136240  0.68359443  1
  H+  H160  1  0.69969724  0.11168554  0.32578877  1
  H+  H161  1  0.37879800  0.34911685  0.33274463  1
  H+  H162  1  0.36768146  0.38480825  0.48449500  1
  H+  H163  1  0.21310751  0.58356998  0.50635028  1
  H+  H164  1  0.78289156  0.62989301  0.67800063  1
  H+  H165  1  0.67079580  0.83919935  0.90132931  1
  H+  H166  1  0.36561475  0.88210256  0.34290818  1
  H+  H167  1  0.72933462  0.35247883  0.50999122  1
  H+  H168  1  0.88725000  0.86951308  0.99688292  1
  H+  H169  1  0.11826736  0.34647391  0.82488049  1
  H+  H170  1  0.23991101  0.61438475  0.32237357  1
  H+  H171  1  0.62216798  0.14390201  0.15421166  1
  H+  H172  1  0.47579673  0.60235886  0.31424307  1
  H+  H173  1  0.28117276  0.63116354  0.83017407  1
  H+  H174  1  0.11479033  -0.02728539  0.82663102  1
  H+  H175  1  0.63612142  0.02807185  0.81749985  1
  H+  H176  1  0.78417843  0.90100595  0.01548464  1
  H+  H177  1  -0.02429303  0.34261526  0.17660423  1
  H+  H178  1  0.13128021  0.85419862  0.16447085  1
  H+  H179  1  0.51803675  0.38398835  0.34745910  1
  H+  H180  1  0.79803337  0.92187760  0.34507155  1
  H+  H181  1  0.52110703  0.62816185  0.67999816  1
  H+  H182  1  0.27005332  0.88511129  -0.01078334  1
  H+  H183  1  0.29325609  0.70943113  0.70094074  1
  H+  H184  1  0.49402074  0.92205074  0.52036588  1
  H+  H185  1  0.12605162  1.02566080  0.31982048  1
  H+  H186  1  0.86665174  0.50969337  0.32398203  1
  H+  H187  1  0.64379743  0.86525647  -0.00178768  1
  H+  H188  1  0.37021634  0.97370009  0.34293412  1
  H+  H189  1  0.63788098  0.78024789  0.84487155  1
  H+  H190  1  0.96062837  0.09900288  0.65821277  1
  H+  H191  1  0.21440939  0.11592257  0.84891665  1
  H+  H192  1  0.40662606  0.64116251  1.00539969  1
  H+  H193  1  0.24107862  0.57939133  0.95267140  1
  H+  H194  1  0.11672196  0.63126708  1.00804601  1
  H+  H195  1  0.15187280  0.52736398  0.33029248  1
  H+  H196  1  0.11020783  0.88036257  0.67364023  1
  H+  H197  1  0.33480374  0.40603624  0.89180284  1
  H+  H198  1  0.62375347  0.73081860  0.30936987  1
  H+  H199  1  0.41898808  0.09352364  0.26994418  1
  H+  H200  1  0.17123490  0.41233570  0.03121058  1
  H+  H201  1  0.96677054  0.09773868  0.51148844  1
  H+  H202  1  0.47355417  0.11245874  0.66596996  1
  H+  H203  1  0.76902947  0.13605679  0.67294642  1
  H+  H204  1  0.35049057  0.11678357  -0.02034772  1
  H+  H205  1  0.40406495  0.28803735  0.86264508  1
  H+  H206  1  0.60048144  0.13105094  0.83067410  1
  H+  H207  1  0.53455600  0.64867493  1.00933173  1
  H+  H208  1  0.82470339  0.67681932  0.08959919  1
  H+  H209  1  0.66795188  0.81080945  0.59000951  1
  H+  H210  1  0.86272012  0.46996019  0.49323219  1
  H+  H211  1  0.10231497  0.20523461  0.28017614  1
  H+  H212  1  0.63410121  0.03080938  0.50056268  1
  H+  H213  1  0.60509221  -0.02735781  0.15447089  1
  H+  H214  1  0.39437099  0.77422295  0.32680872  1
  H+  H215  1  0.68283400  0.56802774  0.57782134  1
  H+  H216  1  0.88410319  0.64180377  0.48494965  1
  H+  H217  1  0.29390913  0.41096939  0.49152479  1
  H+  H218  1  0.10986761  0.47167568  0.17822858  1
  H+  H219  1  0.60860841  0.71804302  0.68207873  1
  H+  H220  1  0.85613129  0.62090268  0.86450208  1
  H+  H221  1  0.17786619  0.41158828  0.36012847  1
  H+  H222  1  0.97165722  0.34922705  0.50523678  1
  H+  H223  1  1.05224243  0.41064750  0.96638512  1
  H+  H224  1  0.13595778  0.10868622  0.16588196  1
  H+  H225  1  0.83929786  0.37645875  0.33716192  1
  H+  H226  1  0.41614572  0.38096650  0.85432440  1
  H+  H227  1  0.52769287  0.89754383  0.69038669  1
  H+  H228  1  0.55087867  0.39866826  0.65014062  1
  H+  H229  1  0.00362229  0.11256185  0.14242642  1
  H+  H230  1  0.82406771  0.41368107  0.06062426  1
  H+  H231  1  0.10498899  0.96649891  0.00348243  1
  H+  H232  1  0.87252505  0.10043792  0.66030618  1
  H+  H233  1  0.34332658  0.60413469  0.48518532  1
  H+  H234  1  0.35928961  0.97700688  0.67872685  1
  H+  H235  1  0.64284030  0.53861799  0.84920325  1
  H+  H236  1  0.02470221  0.62493327  0.00774545  1
  H+  H237  1  0.87898773  0.25994211  0.83134167  1
  H+  H238  1  0.47841689  0.60946481  0.51359509  1
  H+  H239  1  0.85174172  0.11566874  0.14079119  1
  H+  H240  1  0.48805587  0.37281935  0.50457420  1
  H+  H241  1  0.97950088  0.59565933  0.83718274  1
  H+  H242  1  0.59999985  0.21966217  0.83379312  1
  H+  H243  1  0.65105240  0.78031907  1.00291328  1
  H+  H244  1  0.85311422  -0.03484770  0.67613079  1
  H+  H245  1  0.62081808  0.23383956  0.00102070  1
  H+  H246  1  0.59740241  0.90341156  0.48111165  1
  H+  H247  1  0.66584161  0.33046808  0.89540070  1
  H+  H248  1  0.85626752  0.97424338  0.50041156  1
  H+  H249  1  -0.02853602  0.86143008  -0.00464946  1
  H+  H250  1  0.01581051  0.88225518  0.33882483  1
  H+  H251  1  0.85274615  0.24625185  -0.01227906  1
  H+  H252  1  0.21909055  0.59419096  0.66100423  1
  H+  H253  1  0.62580412  0.36118567  0.32883204  1
  H+  H254  1  0.01236672  0.38078120  0.67207680  1
  H+  H255  1  0.64514118  0.58842401  0.52118830  1
  H+  H256  1  0.13560141  0.60834713  0.83366402  1
  H+  H257  1  0.87610401  0.25910382  0.32965018  1
  H+  H258  1  0.11468686  0.35292310  0.65447606  1
  H+  H259  1  0.97969311  0.60552086  0.18172283  1
  H+  H260  1  0.13743950  1.01395570  0.49900308  1
  H+  H261  1  0.43599562  0.76834945  0.52226154  1
  H+  H262  1  0.08125792  0.38039749  0.35279295  1
  H+  H263  1  0.88467620  0.01686689  0.09187302  1
  H+  H264  1  0.63729429  0.26908643  0.66808874  1
  H+  H265  1  0.87576791  0.99606046  0.83294789  1
  H+  H266  1  0.61834430  0.85234299  0.15355382  1
  H+  H267  1  0.93487390  0.05230358  0.37147805  1
  H+  H268  1  0.87026022  0.98833158  0.00086458  1
  H+  H269  1  0.64765670  0.52434154  0.67161945  1
  H+  H270  1  0.47251997  0.85734220  0.99005617  1
  H+  H271  1  0.24403223  0.88438005  0.32359059  1
  H+  H272  1  0.53078826  0.89144961  0.78255810  1
  H+  H273  1  0.47583698  0.11384215  0.32972050  1
  H+  H274  1  0.39359396  0.34468133  0.17720885  1
  H+  H275  1  0.64210609  0.61029871  0.66821066  1
  H+  H276  1  -0.02662975  0.60322778  0.65458415  1
  H+  H277  1  0.38142055  0.02067484  0.50920971  1
  H+  H278  1  0.21025510  0.09483653  0.98143607  1
  H+  H279  1  0.39474547  0.75632770  0.53927248  1
  H+  H280  1  0.63217868  0.11946308  0.50757467  1
  H+  H281  1  0.63169470  0.51807407  0.33153114  1
  H+  H282  1  0.97414016  0.60174392  0.50549892  1
  H+  H283  1  0.84316223  0.66690989  0.39412419  1
  H+  H284  1  0.58750341  0.66055790  0.78029052  1
  H+  H285  1  0.90550143  0.14843620  0.36914009  1
  H+  H286  1  0.35725658  0.96691763  0.83921407  1
  H+  H287  1  0.38278325  0.77117723  0.17946322  1
  H+  H288  1  0.10749092  0.13100883  0.00140771  1
  H+  H289  1  0.41958170  0.32623560  0.27652878  1
  H+  H290  1  0.60406942  0.18222478  0.09258383  1
  H+  H291  1  0.11410233  0.72091746  0.66817524  1
  H+  H292  1  0.51503563  0.88482065  0.15417751  1
  H+  H293  1  0.61038142  0.22178137  0.49878865  1
  H+  H294  1  0.57499011  0.93811642  0.41749998  1
  H+  H295  1  0.33765540  0.15913517  0.42593192  1
  H+  H296  1  0.77718767  0.48003316  0.11341315  1
  H+  H297  1  0.83699887  0.91974952  0.40925907  1
  H+  H298  1  0.93974781  0.12575908  0.25366369  1
  H+  H299  1  0.57101787  0.16257504  0.74224829  1
  H+  H300  1  0.33017431  0.64455267  0.38809989  1
  H+  H301  1  0.42222938  0.33855560  0.55978713  1
  H+  H302  1  0.66179678  0.57481445  0.23334482  1
  H+  H303  1  0.65782951  0.07520622  0.92224774  1
  H+  H304  1  0.58251529  0.41406855  0.05748383  1
  H+  H305  1  0.66511946  0.32965910  0.23348618  1
  H+  H306  1  0.34542680  0.46619674  0.66387107  1
  H+  H307  1  0.08463949  0.66085597  0.76192813  1
  H+  H308  1  0.76681913  0.37502465  0.82184058  1
  H+  H309  1  0.61105770  0.75781845  0.15643498  1
  H+  H310  1  0.16912580  0.83133787  0.22239356  1
  H+  H311  1  0.33078517  0.68311646  0.47832711  1
  H+  H312  1  0.40197704  0.57045233  0.22670491  1
  H+  H313  1  0.77760248  0.72199599  0.11596241  1
  H+  H314  1  0.91669500  0.83673128  0.61232941  1
  H+  H315  1  0.92259981  0.83031713  0.23492064  1
  H+  H316  1  0.90740438  0.08409672  0.92874334  1
  H+  H317  1  0.07864999  0.15843368  0.06186931  1
  H+  H318  1  0.58920438  0.41847045  0.77030184  1
  H+  H319  1  0.85588635  0.13080093  0.00117990  1
  H+  H320  1  0.06586511  0.15386484  0.72377267  1
  H+  H321  1  0.40952477  0.58297402  0.60660585  1
  H+  H322  1  0.15743451  0.57385485  0.89415703  1
  H+  H323  1  0.67076886  0.32361774  0.57060468  1
  H+  H324  1  0.15461393  0.81945792  0.93094704  1
  H+  H325  1  0.91747297  0.84124850  0.90146662  1
  H+  H326  1  0.41520790  0.36933658  0.96255347  1
  H+  H327  1  0.31298235  0.15121608  0.72517058  1
  H+  H328  1  0.32520420  0.16513802  0.03072852  1
  H+  H329  1  0.82750744  0.41073185  0.43361027  1
  H+  H330  1  0.31864336  0.03835076  0.21037089  1
  H+  H331  1  0.61804008  0.14319883  0.00008398  1
  H+  H332  1  0.21780087  0.34605896  0.97579917  1
  H+  H333  1  0.65788572  0.08132105  0.60745025  1
  H+  H334  1  0.83207291  0.15937152  0.76369437  1
  H+  H335  1  0.63725483  0.85920900  0.67610819  1
  H+  H336  1  0.30622417  0.41373858  0.82415924  1
  H+  H337  1  0.35462509  0.13830132  0.86106329  1
  H+  H338  1  0.82110424  0.15976533  0.43527671  1
  H+  H339  1  0.61904639  0.63773694  0.00827749  1
  H+  H340  1  0.13566505  0.35442767  0.55525173  1
  H+  H341  1  0.43371080  0.61661550  0.94253279  1
  H+  H342  1  0.16609471  0.83041346  0.60261438  1
  H+  H343  1  0.83202089  0.41104777  0.73027658  1
  H+  H344  1  0.57642373  0.16456975  0.40315888  1
  H+  H345  1  0.91167486  0.57337977  0.56328153  1
  H+  H346  1  0.07804761  0.90864537  0.43136241  1
  H+  H347  1  0.08212475  0.65242738  0.10457045  1
  H+  H348  1  0.87082005  0.71643535  0.67675023  1
  H+  H349  1  0.49700695  0.63436775  0.84759133  1
  H+  H350  1  0.14021071  0.06632498  0.92971332  1
  H+  H351  1  0.59875135  0.64031896  0.45521558  1
  H+  H352  1  0.66063499  0.58730331  0.92953587  1
  H+  H353  1  0.33500419  0.91972361  0.04408408  1
  H+  H354  1  0.32860946  0.91887943  0.77461148  1
  H+  H355  1  0.16539666  0.07902207  0.25755126  1
  H+  H356  1  0.77708283  0.63604201  0.87100006  1
  H+  H357  1  0.41494909  0.07952197  0.56934594  1
  H+  H358  1  0.90941042  0.57403724  0.25596455  1
  H+  H359  1  0.13346150  0.85457371  0.83853900  1
  H+  H360  1  0.08385110  0.91115323  0.76854133  1
  H+  H361  1  0.15989943  0.55992741  0.57211716  1
  H+  H362  1  0.61234871  0.37987708  0.15941592  1
  H+  H363  1  0.57744663  0.91631262  0.05721522  1
  H+  H364  1  0.81698313  0.15345583  0.06030993  1
  H+  H365  1  0.08433124  0.91293178  0.09742543  1
  H+  H366  1  0.07155862  0.40859708  0.73266026  1
  H+  H367  1  0.62397280  0.38147311  0.67219783  1
  H+  H368  1  0.43849562  0.87218461  0.61330684  1
  H+  H369  1  0.10754920  0.41136972  0.44477115  1
  H+  H370  1  0.58405687  0.41434944  0.40411622  1
  H+  H371  1  0.14032196  0.44493195  0.08821623  1
  H+  H372  1  0.58054176  0.69743671  0.37208858  1
  H+  H373  1  0.41721527  0.83703305  0.23402200  1
  H+  H374  1  0.93795791  0.08354151  0.25826079  1
  H+  H375  1  0.07682852  0.17584705  0.45405880  1
  H+  H376  1  0.12187285  0.47711495  0.50886208  1
  H+  H377  1  0.27662770  0.02194467  0.22678154  1
  H+  H378  1  0.89550190  0.31514358  0.89177306  1
  H+  H379  1  0.85615098  0.92695676  0.76873789  1
  H+  H380  1  0.16902673  0.59047148  0.24012199  1
  H+  H381  1  0.65595090  0.07670990  0.22869907  1
  H+  H382  1  0.90036920  0.31160407  0.22437157  1
  H+  H383  1  0.58876972  0.61995206  0.16003404  1
  O2-  O384  1  0.06834288  0.15029441  0.14253915  1
  O2-  O385  1  0.07442438  0.15849502  0.49627114  1
  O2-  O386  1  0.05752887  0.14517769  0.80211120  1
  O2-  O387  1  0.09158325  0.41202993  0.16642930  1
  O2-  O388  1  0.09464630  0.40653445  0.49081729  1
  O2-  O389  1  0.07035537  0.40750860  0.80808897  1
  O2-  O390  1  0.08159270  0.65522856  0.15019338  1
  O2-  O391  1  0.08205217  0.65921424  0.48366861  1
  O2-  O392  1  0.08595740  0.65852011  0.80722053  1
  O2-  O393  1  0.08918348  0.91562128  0.14317240  1
  O2-  O394  1  0.08433442  0.90900038  0.47676417  1
  O2-  O395  1  0.08748333  0.91135174  0.81384877  1
  O2-  O396  1  0.32378758  0.18647921  0.10478026  1
  O2-  O397  1  0.32872054  0.15316575  0.47925848  1
  O2-  O398  1  0.32637343  0.17330370  0.86533788  1
  O2-  O399  1  0.32928546  0.34414682  0.11133862  1
  O2-  O400  1  0.33354441  0.40785590  0.46282847  1
  O2-  O401  1  0.35804083  0.43632921  0.84896108  1
  O2-  O402  1  0.31630697  0.65799040  0.15668686  1
  O2-  O403  1  0.30410527  0.62245094  0.46685123  1
  O2-  O404  1  0.33927070  0.66164983  0.81199065  1
  O2-  O405  1  0.32483088  0.89905232  0.12026136  1
  O2-  O406  1  0.32614957  0.91874323  0.48317554  1
  O2-  O407  1  0.32821517  0.90974736  0.81944569  1
  O2-  O408  1  0.60323425  0.18378014  0.13910322  1
  O2-  O409  1  0.57946433  0.16112720  0.48271875  1
  O2-  O410  1  0.56408715  0.15739023  0.82141431  1
  O2-  O411  1  0.58101963  0.40831278  0.14327754  1
  O2-  O412  1  0.59140636  0.40908557  0.48124947  1
  O2-  O413  1  0.59741804  0.41898847  0.81434858  1
  O2-  O414  1  0.55679046  0.64654733  0.14251125  1
  O2-  O415  1  0.58386316  0.64026498  0.49781842  1
  O2-  O416  1  0.58751065  0.66576324  0.82468828  1
  O2-  O417  1  0.57410037  0.91348233  0.13661291  1
  O2-  O418  1  0.57761036  0.94231863  0.46851552  1
  O2-  O419  1  0.59280741  0.93136724  0.76836093  1
  O2-  O420  1  0.82168268  0.14927337  0.13752222  1
  O2-  O421  1  0.81122051  0.16585056  0.47947730  1
  O2-  O422  1  0.82853487  0.16119628  0.80890317  1
  O2-  O423  1  0.80422440  0.45063003  0.13274556  1
  O2-  O424  1  0.83381649  0.40840171  0.47856366  1
  O2-  O425  1  0.82702595  0.40438241  0.80513702  1
  O2-  O426  1  0.80719731  0.69211374  0.12991565  1
  O2-  O427  1  0.87256718  0.68533990  0.46549725  1
  O2-  O428  1  0.83846016  0.65938669  0.88242615  1
  O2-  O429  1  0.81827920  0.90291624  0.19569143  1
  O2-  O430  1  0.82863685  0.91102535  0.48421026  1
  O2-  O431  1  0.89003007  0.95010461  0.80695601  1
  O2-  O432  1  0.17316372  0.08513403  0.17792143  1
  O2-  O433  1  0.16671134  0.07473958  0.51430611  1
  O2-  O434  1  0.15122913  0.07617027  0.85144247  1
  O2-  O435  1  0.23860158  0.40357513  0.19378706  1
  O2-  O436  1  0.15636554  0.38005490  0.51306125  1
  O2-  O437  1  0.14684934  0.31212643  0.83358482  1
  O2-  O438  1  0.16926213  0.59076917  0.19400075  1
  O2-  O439  1  0.15409489  0.55421541  0.52521963  1
  O2-  O440  1  0.16263555  0.57450742  0.84954260  1
  O2-  O441  1  0.15861080  0.81991566  0.17836736  1
  O2-  O442  1  0.16252342  0.82640290  0.52406197  1
  O2-  O443  1  0.15944094  0.81996453  0.85377123  1
  O2-  O444  1  0.43884637  0.13747260  0.18090985  1
  O2-  O445  1  0.41440381  0.08184137  0.52379883  1
  O2-  O446  1  0.40643071  0.07097380  0.87559391  1
  O2-  O447  1  0.43194125  0.33942861  0.20653418  1
  O2-  O448  1  0.42768751  0.35387864  0.51691137  1
  O2-  O449  1  0.44476632  0.34973147  0.86974042  1
  O2-  O450  1  0.38930963  0.56827728  0.18227957  1
  O2-  O451  1  0.42763961  0.61204947  0.52980953  1
  O2-  O452  1  0.43422217  0.60990254  0.86304822  1
  O2-  O453  1  0.41474481  0.83304528  0.18864635  1
  O2-  O454  1  0.45223925  0.91930732  0.55086224  1
  O2-  O455  1  0.43678950  0.84091031  0.80984877  1
  O2-  O456  1  0.65889523  0.07489175  0.18362780  1
  O2-  O457  1  0.66662548  0.09052554  0.52035858  1
  O2-  O458  1  0.66139930  0.08230077  0.84081606  1
  O2-  O459  1  0.67031009  0.33392622  0.18845390  1
  O2-  O460  1  0.66887485  0.32107234  0.52506161  1
  O2-  O461  1  0.66504052  0.32432944  0.84966485  1
  O2-  O462  1  0.65581465  0.57334395  0.18827721  1
  O2-  O463  1  0.68174711  0.56436583  0.53239215  1
  O2-  O464  1  0.66526021  0.59576861  0.86702450  1
  O2-  O465  1  0.64638716  0.81949099  0.16835865  1
  O2-  O466  1  0.66713012  0.80115811  0.54394774  1
  O2-  O467  1  0.66388029  0.84125352  0.85712373  1
  O2-  O468  1  0.89905970  0.04840012  0.13119927  1
  O2-  O469  1  0.90438210  0.06465458  0.52234064  1
  O2-  O470  1  0.86623922  0.05418816  0.86132918  1
  O2-  O471  1  0.91250246  0.30948088  0.18104961  1
  O2-  O472  1  0.91120654  0.32408919  0.51749052  1
  O2-  O473  1  0.90675003  0.32099862  0.84714419  1
  O2-  O474  1  0.92014339  0.58165913  0.19806252  1
  O2-  O475  1  0.91234621  0.57168708  0.51740469  1
  O2-  O476  1  0.92380534  0.56293909  0.85858678  1
  O2-  O477  1  0.92527238  0.83665326  0.18971601  1
  O2-  O478  1  0.94672226  0.89017525  0.54018104  1
  O2-  O479  1  0.92400394  0.85042358  0.85649552  1
  O2-  O480  1  0.15930268  0.08397222  0.30225417  1
  O2-  O481  1  0.14927028  0.06959137  0.63777028  1
  O2-  O482  1  0.14644561  0.06752587  0.97490958  1
  O2-  O483  1  0.23437788  0.37329125  0.32516832  1
  O2-  O484  1  0.13802507  0.32198337  0.62986167  1
  O2-  O485  1  0.15778642  0.33452937  0.98465201  1
  O2-  O486  1  0.17635839  0.58536729  0.31264451  1
  O2-  O487  1  0.16135067  0.56513963  0.64193554  1
  O2-  O488  1  0.19487895  0.57749442  0.97714871  1
  O2-  O489  1  0.19392538  0.88024875  0.29958264  1
  O2-  O490  1  0.16394560  0.82817788  0.64810631  1
  O2-  O491  1  0.15853374  0.82505583  0.97645294  1
  O2-  O492  1  0.41503768  0.08137770  0.31415795  1
  O2-  O493  1  0.41457485  0.07932841  0.64757494  1
  O2-  O494  1  0.41416885  0.07390484  0.94242508  1
  O2-  O495  1  0.41420221  0.32282439  0.32296147  1
  O2-  O496  1  0.40581168  0.32325876  0.65749651  1
  O2-  O497  1  0.37762898  0.38317494  0.98688672  1
  O2-  O498  1  0.41368550  0.57072881  0.30404672  1
  O2-  O499  1  0.40375814  0.57303833  0.65137935  1
  O2-  O500  1  0.43522799  0.61208600  0.98760148  1
  O2-  O501  1  0.41766532  0.83439238  0.31342160  1
  O2-  O502  1  0.43241743  0.85369017  0.65797849  1
  O2-  O503  1  0.40956843  0.82103647  0.98210860  1
  O2-  O504  1  0.64223536  0.07867174  0.30900196  1
  O2-  O505  1  0.66085056  0.08609538  0.65221304  1
  O2-  O506  1  0.65571313  0.07413122  0.96744864  1
  O2-  O507  1  0.65711829  0.33146476  0.31396903  1
  O2-  O508  1  0.66856383  0.32738093  0.64894682  1
  O2-  O509  1  0.66318939  0.33696466  0.97016674  1
  O2-  O510  1  0.66555873  0.57798776  0.31446343  1
  O2-  O511  1  0.67582947  0.58306008  0.65426895  1
  O2-  O512  1  0.66001271  0.58274950  0.97979957  1
  O2-  O513  1  0.68616674  0.82727589  0.28366428  1
  O2-  O514  1  0.66358126  0.82585379  0.66063287  1
  O2-  O515  1  0.68246619  0.84166543  0.98965021  1
  O2-  O516  1  0.96594757  0.11508927  0.37886062  1
  O2-  O517  1  0.89887085  0.06588751  0.64600533  1
  O2-  O518  1  0.91552825  0.09200688  0.97451067  1
  O2-  O519  1  0.88692579  0.31449051  0.31122275  1
  O2-  O520  1  0.91254544  0.32869990  0.64513978  1
  O2-  O521  1  0.87983050  0.30705835  0.97022286  1
  O2-  O522  1  0.89985237  0.57050642  0.30748108  1
  O2-  O523  1  0.91314810  0.57225380  0.63982200  1
  O2-  O524  1  0.92788991  0.58018324  0.98008287  1
  O2-  O525  1  0.91266980  0.83058914  0.31356682  1
  O2-  O526  1  0.91159140  0.82766257  0.65696983  1
  O2-  O527  1  0.91160688  0.83488246  0.97968815  1
  O2-  O528  1  0.07898774  0.16300183  0.01697161  1
  O2-  O529  1  0.12270433  0.20185141  0.32060194  1
  O2-  O530  1  0.06766699  0.15325206  0.67825008  1
  O2-  O531  1  0.18178858  0.46520728  0.05436019  1
  O2-  O532  1  0.13203170  0.42544359  0.37316575  1
  O2-  O533  1  0.07368269  0.40985091  0.68672258  1
  O2-  O534  1  0.08484394  0.65672004  0.02604985  1
  O2-  O535  1  0.10307086  0.67505523  0.36347051  1
  O2-  O536  1  0.08252901  0.65986447  0.68264675  1
  O2-  O537  1  0.07724260  0.90737700  0.02152624  1
  O2-  O538  1  0.07592571  0.91700928  0.35475175  1
  O2-  O539  1  0.07905986  0.90922036  0.68989218  1
  O2-  O540  1  0.31601438  0.14480200  -0.01274629  1
  O2-  O541  1  0.34490888  0.16574351  0.36991862  1
  O2-  O542  1  0.31620337  0.15343092  0.68086700  1
  O2-  O543  1  0.30369761  0.35359455  -0.05341077  1
  O2-  O544  1  0.32228241  0.40726037  0.34889260  1
  O2-  O545  1  0.31237749  0.40234099  0.67131215  1
  O2-  O546  1  0.33912893  0.68536653  0.04541786  1
  O2-  O547  1  0.33901657  0.65767790  0.34407169  1
  O2-  O548  1  0.31938644  0.67321832  0.69768176  1
  O2-  O549  1  0.33265322  0.91992873  -0.00157990  1
  O2-  O550  1  0.33626703  0.91366947  0.35844710  1
  O2-  O551  1  0.32771364  0.91714937  0.69530225  1
  O2-  O552  1  0.59678921  0.17717462  0.02162926  1
  O2-  O553  1  0.57439685  0.16764214  0.35790427  1
  O2-  O554  1  0.57452538  0.16569189  0.69656826  1
  O2-  O555  1  0.58527764  0.41590491  0.01268591  1
  O2-  O556  1  0.58051184  0.41664473  0.35864797  1
  O2-  O557  1  0.59105102  0.41183605  0.68364765  1
  O2-  O558  1  0.59384319  0.67201123  0.02731319  1
  O2-  O559  1  0.58494580  0.67559655  0.33257454  1
  O2-  O560  1  0.58187918  0.65582415  0.69196106  1
  O2-  O561  1  0.57866516  0.91126323  0.01216945  1
  O2-  O562  1  0.57368295  0.93247432  0.35628377  1
  O2-  O563  1  0.59088241  0.92633426  0.70162570  1
  O2-  O564  1  0.81767073  0.15391873  0.01467360  1
  O2-  O565  1  0.85568667  0.16217387  0.36361018  1
  O2-  O566  1  0.83037748  0.16167931  0.68527631  1
  O2-  O567  1  0.82807103  0.41323210  0.01581078  1
  O2-  O568  1  0.81683193  0.41276337  0.35350660  1
  O2-  O569  1  0.83229669  0.41040041  0.68429104  1
  O2-  O570  1  0.83908084  0.66499017  0.01943637  1
  O2-  O571  1  0.83408302  0.66234317  0.34841785  1
  O2-  O572  1  0.84472719  0.65504590  0.68766721  1
  O2-  O573  1  0.84682699  0.93568215  0.02671238  1
  O2-  O574  1  0.85151700  0.93350744  0.36477936  1
  O2-  O575  1  0.82506228  0.90638135  0.69492900  1
