# generated using pymatgen
data_H2O
_symmetry_space_group_name_H-M   'P 1'
_cell_length_a   17.99784233
_cell_length_b   17.99971677
_cell_length_c   22.00638847
_cell_angle_alpha   89.98693834
_cell_angle_beta   90.01240654
_cell_angle_gamma   119.99037662
_symmetry_Int_Tables_number   1
_chemical_formula_structural   H2O
_chemical_formula_sum   'H384 O192'
_cell_volume   6174.58271260
_cell_formula_units_Z   192
loop_
 _symmetry_equiv_pos_site_id
 _symmetry_equiv_pos_as_xyz
  1  'x, y, z'
loop_
 _atom_type_symbol
 _atom_type_oxidation_number
  H+  1.0
  O2-  -2.0
loop_
 _atom_site_type_symbol
 _atom_site_label
 _atom_site_symmetry_multiplicity
 _atom_site_fract_x
 _atom_site_fract_y
 _atom_site_fract_z
 _atom_site_occupancy
  H+  H0  1  0.36104006  0.47578672  0.32279149  1
  H+  H1  1  0.62967560  0.85858977  -0.00275385  1
  H+  H2  1  0.71378168  0.36171221  0.50042302  1
  H+  H3  1  0.72478003  0.36111256  0.32634045  1
  H+  H4  1  0.47289353  0.11415115  0.49814483  1
  H+  H5  1  0.36121067  0.97778437  0.48943688  1
  H+  H6  1  0.64053799  0.61726900  0.83984987  1
  H+  H7  1  0.88516387  0.35501278  -0.00614753  1
  H+  H8  1  0.23039885  0.35888789  0.66931796  1
  H+  H9  1  0.96924867  0.10445649  0.98976328  1
  H+  H10  1  0.08946239  0.91097453  0.39300017  1
  H+  H11  1  0.36397664  0.13677184  0.33680340  1
  H+  H12  1  0.97381873  0.10669560  0.50474675  1
  H+  H13  1  0.08121106  0.45558782  0.15887850  1
  H+  H14  1  0.63790488  0.77637712  0.83842661  1
  H+  H15  1  0.73197516  0.62278273  0.83498348  1
  H+  H16  1  0.66403506  0.37563713  0.83972919  1
  H+  H17  1  0.35307246  0.64660522  1.01703063  1
  H+  H18  1  0.70019659  0.57009080  0.55849562  1
  H+  H19  1  0.23408390  0.62798430  0.84189183  1
  H+  H20  1  0.61176350  0.38625833  0.16074087  1
  H+  H21  1  0.89750044  0.82936691  0.36162814  1
  H+  H22  1  0.88145415  0.64940670  0.67960056  1
  H+  H23  1  0.39073952  0.61461355  0.65887167  1
  H+  H24  1  0.88512342  0.78665085  1.00183559  1
  H+  H25  1  -0.05204359  0.56499742  0.53738698  1
  H+  H26  1  0.85616725  0.46667130  0.00534539  1
  H+  H27  1  0.00644267  0.20993934  0.04046085  1
  H+  H28  1  0.72483332  0.61266168  0.17345610  1
  H+  H29  1  0.37445412  0.63459337  0.49656072  1
  H+  H30  1  0.87792870  0.66168138  0.01433991  1
  H+  H31  1  0.87590607  0.71232705  0.33083910  1
  H+  H32  1  0.45489270  0.61225069  0.31229077  1
  H+  H33  1  0.36991132  0.36822007  0.82999350  1
  H+  H34  1  0.47688852  0.86763525  0.50698765  1
  H+  H35  1  0.36241292  0.22515441  0.33757529  1
  H+  H36  1  0.72352589  0.86914976  0.33311301  1
  H+  H37  1  0.77202395  0.37613098  0.00771931  1
  H+  H38  1  0.89296936  0.76636324  0.49901120  1
  H+  H39  1  0.36465593  0.23023838  0.16908508  1
  H+  H40  1  0.62873315  0.26802276  0.50042129  1
  H+  H41  1  0.87106086  0.39554908  0.66471605  1
  H+  H42  1  0.72896650  0.37192674  0.65212563  1
  H+  H43  1  0.48569947  0.10470715  0.65175168  1
  H+  H44  1  0.47168280  0.81682282  0.16918884  1
  H+  H45  1  0.87356492  0.26006764  0.17687927  1
  H+  H46  1  0.13453427  0.11260836  0.84625337  1
  H+  H47  1  0.45861630  0.54033246  0.87312629  1
  H+  H48  1  0.21952410  0.61797828  0.00707949  1
  H+  H49  1  0.97478910  0.35731481  0.65787727  1
  H+  H50  1  0.83412562  0.42624368  0.39582732  1
  H+  H51  1  0.81116516  0.17177106  0.41211301  1
  H+  H52  1  0.61247370  0.89295811  0.49591498  1
  H+  H53  1  0.08531214  0.67075854  0.37415232  1
  H+  H54  1  0.14085373  0.33149528  0.52171843  1
  H+  H55  1  -0.02741011  0.87014426  0.64912667  1
  H+  H56  1  0.75919660  0.20970218  0.38221186  1
  H+  H57  1  0.76803131  0.12703007  0.82721397  1
  H+  H58  1  0.77074685  0.90658996  0.68118496  1
  H+  H59  1  0.61469662  0.63502617  0.67006094  1
  H+  H60  1  0.38477374  1.02462097  0.32761987  1
  H+  H61  1  0.69462487  0.83059255  0.59502319  1
  H+  H62  1  0.12809839  0.34912273  0.84856496  1
  H+  H63  1  0.88251360  0.14413886  1.01331850  1
  H+  H64  1  0.13105529  0.35929792  0.17439649  1
  H+  H65  1  0.01805732  0.12878845  0.82930399  1
  H+  H66  1  0.26994835  0.14518722  0.67080186  1
  H+  H67  1  1.00265703  0.36361305  0.16045708  1
  H+  H68  1  0.16366865  0.83725737  0.90002138  1
  H+  H69  1  0.17446701  0.65472983  0.49561900  1
  H+  H70  1  0.11872201  0.89781338  0.82617908  1
  H+  H71  1  0.28587050  0.63438774  0.49808930  1
  H+  H72  1  0.45098042  0.36484686  0.80826689  1
  H+  H73  1  0.33164143  0.16272381  0.42962341  1
  H+  H74  1  0.04566194  0.58909040  0.53490647  1
  H+  H75  1  0.61062921  0.63566127  0.16225857  1
  H+  H76  1  0.39018321  0.12201473  0.83788743  1
  H+  H77  1  0.39516240  1.01771343  0.65364937  1
  H+  H78  1  0.47823016  0.61182006  0.66052689  1
  H+  H79  1  0.55979691  0.64399326  0.37166569  1
  H+  H80  1  0.39129653  0.77663387  0.50665304  1
  H+  H81  1  0.86064669  0.88876860  0.81664883  1
  H+  H82  1  0.91888382  0.08898804  0.60037268  1
  H+  H83  1  0.34350411  0.47250955  0.82785998  1
  H+  H84  1  0.37375079  0.73314107  0.67169162  1
  H+  H85  1  0.62015063  0.23016468  0.16052896  1
  H+  H86  1  0.87324817  0.62148204  0.32543335  1
  H+  H87  1  0.59565928  0.64129480  0.01191383  1
  H+  H88  1  0.63673864  0.02129816  0.84275424  1
  H+  H89  1  0.98197180  0.60486710  0.30906471  1
  H+  H90  1  0.33116377  0.88879605  0.12547766  1
  H+  H91  1  0.01980339  0.38181472  0.33335198  1
  H+  H92  1  0.63971217  0.77195330  0.17912525  1
  H+  H93  1  0.37378270  0.05374902  0.98712068  1
  H+  H94  1  0.58798199  0.16842808  0.10055567  1
  H+  H95  1  0.41059137  0.30841881  0.98741931  1
  H+  H96  1  0.74423451  0.63021292  0.65376152  1
  H+  H97  1  -0.02001681  0.12030358  0.65961436  1
  H+  H98  1  0.34254400  0.62093323  0.33811034  1
  H+  H99  1  0.10750262  0.47999134  0.00447959  1
  H+  H100  1  0.88284665  0.77259538  0.17982425  1
  H+  H101  1  0.52923316  0.14426654  0.82723882  1
  H+  H102  1  0.11597509  0.37061172  0.67606216  1
  H+  H103  1  0.14636195  0.77626063  0.31181271  1
  H+  H104  1  0.62226913  0.72419815  0.66974183  1
  H+  H105  1  0.13703213  0.27391455  0.17647283  1
  H+  H106  1  0.08591575  0.66701998  0.10028502  1
  H+  H107  1  0.88448607  0.02093453  0.84118716  1
  H+  H108  1  0.23036522  0.11436522  0.14820968  1
  H+  H109  1  0.13501529  1.02628628  0.32470860  1
  H+  H110  1  0.61238482  0.98743836  0.67355469  1
  H+  H111  1  0.02652727  0.87873068  0.48425319  1
  H+  H112  1  0.61493674  0.90091558  0.67609004  1
  H+  H113  1  0.88723071  0.36676382  0.32734753  1
  H+  H114  1  0.60304150  0.37176041  0.49045974  1
  H+  H115  1  0.14022167  0.84522544  0.51140577  1
  H+  H116  1  0.01772363  0.62926909  0.01020687  1
  H+  H117  1  0.22526876  0.10403731  0.50234883  1
  H+  H118  1  0.40514954  0.82397690  0.26767983  1
  H+  H119  1  0.36882908  0.96237530  0.17288143  1
  H+  H120  1  0.63485386  0.35926945  0.32510048  1
  H+  H121  1  0.52073734  0.13235955  0.33667170  1
  H+  H122  1  0.46651618  0.86316657  0.32460643  1
  H+  H123  1  0.47771744  0.61572382  0.17093131  1
  H+  H124  1  0.35762328  0.22875009  0.82716039  1
  H+  H125  1  0.74592155  0.36374204  0.84054327  1
  H+  H126  1  0.81254459  0.55363925  0.96875690  1
  H+  H127  1  0.98791853  0.12374218  0.33313987  1
  H+  H128  1  0.64082847  0.11246058  0.84148927  1
  H+  H129  1  0.53011263  0.64549832  0.82371346  1
  H+  H130  1  0.37975780  0.53567331  1.00089018  1
  H+  H131  1  0.11248277  0.13288660  0.67150101  1
  H+  H132  1  0.11125323  0.76644000  0.66146610  1
  H+  H133  1  0.13465345  0.02457783  0.65761281  1
  H+  H134  1  0.11640549  0.45912642  0.67703741  1
  H+  H135  1  0.26805824  0.38140212  0.32888989  1
  H+  H136  1  0.53079576  0.88811109  1.00420132  1
  H+  H137  1  0.46905954  0.35234843  0.49308527  1
  H+  H138  1  0.32746578  0.17055969  0.73007242  1
  H+  H139  1  0.09835909  0.41645917  0.49041940  1
  H+  H140  1  0.72452424  0.86521944  0.84430610  1
  H+  H141  1  0.32625648  0.91577397  0.39326573  1
  H+  H142  1  0.35862541  0.92387825  0.02373715  1
  H+  H143  1  0.77030196  0.88632796  0.16602340  1
  H+  H144  1  0.86267235  0.90646583  0.32781710  1
  H+  H145  1  0.12021832  0.85757421  0.17189459  1
  H+  H146  1  0.13130718  0.63289351  0.65490647  1
  H+  H147  1  0.86341743  0.63741275  0.16204380  1
  H+  H148  1  0.27199635  0.38977645  0.16079746  1
  H+  H149  1  0.35998361  0.48008898  0.15755382  1
  H+  H150  1  0.60345366  0.96594295  0.33643887  1
  H+  H151  1  0.55856204  0.39583326  0.85103008  1
  H+  H152  1  0.65813038  0.61780114  0.33323203  1
  H+  H153  1  0.89130592  0.77813649  0.65029597  1
  H+  H154  1  -0.02343157  0.62334255  0.84341656  1
  H+  H155  1  -0.02935434  0.34580231  0.84414137  1
  H+  H156  1  0.11276697  0.13683046  0.15159920  1
  H+  H157  1  0.36347502  0.38749930  0.68093328  1
  H+  H158  1  0.48113756  0.11504825  0.17534377  1
  H+  H159  1  0.65339938  0.82313288  0.93741391  1
  H+  H160  1  0.11694165  0.22558365  0.34137588  1
  H+  H161  1  0.11619101  0.20812748  0.49948133  1
  H+  H162  1  0.36467327  0.76559287  0.84076859  1
  H+  H163  1  0.62057472  -0.02324357  1.01034617  1
  H+  H164  1  0.72957432  0.11550914  0.16673350  1
  H+  H165  1  0.46842874  0.62528315  0.00211537  1
  H+  H166  1  1.02029597  0.88846279  1.01192646  1
  H+  H167  1  0.37142123  0.63048280  0.82251328  1
  H+  H168  1  0.63238808  0.65124520  0.52591430  1
  H+  H169  1  0.10756561  0.21645114  0.83067505  1
  H+  H170  1  0.62244518  0.10239523  0.31619620  1
  H+  H171  1  0.62138241  0.22923951  0.82749848  1
  H+  H172  1  0.09978533  0.50234593  0.48472695  1
  H+  H173  1  0.61542458  0.47521778  0.33650082  1
  H+  H174  1  0.86169340  0.64073442  0.82266058  1
  H+  H175  1  0.10989761  0.88912286  0.67332615  1
  H+  H176  1  0.88388379  1.01973528  0.50696118  1
  H+  H177  1  0.98007934  0.36698608  0.99033667  1
  H+  H178  1  0.84653663  0.16744201  0.10600378  1
  H+  H179  1  0.53360616  0.40515016  0.00353311  1
  H+  H180  1  0.86401955  0.14373264  0.67157008  1
  H+  H181  1  0.39287657  0.11600485  0.17583065  1
  H+  H182  1  0.02381548  0.13531845  0.16843210  1
  H+  H183  1  0.23483762  0.86868620  0.31659213  1
  H+  H184  1  0.13333038  0.09732946  0.50154573  1
  H+  H185  1  0.98784735  0.85964491  0.33088075  1
  H+  H186  1  0.90271422  0.13139341  0.33269286  1
  H+  H187  1  0.11861695  0.88631609  0.33019697  1
  H+  H188  1  0.38792816  0.36919642  0.17405510  1
  H+  H189  1  0.61708662  0.23237858  0.67189717  1
  H+  H190  1  0.86503457  0.89143282  0.01476305  1
  H+  H191  1  0.61219993  0.13737063  0.49168700  1
  H+  H192  1  0.83940030  0.54567607  0.48865568  1
  H+  H193  1  0.23892818  0.36501740  0.99774429  1
  H+  H194  1  0.61094666  0.89041169  0.83122001  1
  H+  H195  1  0.12091947  0.65554978  0.82783178  1
  H+  H196  1  0.52562476  0.13765361  0.00719792  1
  H+  H197  1  0.36024178  0.89111654  0.33266949  1
  H+  H198  1  0.38638799  0.82432065  1.00346058  1
  H+  H199  1  -0.00348955  0.86538739  0.84778014  1
  H+  H200  1  0.27230806  0.13776665  0.83177744  1
  H+  H201  1  0.36468147  0.89058404  0.49084913  1
  H+  H202  1  0.13024120  0.51801295  0.31773780  1
  H+  H203  1  0.37696710  0.36267132  0.49626521  1
  H+  H204  1  0.66621096  0.58172037  0.23239711  1
  H+  H205  1  0.35841304  0.47660925  0.67777042  1
  H+  H206  1  0.11771641  0.63375722  0.32099329  1
  H+  H207  1  0.83108427  0.40901188  0.09958251  1
  H+  H208  1  0.41613722  0.83628673  0.60111934  1
  H+  H209  1  0.93625618  0.46782595  0.78387608  1
  H+  H210  1  0.69572014  0.57217303  0.92860275  1
  H+  H211  1  0.23335707  0.85935779  0.51438330  1
  H+  H212  1  0.28316528  0.64914955  0.67132643  1
  H+  H213  1  0.95795735  0.37439941  0.50401719  1
  H+  H214  1  0.63783989  0.12053232  0.66218114  1
  H+  H215  1  0.13116205  0.01954253  1.00209623  1
  H+  H216  1  0.72812159  0.86896426  0.50425462  1
  H+  H217  1  0.36721686  0.38262563  0.32754599  1
  H+  H218  1  0.86793138  0.73124931  0.82603973  1
  H+  H219  1  0.10893354  0.63331397  1.00729501  1
  H+  H220  1  0.86503911  0.47509621  0.33204462  1
  H+  H221  1  0.59672897  0.45741747  0.49249192  1
  H+  H222  1  0.22091032  0.60580020  0.32877383  1
  H+  H223  1  0.62858040  0.85567494  0.33434526  1
  H+  H224  1  0.26831804  0.88116505  0.68017843  1
  H+  H225  1  0.88255048  0.27303608  0.65989575  1
  H+  H226  1  0.85993731  0.88674492  0.16558811  1
  H+  H227  1  0.58019909  0.41222340  0.39425685  1
  H+  H228  1  0.60409253  0.73616024  0.00820871  1
  H+  H229  1  0.63746992  0.12546262  0.16572262  1
  H+  H230  1  0.61050392  -0.01929565  0.49527582  1
  H+  H231  1  0.47615137  0.36923221  0.32702293  1
  H+  H232  1  0.13989343  0.36451474  0.32762054  1
  H+  H233  1  0.12531179  0.76429800  0.16886102  1
  H+  H234  1  0.86484530  0.98440542  0.01086730  1
  H+  H235  1  0.27363395  0.90168904  0.82954396  1
  H+  H236  1  0.17196325  0.08352469  0.09095334  1
  H+  H237  1  0.36384610  0.13699088  0.49092417  1
  H+  H238  1  0.36956297  0.46997330  0.50111865  1
  H+  H239  1  0.28013833  0.37917513  0.50536618  1
  H+  H240  1  0.72563688  0.11741872  0.66112522  1
  H+  H241  1  0.47530871  0.86849990  0.66084009  1
  H+  H242  1  0.63898078  0.35949256  0.99312693  1
  H+  H243  1  0.06851475  0.18712624  0.07744268  1
  H+  H244  1  0.86195738  0.87939234  0.49049461  1
  H+  H245  1  0.91131375  0.32322310  0.90351447  1
  H+  H246  1  0.63968863  0.78113424  0.51250832  1
  H+  H247  1  0.21308082  0.71364661  0.63308229  1
  H+  H248  1  0.61129425  0.22053061  0.33443048  1
  H+  H249  1  0.12650225  0.76771407  -0.00715237  1
  H+  H250  1  0.84926938  1.00315811  0.68513638  1
  H+  H251  1  0.46870014  0.36965566  0.67075896  1
  H+  H252  1  0.47725724  0.36860117  0.17417149  1
  H+  H253  1  0.78745762  0.64821307  0.00943001  1
  H+  H254  1  0.35957876  0.18753683  0.10625814  1
  H+  H255  1  0.89335409  0.53247511  0.83918259  1
  H+  H256  1  0.87798673  0.27551889  0.33259360  1
  H+  H257  1  0.19611122  0.56745796  0.16926899  1
  H+  H258  1  0.88606647  0.02262121  0.18074466  1
  H+  H259  1  0.13512082  0.78362988  0.83798324  1
  H+  H260  1  0.35024391  0.84720278  0.84594689  1
  H+  H261  1  0.73813193  0.60485273  0.32235692  1
  H+  H262  1  0.61307887  0.47617965  0.16079138  1
  H+  H263  1  0.85643370  0.21581490  0.82836022  1
  H+  H264  1  0.12299401  0.64576068  0.16065486  1
  H+  H265  1  0.25980034  0.85855505  1.01584985  1
  H+  H266  1  0.86394309  0.13660538  0.49697128  1
  H+  H267  1  0.11452668  0.13434103  0.33988095  1
  H+  H268  1  0.36763255  0.40221186  0.00458676  1
  H+  H269  1  0.71011513  0.10376795  0.32058483  1
  H+  H270  1  0.75563034  0.80299577  0.62721098  1
  H+  H271  1  0.91919796  0.84669068  0.94280390  1
  H+  H272  1  0.60558616  0.38498621  0.67420078  1
  H+  H273  1  0.10563682  0.46004220  0.82833125  1
  H+  H274  1  0.30644242  0.68510575  0.17630980  1
  H+  H275  1  0.10930567  0.97253341  0.15490417  1
  H+  H276  1  0.12296043  0.10305308  0.99842994  1
  H+  H277  1  0.48439155  0.60799640  0.51292671  1
  H+  H278  1  0.97573861  0.60798810  0.16502115  1
  H+  H279  1  0.41798384  0.08003766  0.55875343  1
  H+  H280  1  0.64226288  0.10835585  -0.00233842  1
  H+  H281  1  0.72338619  0.11329636  0.51079182  1
  H+  H282  1  0.11475979  0.98452922  0.82932740  1
  H+  H283  1  0.35737012  0.88142674  0.67774076  1
  H+  H284  1  0.66758861  0.51132605  0.98831063  1
  H+  H285  1  0.90102784  0.24111325  1.01621732  1
  H+  H286  1  0.63225168  0.48838606  0.83220194  1
  H+  H287  1  0.86494695  0.99304046  0.34180016  1
  H+  H288  1  0.41798857  0.33898706  0.26612799  1
  H+  H289  1  0.88525339  0.51834650  0.16323016  1
  H+  H290  1  0.31909573  0.41807970  0.76413804  1
  H+  H291  1  0.57709652  0.91498029  0.39975103  1
  H+  H292  1  0.60255361  0.87233131  0.15877150  1
  H+  H293  1  0.07815813  0.90874183  0.07098491  1
  H+  H294  1  0.42457099  0.35966627  0.92484298  1
  H+  H295  1  0.85778934  0.38003581  0.16096191  1
  H+  H296  1  0.92297362  0.54386554  0.68372676  1
  H+  H297  1  0.66595065  0.33173321  0.23153718  1
  H+  H298  1  0.14087625  0.26508337  0.66963564  1
  H+  H299  1  0.66159481  0.08608268  0.56851210  1
  H+  H300  1  0.07472521  0.41372913  0.05952809  1
  H+  H301  1  0.39459369  0.62721768  0.17063211  1
  H+  H302  1  0.39152255  0.03322438  0.84064770  1
  H+  H303  1  0.89513350  0.57769080  0.93069530  1
  H+  H304  1  0.58817150  0.17339854  0.73205542  1
  H+  H305  1  0.22268713  0.11425601  0.32688068  1
  H+  H306  1  1.01675602  0.88621432  0.16831009  1
  H+  H307  1  0.34200636  0.65884352  0.76236614  1
  H+  H308  1  0.13228396  0.85913564  -0.00354803  1
  H+  H309  1  0.83107796  0.16728966  0.73224659  1
  H+  H310  1  0.91021301  0.83192989  0.23881798  1
  H+  H311  1  0.83554665  0.92460046  0.07886874  1
  H+  H312  1  0.21869457  0.35475704  0.84206719  1
  H+  H313  1  0.78384196  0.63451411  0.47334906  1
  H+  H314  1  0.16627238  0.83276755  0.23106202  1
  H+  H315  1  0.58741710  0.66836163  0.76349605  1
  H+  H316  1  0.86053473  0.22531830  0.50034630  1
  H+  H317  1  0.07846826  0.42323814  0.39116059  1
  H+  H318  1  0.91578952  0.57097797  0.25280952  1
  H+  H319  1  0.24487960  0.70738654  0.87313196  1
  H+  H320  1  0.07019173  0.66319897  0.76991622  1
  H+  H321  1  0.08225526  0.15815518  0.73376850  1
  H+  H322  1  0.61540482  0.22445771  1.00719795  1
  H+  H323  1  0.90590107  0.33882878  0.56591165  1
  H+  H324  1  0.11319492  0.70196064  0.44886523  1
  H+  H325  1  0.82207485  0.93172319  0.77050583  1
  H+  H326  1  0.01908247  0.62934794  0.61782913  1
  H+  H327  1  0.07132543  0.70269198  0.44902716  1
  H+  H328  1  0.91803294  0.82838136  0.55715864  1
  H+  H329  1  0.17236860  0.32624890  0.93309667  1
  H+  H330  1  0.11659271  0.96503256  0.48668629  1
  H+  H331  1  0.90920892  0.07049633  0.92975879  1
  H+  H332  1  0.66288354  0.33464207  0.59711352  1
  H+  H333  1  0.08357692  0.15999500  0.43506620  1
  H+  H334  1  0.72550450  0.36263880  0.17185107  1
  H+  H335  1  0.63695034  0.73666605  0.35652785  1
  H+  H336  1  0.17527871  0.60378279  0.94163137  1
  H+  H337  1  0.08033602  0.92264291  0.73014675  1
  H+  H338  1  0.17551399  0.61848426  0.56110498  1
  H+  H339  1  0.32401619  0.65175623  0.40164698  1
  H+  H340  1  0.58562008  0.41854656  0.06691307  1
  H+  H341  1  0.67174492  0.08061475  0.93882158  1
  H+  H342  1  0.58447490  0.16398700  0.42919812  1
  H+  H343  1  0.18216926  0.59752279  0.23493134  1
  H+  H344  1  0.83934053  0.67800312  0.72979014  1
  H+  H345  1  0.90646102  0.32368362  0.23481421  1
  H+  H346  1  0.17616371  0.31340625  0.58138983  1
  H+  H347  1  0.58093992  0.92241829  0.77409682  1
  H+  H348  1  0.85091987  0.39905739  0.49807666  1
  H+  H349  1  0.16392042  0.08051766  0.59693894  1
  H+  H350  1  0.13179015  0.27785540  0.00312094  1
  H+  H351  1  0.33085709  0.41940763  0.06756589  1
  H+  H352  1  0.66280062  0.08302745  0.22777304  1
  H+  H353  1  0.16817454  0.08551137  0.90566328  1
  H+  H354  1  0.08064419  0.40122317  0.76938482  1
  H+  H355  1  0.85728727  0.12824673  0.16801157  1
  H+  H356  1  0.96827394  0.78561544  0.88958765  1
  H+  H357  1  0.41314657  0.18460597  0.00883992  1
  H+  H358  1  0.16345937  0.82753561  0.60595299  1
  H+  H359  1  0.88223610  0.10918739  0.84077671  1
  H+  H360  1  0.42114147  0.10252700  0.92605624  1
  H+  H361  1  0.58488446  0.41277314  0.73656887  1
  H+  H362  1  0.84601570  0.64802865  0.41979823  1
  H+  H363  1  0.40278696  0.57665036  0.25136026  1
  H+  H364  1  0.16680982  0.33410382  0.26695304  1
  H+  H365  1  0.33419637  0.92377495  0.77144010  1
  H+  H366  1  0.83593050  0.67613149  0.10709870  1
  H+  H367  1  0.61487964  0.67105844  0.45787555  1
  H+  H368  1  0.37450921  0.25964752  0.49280592  1
  H+  H369  1  0.91875836  0.08565032  0.23896312  1
  H+  H370  1  0.33583947  0.68583911  0.07644439  1
  H+  H371  1  0.40966321  0.82461310  0.93515244  1
  H+  H372  1  0.58017237  0.67153063  0.10563173  1
  H+  H373  1  0.41849155  0.58403852  0.91252214  1
  H+  H374  1  0.67438705  0.33227273  0.93481475  1
  H+  H375  1  0.41896572  0.08514089  0.26878672  1
  H+  H376  1  0.83652529  0.41841572  0.72313797  1
  H+  H377  1  0.41994019  0.57791031  0.56867615  1
  H+  H378  1  0.83437589  0.91641350  0.43389587  1
  H+  H379  1  0.37748722  0.28192961  0.66826902  1
  H+  H380  1  0.88850678  0.39110840  0.82872566  1
  H+  H381  1  0.56777740  0.89593097  0.09937497  1
  H+  H382  1  0.47326274  0.26620278  0.04769894  1
  H+  H383  1  0.66678114  0.83098556  0.23843296  1
  O2-  O384  1  0.08214776  0.17028049  0.14994871  1
  O2-  O385  1  0.07943320  0.15127965  0.48018205  1
  O2-  O386  1  0.07909593  0.15674478  0.81478070  1
  O2-  O387  1  0.06407138  0.39756259  0.14550864  1
  O2-  O388  1  0.06710661  0.44137071  0.47119245  1
  O2-  O389  1  0.07767804  0.40030843  0.81510793  1
  O2-  O390  1  0.08597378  0.66894458  0.14599664  1
  O2-  O391  1  0.00712151  0.60743309  0.55136674  1
  O2-  O392  1  0.07904615  0.67358439  0.81368212  1
  O2-  O393  1  0.07546296  0.90864632  0.15044733  1
  O2-  O394  1  0.08684097  0.90563190  0.46943877  1
  O2-  O395  1  0.08399967  0.92452778  0.81279388  1
  O2-  O396  1  0.34016278  0.17292154  0.14906173  1
  O2-  O397  1  0.33176208  0.16620102  0.47526435  1
  O2-  O398  1  0.33230674  0.16762589  0.81589882  1
  O2-  O399  1  0.33181998  0.41869901  0.14434646  1
  O2-  O400  1  0.33786503  0.40928930  0.48602043  1
  O2-  O401  1  0.31377087  0.41359181  0.81116732  1
  O2-  O402  1  0.36380219  0.70077302  0.15941339  1
  O2-  O403  1  0.34451949  0.66554483  0.48171377  1
  O2-  O404  1  0.33604826  0.65375605  0.80756107  1
  O2-  O405  1  0.34067021  0.89981891  0.16923403  1
  O2-  O406  1  0.33086597  0.91662688  0.47530946  1
  O2-  O407  1  0.33488297  0.92803237  0.81703433  1
  O2-  O408  1  0.59217077  0.16857333  0.14643436  1
  O2-  O409  1  0.58383833  0.16851460  0.47439001  1
  O2-  O410  1  0.58903446  0.17001818  0.81142939  1
  O2-  O411  1  0.58129262  0.41593536  0.14469731  1
  O2-  O412  1  0.57085604  0.40117984  0.47327332  1
  O2-  O413  1  0.60632139  0.42504447  0.82276060  1
  O2-  O414  1  0.58052845  0.66774601  0.15117759  1
  O2-  O415  1  0.59932955  0.67091040  0.50119150  1
  O2-  O416  1  0.58960497  0.66989456  0.80923031  1
  O2-  O417  1  0.55796930  0.88449784  0.14410617  1
  O2-  O418  1  0.58040479  0.92043161  0.47940775  1
  O2-  O419  1  0.58307575  0.92373577  0.81884165  1
  O2-  O420  1  0.82739878  0.15745879  0.14981162  1
  O2-  O421  1  0.83114563  0.16579185  0.48422151  1
  O2-  O422  1  0.82924924  0.15687993  0.81121738  1
  O2-  O423  1  0.83012795  0.41240748  0.14510964  1
  O2-  O424  1  0.82059238  0.42719003  0.47776583  1
  O2-  O425  1  0.88200881  0.43726574  0.80601997  1
  O2-  O426  1  0.83381940  0.67054305  0.15225365  1
  O2-  O427  1  0.84123900  0.64402439  0.46549326  1
  O2-  O428  1  0.83344810  0.67324427  0.80791379  1
  O2-  O429  1  0.83155144  0.91868910  0.14994711  1
  O2-  O430  1  0.83245801  0.91218511  0.47884635  1
  O2-  O431  1  0.83000576  0.92052494  0.81568501  1
  O2-  O432  1  0.16826201  0.08172523  0.13564631  1
  O2-  O433  1  0.16513534  0.06914009  0.51738032  1
  O2-  O434  1  0.16777449  0.08462432  0.86066880  1
  O2-  O435  1  0.16659867  0.33520419  0.19023397  1
  O2-  O436  1  0.17776931  0.30957945  0.53504810  1
  O2-  O437  1  0.16107951  0.32138398  0.86283424  1
  O2-  O438  1  0.19318711  0.61383119  0.18997115  1
  O2-  O439  1  0.16760185  0.60369662  0.51663824  1
  O2-  O440  1  0.19880169  0.64614268  0.86560676  1
  O2-  O441  1  0.15199862  0.82616374  0.18455236  1
  O2-  O442  1  0.17500922  0.82483698  0.53266649  1
  O2-  O443  1  0.16528192  0.84293366  0.85461211  1
  O2-  O444  1  0.42242970  0.08628055  0.19242235  1
  O2-  O445  1  0.41267288  0.08477130  0.51299851  1
  O2-  O446  1  0.42268424  0.09455936  0.85482753  1
  O2-  O447  1  0.41752072  0.33931287  0.19108017  1
  O2-  O448  1  0.40711724  0.32375632  0.50609440  1
  O2-  O449  1  0.40919942  0.34504924  0.84139327  1
  O2-  O450  1  0.41469090  0.58602814  0.18199865  1
  O2-  O451  1  0.42220540  0.57707594  0.52293448  1
  O2-  O452  1  0.42711019  0.57115594  0.86843842  1
  O2-  O453  1  0.42014063  0.77519683  0.19690580  1
  O2-  O454  1  0.41635881  0.83610702  0.52246351  1
  O2-  O455  1  0.34624459  0.79673181  0.86808463  1
  O2-  O456  1  0.66748361  0.09085783  0.18149262  1
  O2-  O457  1  0.66189142  0.08499400  0.52278975  1
  O2-  O458  1  0.67164934  0.08341142  0.85686612  1
  O2-  O459  1  0.66431836  0.33159894  0.18597424  1
  O2-  O460  1  0.65371016  0.32885601  0.51575889  1
  O2-  O461  1  0.68742289  0.33938336  0.85594513  1
  O2-  O462  1  0.66366846  0.58100523  0.18704698  1
  O2-  O463  1  0.70218528  0.62351596  0.57041630  1
  O2-  O464  1  0.67338128  0.58887598  0.85351446  1
  O2-  O465  1  0.67235866  0.83286197  0.19341902  1
  O2-  O466  1  0.66992302  0.84323303  0.52344668  1
  O2-  O467  1  0.66347076  0.83396388  0.85749074  1
  O2-  O468  1  0.91746130  0.08415222  0.19363050  1
  O2-  O469  1  0.91351353  0.08102833  0.51999717  1
  O2-  O470  1  0.91486920  0.08136782  0.85726860  1
  O2-  O471  1  0.90493072  0.32193210  0.18931575  1
  O2-  O472  1  0.89928175  0.33983214  0.52059629  1
  O2-  O473  1  0.91032464  0.32278319  0.85733502  1
  O2-  O474  1  0.91462543  0.57927090  0.17833639  1
  O2-  O475  1  0.84549039  0.50405650  0.51571044  1
  O2-  O476  1  0.91444895  0.59148420  0.85513319  1
  O2-  O477  1  0.91186241  0.83409657  0.19397165  1
  O2-  O478  1  0.91742373  0.82693943  0.51077692  1
  O2-  O479  1  0.94509871  0.81970538  0.87202590  1
  O2-  O480  1  0.16191678  0.08763005  0.31353636  1
  O2-  O481  1  0.16253005  0.08491765  0.64210749  1
  O2-  O482  1  0.16381340  0.08275680  0.99369041  1
  O2-  O483  1  0.17153751  0.33539124  0.31267931  1
  O2-  O484  1  0.16953055  0.32577748  0.65280952  1
  O2-  O485  1  0.17738091  0.33063277  0.97973543  1
  O2-  O486  1  0.16342166  0.57969999  0.30540311  1
  O2-  O487  1  0.18777313  0.65127654  0.63544142  1
  O2-  O488  1  0.16187059  0.58978911  0.98544292  1
  O2-  O489  1  0.17410786  0.83740204  0.29847150  1
  O2-  O490  1  0.15686472  0.82549239  0.65198490  1
  O2-  O491  1  0.16028849  0.82835178  0.97857135  1
  O2-  O492  1  0.41824725  0.08647764  0.31449929  1
  O2-  O493  1  0.43289667  0.06767782  0.62835675  1
  O2-  O494  1  0.42132778  0.10776847  0.97264492  1
  O2-  O495  1  0.41500539  0.34002979  0.31201868  1
  O2-  O496  1  0.40745627  0.34529869  0.65848540  1
  O2-  O497  1  0.42939180  0.36627747  0.96966159  1
  O2-  O498  1  0.39760786  0.57083338  0.29812584  1
  O2-  O499  1  0.41774983  0.58059142  0.64538425  1
  O2-  O500  1  0.40899653  0.59467264  0.98385013  1
  O2-  O501  1  0.40763739  0.84307358  0.30989491  1
  O2-  O502  1  0.41453852  0.83337009  0.64672597  1
  O2-  O503  1  0.43311922  0.83160449  0.97671160  1
  O2-  O504  1  0.65378420  0.07290943  0.29988134  1
  O2-  O505  1  0.66502740  0.08697479  0.64617266  1
  O2-  O506  1  0.67326540  0.07924806  0.98398656  1
  O2-  O507  1  0.66490336  0.32870597  0.31036347  1
  O2-  O508  1  0.66725131  0.33699698  0.64217754  1
  O2-  O509  1  0.66931179  0.32863368  0.98005715  1
  O2-  O510  1  0.67595564  0.58059011  0.31192236  1
  O2-  O511  1  0.68478918  0.60704291  0.63624099  1
  O2-  O512  1  0.71635667  0.56148149  0.96789721  1
  O2-  O513  1  0.66312996  0.82809541  0.32151579  1
  O2-  O514  1  0.71013005  0.81622969  0.63575590  1
  O2-  O515  1  0.65165404  0.81990305  0.98256677  1
  O2-  O516  1  0.92539942  0.09540627  0.31836172  1
  O2-  O517  1  0.91941295  0.09518487  0.64539821  1
  O2-  O518  1  0.90945220  0.06726689  0.97612654  1
  O2-  O519  1  0.91409439  0.33242765  0.31311221  1
  O2-  O520  1  0.91520710  0.33343347  0.64304687  1
  O2-  O521  1  0.91763255  0.32777560  0.97761384  1
  O2-  O522  1  0.91949693  0.57104956  0.29857985  1
  O2-  O523  1  0.95568257  0.60592187  0.69679428  1
  O2-  O524  1  0.87307659  0.56670078  0.97358082  1
  O2-  O525  1  0.92250781  0.82704674  0.32279083  1
  O2-  O526  1  0.91486566  0.83521531  0.63069191  1
  O2-  O527  1  0.91430188  0.84845878  0.98791761  1
  O2-  O528  1  0.05577770  0.19922394  0.03492409  1
  O2-  O529  1  0.08399293  0.16560164  0.35644574  1
  O2-  O530  1  0.08398754  0.16461151  0.68872035  1
  O2-  O531  1  0.07571058  0.41781797  0.01487100  1
  O2-  O532  1  0.08130905  0.41438178  0.34694623  1
  O2-  O533  1  0.08373966  0.40020790  0.69172677  1
  O2-  O534  1  0.07738464  0.66370009  0.02328932  1
  O2-  O535  1  0.08705593  0.66744681  0.32965176  1
  O2-  O536  1  0.03781696  0.64470266  0.66322234  1
  O2-  O537  1  0.08099400  0.91361758  0.02568791  1
  O2-  O538  1  0.08526445  0.91220278  0.34718713  1
  O2-  O539  1  0.08061998  0.92162399  0.68503308  1
  O2-  O540  1  0.41373292  0.23154385  0.03419684  1
  O2-  O541  1  0.33205955  0.16543646  0.35273490  1
  O2-  O542  1  0.32947614  0.18048456  0.68596308  1
  O2-  O543  1  0.32895944  0.42213486  0.02177384  1
  O2-  O544  1  0.33293350  0.41456862  0.33930571  1
  O2-  O545  1  0.32771638  0.41755490  0.69523542  1
  O2-  O546  1  0.31371909  0.66346173  0.03568760  1
  O2-  O547  1  0.30886410  0.64343231  0.35786887  1
  O2-  O548  1  0.34253358  0.67102280  0.68516975  1
  O2-  O549  1  0.31241249  0.86889357  0.03798724  1
  O2-  O550  1  0.32691628  0.91974198  0.34802411  1
  O2-  O551  1  0.32853307  0.91190306  0.69471623  1
  O2-  O552  1  0.58360343  0.16586813  0.02557162  1
  O2-  O553  1  0.58324133  0.15978350  0.34887550  1
  O2-  O554  1  0.58912926  0.17194260  0.68673040  1
  O2-  O555  1  0.58896400  0.41590689  0.02134144  1
  O2-  O556  1  0.58024503  0.41351945  0.34896782  1
  O2-  O557  1  0.57425515  0.41141335  0.69277091  1
  O2-  O558  1  0.56956536  0.67313814  0.02839371  1
  O2-  O559  1  0.62171821  0.67941794  0.37608352  1
  O2-  O560  1  0.58490236  0.66523043  0.68605344  1
  O2-  O561  1  0.58865798  0.91534456  0.02435707  1
  O2-  O562  1  0.57627884  0.90780934  0.35461265  1
  O2-  O563  1  0.58003306  0.92585219  0.68820207  1
  O2-  O564  1  0.90202447  0.19409446  0.04066823  1
  O2-  O565  1  0.79444638  0.18450604  0.37099475  1
  O2-  O566  1  0.83216136  0.17247926  0.68681834  1
  O2-  O567  1  0.83306315  0.40780008  0.02205110  1
  O2-  O568  1  0.83311231  0.41665649  0.35142797  1
  O2-  O569  1  0.84573316  0.43089624  0.67931797  1
  O2-  O570  1  0.84449987  0.68863522  0.02829787  1
  O2-  O571  1  0.84346421  0.65137059  0.34379363  1
  O2-  O572  1  0.84399657  0.67458232  0.68474719  1
  O2-  O573  1  0.83708938  0.92464994  0.03191422  1
  O2-  O574  1  0.83373467  0.93013101  0.35203154  1
  O2-  O575  1  0.80274958  0.95577565  0.70903909  1
