# generated using pymatgen
data_H2O
_symmetry_space_group_name_H-M   'P 1'
_cell_length_a   17.97903360
_cell_length_b   18.00127401
_cell_length_c   21.98585961
_cell_angle_alpha   89.98518680
_cell_angle_beta   90.02502959
_cell_angle_gamma   120.01764945
_symmetry_Int_Tables_number   1
_chemical_formula_structural   H2O
_chemical_formula_sum   'H384 O192'
_cell_volume   6161.21495960
_cell_formula_units_Z   192
loop_
 _symmetry_equiv_pos_site_id
 _symmetry_equiv_pos_as_xyz
  1  'x, y, z'
loop_
 _atom_type_symbol
 _atom_type_oxidation_number
  H+  1.0
  O2-  -2.0
loop_
 _atom_site_type_symbol
 _atom_site_label
 _atom_site_symmetry_multiplicity
 _atom_site_fract_x
 _atom_site_fract_y
 _atom_site_fract_z
 _atom_site_occupancy
  H+  H0  1  0.47686256  0.09375645  0.65476849  1
  H+  H1  1  0.83665819  0.37362261  -0.00940594  1
  H+  H2  1  0.12620096  0.23327900  0.34587928  1
  H+  H3  1  0.14774368  0.77281400  0.65362399  1
  H+  H4  1  0.48955892  0.34858718  0.82838171  1
  H+  H5  1  0.40272175  0.37007864  0.16594958  1
  H+  H6  1  0.85212572  0.22732292  0.00325589  1
  H+  H7  1  0.78874448  0.89035186  0.83406353  1
  H+  H8  1  0.63499652  0.36048105  0.17462920  1
  H+  H9  1  0.11975750  0.47198161  0.34037002  1
  H+  H10  1  0.12757221  0.39772743  0.82180113  1
  H+  H11  1  0.85396684  -0.02481456  0.15510642  1
  H+  H12  1  0.72555199  0.11006440  0.52146853  1
  H+  H13  1  0.86685958  0.27090710  0.18162334  1
  H+  H14  1  0.11568215  0.64087049  0.67390658  1
  H+  H15  1  0.39921038  1.04180736  0.32641508  1
  H+  H16  1  0.63852833  0.09922629  0.84412906  1
  H+  H17  1  0.33370484  0.17406576  0.06527001  1
  H+  H18  1  0.02988626  0.89315478  0.49361423  1
  H+  H19  1  0.37335196  0.76242659  0.16874057  1
  H+  H20  1  0.59714470  0.66978947  0.04515424  1
  H+  H21  1  -0.02275886  0.62472695  0.51243219  1
  H+  H22  1  0.83441796  0.15609792  0.60638567  1
  H+  H23  1  0.89629742  0.77518300  0.84412992  1
  H+  H24  1  0.82823543  0.42395599  0.72933618  1
  H+  H25  1  0.18809057  1.00166596  0.14481889  1
  H+  H26  1  0.09566131  0.40368861  0.01638511  1
  H+  H27  1  0.93837749  0.57884747  1.01336446  1
  H+  H28  1  0.17633132  0.84047534  0.55716928  1
  H+  H29  1  0.38966026  0.79249464  0.49350518  1
  H+  H30  1  0.88055470  0.64621206  0.16785596  1
  H+  H31  1  0.40733616  0.53672171  0.66040396  1
  H+  H32  1  0.19929541  0.32578682  0.23624960  1
  H+  H33  1  0.35845687  0.49229439  0.82367819  1
  H+  H34  1  0.32492628  -0.01418177  0.17222406  1
  H+  H35  1  1.03216405  0.38114112  0.34067674  1
  H+  H36  1  0.44776410  0.49167361  0.39905802  1
  H+  H37  1  0.60938603  0.24832691  -0.02026205  1
  H+  H38  1  0.87216474  0.27663995  0.64302660  1
  H+  H39  1  0.15630313  0.59655466  0.18151760  1
  H+  H40  1  0.17366219  0.36525791  0.07075028  1
  H+  H41  1  0.69149765  0.09366893  0.16895171  1
  H+  H42  1  0.77238750  0.88242893  0.34271834  1
  H+  H43  1  0.88664342  0.14095831  0.81566832  1
  H+  H44  1  0.40736428  0.29271933  0.32492432  1
  H+  H45  1  0.62762983  0.47850490  0.15099041  1
  H+  H46  1  0.37014757  0.47140100  0.13271904  1
  H+  H47  1  0.41541133  0.64399068  0.17753359  1
  H+  H48  1  0.58310532  0.15946874  0.73883773  1
  H+  H49  1  0.61143799  0.46615591  0.99858687  1
  H+  H50  1  0.53495434  0.39255774  0.15603460  1
  H+  H51  1  0.13210359  0.11807250  0.98954135  1
  H+  H52  1  0.00350650  0.09167048  0.32283265  1
  H+  H53  1  0.57383339  0.89780547  0.91418842  1
  H+  H54  1  0.73308177  0.20832873  0.38543653  1
  H+  H55  1  0.37048875  0.12191741  0.65709889  1
  H+  H56  1  0.61885257  0.46623074  0.81761628  1
  H+  H57  1  0.68933856  0.88713799  1.01251207  1
  H+  H58  1  0.11191939  0.22479295  0.15474025  1
  H+  H59  1  0.82873076  0.66538313  0.88876168  1
  H+  H60  1  0.40881798  0.75993345  0.99571141  1
  H+  H61  1  0.87352653  0.84660076  0.33376413  1
  H+  H62  1  0.85333454  0.63181458  -0.02116197  1
  H+  H63  1  0.39022600  1.00400860  0.65137374  1
  H+  H64  1  0.58756335  0.91780566  0.42974931  1
  H+  H65  1  0.37649091  0.37232788  -0.00859517  1
  H+  H66  1  0.86331874  -0.02385744  0.49724938  1
  H+  H67  1  0.39927636  0.62816901  0.84732126  1
  H+  H68  1  0.87811507  0.40084008  0.33776888  1
  H+  H69  1  0.25539496  0.34671554  0.48382757  1
  H+  H70  1  0.84017002  0.91729651  0.77048579  1
  H+  H71  1  0.55027070  0.64330856  0.14903564  1
  H+  H72  1  0.35405166  0.70831078  0.56154302  1
  H+  H73  1  0.48540145  0.62192954  0.84481628  1
  H+  H74  1  0.30285394  0.16394780  0.34553389  1
  H+  H75  1  0.58917663  0.40823690  0.40225519  1
  H+  H76  1  0.61630001  0.63912264  0.67712377  1
  H+  H77  1  0.17084845  0.05262377  0.34729097  1
  H+  H78  1  0.77289968  0.61850157  0.33523731  1
  H+  H79  1  0.08913123  0.64205875  0.22671217  1
  H+  H80  1  0.64580556  0.35677465  0.33228776  1
  H+  H81  1  0.06478244  0.68332304  -0.03589529  1
  H+  H82  1  -0.01443057  0.80460285  0.11634405  1
  H+  H83  1  0.01900855  0.13417392  0.49434737  1
  H+  H84  1  0.02868519  0.63798727  0.34000100  1
  H+  H85  1  0.83071062  0.08687739  0.31624110  1
  H+  H86  1  0.13698626  1.03251676  -0.00635588  1
  H+  H87  1  0.90091825  0.87611255  0.51047633  1
  H+  H88  1  0.13619542  0.76804071  0.32069498  1
  H+  H89  1  0.37353083  0.74925867  0.67350168  1
  H+  H90  1  0.85207705  0.49725638  -0.00912862  1
  H+  H91  1  0.27624200  0.87586374  0.66986750  1
  H+  H92  1  0.27837330  0.89836071  0.32183011  1
  H+  H93  1  0.60202569  0.86995123  0.66548456  1
  H+  H94  1  0.63206035  0.10355611  0.66370765  1
  H+  H95  1  0.43064352  0.07201527  0.55467324  1
  H+  H96  1  0.94948623  0.85922984  0.17711456  1
  H+  H97  1  0.37828900  0.11078806  0.99501077  1
  H+  H98  1  0.61576245  0.63530672  0.82812155  1
  H+  H99  1  0.39559922  0.14845264  0.49210268  1
  H+  H100  1  0.86341101  0.88318277  0.67786572  1
  H+  H101  1  0.66984741  0.28085874  0.33379834  1
  H+  H102  1  0.00726186  0.38143232  0.16967439  1
  H+  H103  1  0.37805900  0.21409515  0.66675865  1
  H+  H104  1  0.00814167  0.13342031  0.00174529  1
  H+  H105  1  0.26300062  0.41406542  0.81879747  1
  H+  H106  1  0.64063167  0.26701220  0.51644270  1
  H+  H107  1  0.38890807  0.61108893  0.51461990  1
  H+  H108  1  0.27147486  0.14391893  1.00613649  1
  H+  H109  1  0.13219976  1.02766419  0.50427100  1
  H+  H110  1  0.16257791  0.88833849  0.84490384  1
  H+  H111  1  0.63417929  0.73032867  0.14966621  1
  H+  H112  1  0.86946899  0.50381163  0.83950646  1
  H+  H113  1  0.12294324  -0.01921020  0.82999976  1
  H+  H114  1  0.15709384  0.13341102  0.34272029  1
  H+  H115  1  0.47700544  0.10891367  0.36445905  1
  H+  H116  1  0.17474170  0.81000248  0.99163819  1
  H+  H117  1  0.53614912  0.38518322  0.33952028  1
  H+  H118  1  0.64882942  0.51050515  0.31947259  1
  H+  H119  1  0.29009415  0.88761729  0.08562282  1
  H+  H120  1  0.92163279  0.07671174  0.57352578  1
  H+  H121  1  0.96197900  0.84536257  0.32665546  1
  H+  H122  1  0.38367527  0.52953645  0.33642380  1
  H+  H123  1  0.27816506  0.64888412  0.51666341  1
  H+  H124  1  0.80002339  0.17862183  0.09532143  1
  H+  H125  1  0.62385092  0.85062789  0.17463741  1
  H+  H126  1  0.11784619  0.73293971  0.48931225  1
  H+  H127  1  0.12634689  0.26732916  0.50923081  1
  H+  H128  1  0.38289477  0.40692077  0.67368310  1
  H+  H129  1  0.02657392  0.89411084  -0.00237477  1
  H+  H130  1  0.19611978  0.83600245  0.15896916  1
  H+  H131  1  0.15899086  0.08423233  0.56497417  1
  H+  H132  1  0.49202224  0.63144525  0.66452462  1
  H+  H133  1  0.13991858  0.25112027  0.97028643  1
  H+  H134  1  0.85599148  0.71158562  0.34184158  1
  H+  H135  1  0.74403196  0.36593672  -0.01296303  1
  H+  H136  1  1.03632307  0.14905410  0.84560905  1
  H+  H137  1  0.12515143  0.52093134  0.65373937  1
  H+  H138  1  0.74708116  0.61308444  0.15578860  1
  H+  H139  1  0.88780105  0.11337495  0.52050180  1
  H+  H140  1  0.38617023  0.50572701  -0.01143361  1
  H+  H141  1  0.85692088  0.12798994  0.29842608  1
  H+  H142  1  0.71554587  0.07733894  0.30911597  1
  H+  H143  1  0.95993867  0.36838605  0.99339084  1
  H+  H144  1  0.85737460  0.47173565  0.18212619  1
  H+  H145  1  0.47905408  0.86941159  0.85276236  1
  H+  H146  1  0.51433632  0.87815971  0.33380472  1
  H+  H147  1  0.35940810  0.86353176  0.67101400  1
  H+  H148  1  0.88733392  0.28991232  0.35079734  1
  H+  H149  1  0.61796857  0.97121119  0.86438881  1
  H+  H150  1  1.03622132  0.88796077  0.83558924  1
  H+  H151  1  0.77448030  0.88561586  0.67602659  1
  H+  H152  1  0.39032697  0.78198645  0.83959535  1
  H+  H153  1  0.68147180  0.56781757  0.25889880  1
  H+  H154  1  0.39197788  0.26658460  0.98738273  1
  H+  H155  1  0.62561212  0.77602305  0.33347521  1
  H+  H156  1  0.65377688  0.86266340  0.86577822  1
  H+  H157  1  0.20802000  0.20855336  0.20690727  1
  H+  H158  1  0.88206811  0.86605459  0.99014430  1
  H+  H159  1  0.89307135  0.31099438  0.45523332  1
  H+  H160  1  0.61647861  0.97634282  0.49053131  1
  H+  H161  1  0.50528187  0.86749261  0.15583830  1
  H+  H162  1  0.90028947  0.02597634  0.84139087  1
  H+  H163  1  0.87195728  0.11513977  0.99400716  1
  H+  H164  1  0.92123863  0.26916667  0.83438236  1
  H+  H165  1  0.72088289  0.60289230  0.83763463  1
  H+  H166  1  0.39737918  0.02378943  0.49049783  1
  H+  H167  1  0.63795196  0.11097614  0.51239978  1
  H+  H168  1  0.88898853  0.01343430  0.66948715  1
  H+  H169  1  0.14650887  0.54945061  0.83376037  1
  H+  H170  1  0.71371023  0.60149356  0.97217655  1
  H+  H171  1  0.85798595  0.40206975  0.66768673  1
  H+  H172  1  0.13109816  0.21256480  0.87177674  1
  H+  H173  1  0.71599201  0.60858014  0.66061361  1
  H+  H174  1  0.13473212  0.50004602  0.17906572  1
  H+  H175  1  0.15183989  0.63082179  -0.01071138  1
  H+  H176  1  0.63106236  0.50706796  0.50991177  1
  H+  H177  1  0.86197324  0.62479972  0.84133760  1
  H+  H178  1  0.09628720  0.42024576  0.43134815  1
  H+  H179  1  0.62653764  0.34941085  0.82654735  1
  H+  H180  1  0.20543274  0.00024126  0.11419426  1
  H+  H181  1  0.62056430  0.40502903  0.66474360  1
  H+  H182  1  0.10921970  0.84238535  0.16334563  1
  H+  H183  1  0.15148688  0.36912733  0.32624246  1
  H+  H184  1  0.89272914  0.61532619  0.33215585  1
  H+  H185  1  0.28575604  0.89823924  0.82452856  1
  H+  H186  1  0.60555358  0.87798673  0.33571058  1
  H+  H187  1  0.28034042  0.61670099  0.16227895  1
  H+  H188  1  0.76321481  0.12806173  0.65565436  1
  H+  H189  1  0.70183101  0.83674365  0.91410999  1
  H+  H190  1  0.36467903  0.61300591  0.68061830  1
  H+  H191  1  0.65257656  0.14507814  0.34738270  1
  H+  H192  1  0.41563734  0.57553018  -0.06504259  1
  H+  H193  1  0.77932227  0.39645458  0.52469002  1
  H+  H194  1  0.13336928  0.67816545  0.21933891  1
  H+  H195  1  0.49630040  0.37007676  0.67794478  1
  H+  H196  1  0.32983881  0.85995957  0.14346061  1
  H+  H197  1  0.87058999  0.73034454  0.16280595  1
  H+  H198  1  0.88342179  0.61783185  0.51275584  1
  H+  H199  1  0.89314366  0.53924026  0.66713148  1
  H+  H200  1  0.75263741  0.36407985  0.82373478  1
  H+  H201  1  0.25193901  0.34702124  0.17224611  1
  H+  H202  1  0.50182205  0.11807646  0.00297212  1
  H+  H203  1  0.36682296  0.89765888  0.47169118  1
  H+  H204  1  0.38098296  0.23669824  0.15720335  1
  H+  H205  1  0.59300234  -0.04347592  0.16160455  1
  H+  H206  1  0.36095346  0.01530559  0.99162234  1
  H+  H207  1  -0.02508983  0.11492687  0.16572952  1
  H+  H208  1  0.40157395  0.82832990  0.22447618  1
  H+  H209  1  0.28327445  0.36098157  0.98522525  1
  H+  H210  1  0.63373716  0.23840716  0.15141861  1
  H+  H211  1  0.86793866  0.48866638  0.52277833  1
  H+  H212  1  0.48069626  0.87810275  0.48756514  1
  H+  H213  1  0.03590834  0.79406148  0.71931971  1
  H+  H214  1  0.60848074  0.13896102  0.15197551  1
  H+  H215  1  0.37516006  0.88724893  0.82388712  1
  H+  H216  1  0.34084370  0.34156737  0.48829395  1
  H+  H217  1  0.87954579  0.36282919  0.19177519  1
  H+  H218  1  0.38989061  0.87577505  0.31599349  1
  H+  H219  1  0.11424295  0.64223650  0.49139617  1
  H+  H220  1  0.88740279  0.11248220  0.18257590  1
  H+  H221  1  1.02972168  0.64701802  0.67788052  1
  H+  H222  1  0.76274084  0.61862769  0.49479517  1
  H+  H223  1  0.73591172  0.20220519  0.12791850  1
  H+  H224  1  0.77054566  0.38201018  0.17575615  1
  H+  H225  1  0.24084592  0.37235695  0.33428687  1
  H+  H226  1  0.27876546  0.63083071  0.00643419  1
  H+  H227  1  0.64705815  0.77819061  0.66189549  1
  H+  H228  1  0.60869946  0.37382006  0.50329479  1
  H+  H229  1  0.13481335  0.60621943  0.32930897  1
  H+  H230  1  0.48367702  0.35393655  0.98659848  1
  H+  H231  1  0.87243703  -0.04067813  0.33882122  1
  H+  H232  1  0.97101759  0.85077663  0.67052916  1
  H+  H233  1  0.83049326  0.17160276  0.37989874  1
  H+  H234  1  0.10750442  0.87286825  0.32477320  1
  H+  H235  1  0.20026983  0.40680215  1.05399063  1
  H+  H236  1  0.14797208  0.11697016  0.66329838  1
  H+  H237  1  0.13557275  0.36070021  0.50737587  1
  H+  H238  1  0.49633226  0.68967660  0.22000104  1
  H+  H239  1  0.81042260  0.90927996  0.06431742  1
  H+  H240  1  0.40847468  0.31959963  0.71703253  1
  H+  H241  1  0.34807234  0.08163770  0.17637330  1
  H+  H242  1  0.88898979  0.10227477  0.66369474  1
  H+  H243  1  0.49102759  0.65824687  0.34593132  1
  H+  H244  1  0.41930970  0.38779205  0.33018969  1
  H+  H245  1  0.93216193  0.84744585  0.56899209  1
  H+  H246  1  0.96548623  0.60102178  0.18122888  1
  H+  H247  1  0.86959457  0.23311610  0.52141228  1
  H+  H248  1  0.52194461  0.37801423  0.50139989  1
  H+  H249  1  0.14702998  0.75718770  0.82946418  1
  H+  H250  1  0.86256536  0.63836293  0.68009912  1
  H+  H251  1  0.10195713  0.49299050  0.00572221  1
  H+  H252  1  0.66127801  0.61802872  0.15818759  1
  H+  H253  1  0.62171037  -0.00000103  0.32367849  1
  H+  H254  1  0.63637899  1.01865252  0.00310833  1
  H+  H255  1  0.14171149  0.86883077  0.49937903  1
  H+  H256  1  0.14554663  0.11008422  0.83708130  1
  H+  H257  1  0.62566036  0.72823744  0.83724737  1
  H+  H258  1  0.57211425  0.57300369  0.47133964  1
  H+  H259  1  0.63887600  0.86294032  0.51022188  1
  H+  H260  1  1.02988485  0.39666851  0.48514390  1
  H+  H261  1  0.84560089  0.88276872  0.16000688  1
  H+  H262  1  0.17411841  0.59193004  0.93224933  1
  H+  H263  1  0.84089193  0.36392313  0.82176686  1
  H+  H264  1  0.78853406  0.39936832  0.33269372  1
  H+  H265  1  0.00822768  0.39118885  0.66059651  1
  H+  H266  1  0.09397580  0.38237759  0.66533346  1
  H+  H267  1  0.65091261  0.56471418  0.89001254  1
  H+  H268  1  0.61182548  0.22427842  0.82275830  1
  H+  H269  1  0.10593969  0.13768300  0.15543145  1
  H+  H270  1  0.39129936  0.16178799  0.34402396  1
  H+  H271  1  0.07098661  0.72646405  0.13142821  1
  H+  H272  1  0.11845882  0.27232817  0.66647745  1
  H+  H273  1  0.41175317  0.21551285  0.81542569  1
  H+  H274  1  0.40001664  0.26997809  0.51634818  1
  H+  H275  1  0.89669349  0.52697298  0.32962745  1
  H+  H276  1  0.28363462  0.64991181  0.83459883  1
  H+  H277  1  0.26456718  0.65298684  0.35299079  1
  H+  H278  1  0.08772241  0.94585371  0.30523211  1
  H+  H279  1  0.59111288  0.95128944  0.66711428  1
  H+  H280  1  0.21874354  0.60157657  0.65954133  1
  H+  H281  1  0.46651349  0.13394744  0.81189271  1
  H+  H282  1  0.23133853  0.10950058  0.65571489  1
  H+  H283  1  0.89712001  0.86555770  0.83754807  1
  H+  H284  1  0.27703832  0.89717824  0.47903315  1
  H+  H285  1  0.71844761  0.86361701  0.17319232  1
  H+  H286  1  0.53869632  0.13636068  0.48830977  1
  H+  H287  1  1.02717802  0.13200790  0.68666302  1
  H+  H288  1  0.33948685  0.40116114  0.08048604  1
  H+  H289  1  0.83461057  0.91444809  0.43864878  1
  H+  H290  1  0.59338769  0.41386778  0.75340873  1
  H+  H291  1  0.66410000  0.82868293  0.27080431  1
  H+  H292  1  0.09244166  0.17156889  0.74236298  1
  H+  H293  1  0.59579899  0.90763800  0.07214094  1
  H+  H294  1  0.17283201  0.57342824  0.27527769  1
  H+  H295  1  0.64420604  0.31158965  0.88999934  1
  H+  H296  1  0.33595159  0.65366624  0.10028001  1
  H+  H297  1  0.76270109  0.13688101  0.00567263  1
  H+  H298  1  0.20805372  0.87301962  0.90342105  1
  H+  H299  1  0.02835156  0.41527608  0.81310031  1
  H+  H300  1  0.05776330  0.42118051  0.10765837  1
  H+  H301  1  0.66043870  0.32625688  0.23584737  1
  H+  H302  1  0.62654371  0.51891515  0.66399003  1
  H+  H303  1  0.07448771  0.69040238  0.03669362  1
  H+  H304  1  0.36903594  0.19037295  0.43817217  1
  H+  H305  1  0.61592772  0.34171054  0.98221526  1
  H+  H306  1  0.17031198  0.08149918  0.89780885  1
  H+  H307  1  0.08221669  0.91643562  0.43052214  1
  H+  H308  1  0.54958603  0.87357648  0.00971607  1
  H+  H309  1  0.12257368  0.30495571  0.82581820  1
  H+  H310  1  0.36161305  0.61831258  0.00808950  1
  H+  H311  1  0.52876675  0.97420609  0.76266459  1
  H+  H312  1  0.14537377  0.85759150  0.65913692  1
  H+  H313  1  0.41611209  0.33041249  0.57506827  1
  H+  H314  1  0.07284548  0.16703719  0.05850972  1
  H+  H315  1  0.07637439  0.44262379  0.74819630  1
  H+  H316  1  0.82662004  0.18124484  0.46372137  1
  H+  H317  1  0.90498016  0.55983214  0.89913387  1
  H+  H318  1  0.33840721  0.90736134  0.75605318  1
  H+  H319  1  0.16778380  0.32721502  0.92091973  1
  H+  H320  1  0.82412672  0.66281024  0.73715985  1
  H+  H321  1  0.82363206  0.64566250  0.43648824  1
  H+  H322  1  0.43288919  0.34863814  0.22988895  1
  H+  H323  1  0.52824286  1.01230243  0.74952673  1
  H+  H324  1  0.86615662  0.02331085  0.99297679  1
  H+  H325  1  0.94367401  0.06013299  0.26369470  1
  H+  H326  1  0.05308561  0.89386364  0.08917115  1
  H+  H327  1  0.63732460  0.05828518  0.23003641  1
  H+  H328  1  0.16068382  0.58351765  0.56293088  1
  H+  H329  1  0.14645423  0.32650547  0.60449118  1
  H+  H330  1  0.46044544  0.83203741  0.65483395  1
  H+  H331  1  0.34431609  0.67988882  0.39537171  1
  H+  H332  1  0.86897801  0.17914034  0.75530377  1
  H+  H333  1  0.14212162  0.52923391  0.50149853  1
  H+  H334  1  0.85785608  0.72496105  0.97937789  1
  H+  H335  1  0.07872632  0.88619360  0.74737208  1
  H+  H336  1  0.91981535  0.58703460  0.24740202  1
  H+  H337  1  0.72727491  0.86330811  0.51091575  1
  H+  H338  1  0.87909060  0.76999978  0.66375565  1
  H+  H339  1  0.91401664  0.32442984  0.28017879  1
  H+  H340  1  0.15814575  0.64252434  0.84200631  1
  H+  H341  1  0.65034732  0.30774646  0.58108007  1
  H+  H342  1  0.28323098  0.55311532  0.71971264  1
  H+  H343  1  0.28609691  0.16064732  0.16135707  1
  H+  H344  1  0.90025176  0.34462025  0.58949079  1
  H+  H345  1  0.61999690  0.09998008  0.99704781  1
  H+  H346  1  0.10874184  0.13434613  0.49593334  1
  H+  H347  1  0.37721293  0.78370909  0.32697224  1
  H+  H348  1  0.91991228  0.84371437  0.93135561  1
  H+  H349  1  0.65241114  0.57359237  0.56435211  1
  H+  H350  1  0.19103825  0.12543302  0.24367080  1
  H+  H351  1  0.08962130  0.17250147  0.40589319  1
  H+  H352  1  0.57273398  0.26007506  0.68648291  1
  H+  H353  1  0.59336750  0.67570111  0.73732996  1
  H+  H354  1  0.57733447  0.16255236  0.05543853  1
  H+  H355  1  0.11001728  0.69342987  0.77207242  1
  H+  H356  1  0.34011638  0.66438603  0.77548212  1
  H+  H357  1  1.00893449  0.31995498  0.87023557  1
  H+  H358  1  0.42584337  0.58364368  0.56828575  1
  H+  H359  1  0.42720078  0.31231484  0.88514916  1
  H+  H360  1  0.09017922  0.67030462  0.39822717  1
  H+  H361  1  0.48496774  0.57529107  0.47861340  1
  H+  H362  1  0.34161703  0.43626995  0.72577749  1
  H+  H363  1  0.42705780  0.82730328  0.94304254  1
  H+  H364  1  0.12218424  0.90513967  0.00451307  1
  H+  H365  1  0.38114774  0.15642527  0.75523545  1
  H+  H366  1  0.58864482  0.41054384  0.06066210  1
  H+  H367  1  -0.02396512  0.68471557  0.10420701  1
  H+  H368  1  0.33176302  0.92600794  0.38373109  1
  H+  H369  1  0.88887770  0.37931344  0.49943245  1
  H+  H370  1  0.66633391  0.08130487  0.90851435  1
  H+  H371  1  0.35508230  0.41117025  0.40826618  1
  H+  H372  1  0.55255929  0.65430368  0.39477305  1
  H+  H373  1  0.65435028  0.06932063  0.60323584  1
  H+  H374  1  0.67456913  0.83756035  0.60134339  1
  H+  H375  1  0.91412909  0.08424692  0.90034925  1
  H+  H376  1  0.15200394  0.81782754  0.25704636  1
  H+  H377  1  0.89417606  0.82752314  0.23909386  1
  H+  H378  1  0.91623365  0.32700463  0.93056944  1
  H+  H379  1  0.62088469  0.17765203  0.43988484  1
  H+  H380  1  0.40158401  0.58364994  0.27590122  1
  H+  H381  1  0.62381858  0.59921622  0.97961354  1
  H+  H382  1  0.92425747  0.60289913  0.60950875  1
  H+  H383  1  0.52344156  0.62783535  -0.00410118  1
  O2-  O384  1  0.07478990  0.16570514  0.13828534  1
  O2-  O385  1  0.07901781  0.16647278  0.47893540  1
  O2-  O386  1  0.09818655  0.18690278  0.83388460  1
  O2-  O387  1  0.06590249  0.41299247  0.15098176  1
  O2-  O388  1  0.09279220  0.42427519  0.47660324  1
  O2-  O389  1  0.08454042  0.45372251  0.79365258  1
  O2-  O390  1  0.02834701  0.68002706  0.10310545  1
  O2-  O391  1  0.08370222  0.67177141  0.47558030  1
  O2-  O392  1  0.11790455  0.69634887  0.81679456  1
  O2-  O393  1  0.02987449  0.86233452  0.12875330  1
  O2-  O394  1  0.09004300  0.91953225  0.47475082  1
  O2-  O395  1  0.09574705  0.91716264  0.81867094  1
  O2-  O396  1  0.34188655  0.17815001  0.14097732  1
  O2-  O397  1  0.36949495  0.18445932  0.48302015  1
  O2-  O398  1  0.40323969  0.16011974  0.79717128  1
  O2-  O399  1  0.34368808  0.40979490  0.12639461  1
  O2-  O400  1  0.30024135  0.34429152  0.45899907  1
  O2-  O401  1  0.32061547  0.43851694  0.80115373  1
  O2-  O402  1  0.33877491  0.65717093  0.14598154  1
  O2-  O403  1  0.34231356  0.68371562  0.52050638  1
  O2-  O404  1  0.34491525  0.67914088  0.81951189  1
  O2-  O405  1  0.28922827  0.87937260  0.13110485  1
  O2-  O406  1  0.33463769  0.92893963  0.45929550  1
  O2-  O407  1  0.34359644  0.91604805  0.80294150  1
  O2-  O408  1  0.62855206  0.18985165  0.12560470  1
  O2-  O409  1  0.60305682  0.17134486  0.48383664  1
  O2-  O410  1  0.59096197  0.16209871  0.80466559  1
  O2-  O411  1  0.59410997  0.41684232  0.13847243  1
  O2-  O412  1  0.58133436  0.40393157  0.48370338  1
  O2-  O413  1  0.59357792  0.40708285  0.80082186  1
  O2-  O414  1  0.60882144  0.67157880  0.13160095  1
  O2-  O415  1  0.52464788  0.57189990  0.44758795  1
  O2-  O416  1  0.58932048  0.67141193  0.81775095  1
  O2-  O417  1  0.56821507  0.89590895  0.14618392  1
  O2-  O418  1  0.58685400  0.91635461  0.47499635  1
  O2-  O419  1  0.58557820  0.90545805  0.87057349  1
  O2-  O420  1  0.78003881  0.18531690  0.13648765  1
  O2-  O421  1  0.83556297  0.17141298  0.51044841  1
  O2-  O422  1  0.86882010  0.18163838  0.79951704  1
  O2-  O423  1  0.83361395  0.41172742  0.16824128  1
  O2-  O424  1  0.84206728  0.42501217  0.51913460  1
  O2-  O425  1  0.81451546  0.39758201  0.80994878  1
  O2-  O426  1  0.87141269  0.68394719  0.13845777  1
  O2-  O427  1  0.82371510  0.64596241  0.48158201  1
  O2-  O428  1  0.83485856  0.66289314  0.84339712  1
  O2-  O429  1  0.81959000  0.91494693  0.14026618  1
  O2-  O430  1  0.83446382  0.91512347  0.48398871  1
  O2-  O431  1  0.84779393  0.92042950  0.81598916  1
  O2-  O432  1  0.19487475  0.14805375  0.20196896  1
  O2-  O433  1  0.15346000  0.08645546  0.51982967  1
  O2-  O434  1  0.16967979  0.07545223  0.85269103  1
  O2-  O435  1  0.20232469  0.30275204  0.19570911  1
  O2-  O436  1  0.16066923  0.32738131  0.52534275  1
  O2-  O437  1  0.14255138  0.36011336  0.84684860  1
  O2-  O438  1  0.17925788  0.56029911  0.19477154  1
  O2-  O439  1  0.16793506  0.58915360  0.51786890  1
  O2-  O440  1  0.18141564  0.60395202  0.85651792  1
  O2-  O441  1  0.13540038  0.80780703  0.17645039  1
  O2-  O442  1  0.17414043  0.83913409  0.51200945  1
  O2-  O443  1  0.20170581  0.86593444  0.85824105  1
  O2-  O444  1  0.33611797  0.03164091  0.20140030  1
  O2-  O445  1  0.43666762  0.08135272  0.50984185  1
  O2-  O446  1  0.50356159  0.10655365  0.82668766  1
  O2-  O447  1  0.43415172  0.34342671  0.18440918  1
  O2-  O448  1  0.42109380  0.33172526  0.53080744  1
  O2-  O449  1  0.42909023  0.30776562  0.84034243  1
  O2-  O450  1  0.46012971  0.63545437  0.19905287  1
  O2-  O451  1  0.41206396  0.57304337  0.52432396  1
  O2-  O452  1  0.42465824  0.59242301  0.85996628  1
  O2-  O453  1  0.39957039  0.82451056  0.17895294  1
  O2-  O454  1  0.41803592  0.85573560  0.49369412  1
  O2-  O455  1  0.41489750  0.84224573  0.85535566  1
  O2-  O456  1  0.63217525  0.05587492  0.18467989  1
  O2-  O457  1  0.66240992  0.07493394  0.52840823  1
  O2-  O458  1  0.66662332  0.07072700  0.86400668  1
  O2-  O459  1  0.66100531  0.32643265  0.19026903  1
  O2-  O460  1  0.66125015  0.32328886  0.53808241  1
  O2-  O461  1  0.65069161  0.31253912  0.84394807  1
  O2-  O462  1  0.68826058  0.58409891  0.17241052  1
  O2-  O463  1  0.65422494  0.56918139  0.51925753  1
  O2-  O464  1  0.65754999  0.57093505  0.84425575  1
  O2-  O465  1  0.65936324  0.82530357  0.18936237  1
  O2-  O466  1  0.66888795  0.83528001  0.52916428  1
  O2-  O467  1  0.68995600  0.83497019  0.86998913  1
  O2-  O468  1  0.91620900  0.07889576  0.18435777  1
  O2-  O469  1  0.91714426  0.07972058  0.52847425  1
  O2-  O470  1  0.92762518  0.08681564  0.85600526  1
  O2-  O471  1  0.90634959  0.32571149  0.20242112  1
  O2-  O472  1  0.91855304  0.34334100  0.49322156  1
  O2-  O473  1  0.95764752  0.32332927  0.85965893  1
  O2-  O474  1  0.90991318  0.58151188  0.20081172  1
  O2-  O475  1  0.92077656  0.59669016  0.53340239  1
  O2-  O476  1  0.90252692  0.56371270  0.85450168  1
  O2-  O477  1  0.88996214  0.83005234  0.19335209  1
  O2-  O478  1  0.94048535  0.85613820  0.52466235  1
  O2-  O479  1  0.92812177  0.83722668  0.85573214  1
  O2-  O480  1  0.19170169  0.10698277  0.32602353  1
  O2-  O481  1  0.17053403  0.08346404  0.64298696  1
  O2-  O482  1  0.16717064  0.09195962  0.97692275  1
  O2-  O483  1  0.18557603  0.34074518  0.31350210  1
  O2-  O484  1  0.13566624  0.32934627  0.64867641  1
  O2-  O485  1  0.18570759  0.29005247  0.94132793  1
  O2-  O486  1  0.16720480  0.57541408  0.32012317  1
  O2-  O487  1  0.16132346  0.58355902  0.64241238  1
  O2-  O488  1  0.17161719  0.58998118  0.97815382  1
  O2-  O489  1  0.15955512  0.82654777  0.30192564  1
  O2-  O490  1  0.17904483  0.83425658  0.63933215  1
  O2-  O491  1  0.20014984  0.87254863  0.98264663  1
  O2-  O492  1  0.43966596  0.10462659  0.33101487  1
  O2-  O493  1  0.42017981  0.06301494  0.63396932  1
  O2-  O494  1  0.40428357  0.07606399  0.98179152  1
  O2-  O495  1  0.43860461  0.35223060  0.30694924  1
  O2-  O496  1  0.42765024  0.33055127  0.67472117  1
  O2-  O497  1  0.42469225  0.32536159  0.96831668  1
  O2-  O498  1  0.38533396  0.58134429  0.31884629  1
  O2-  O499  1  0.43188241  0.59963270  0.64795895  1
  O2-  O500  1  0.41250569  0.56858112  0.98045690  1
  O2-  O501  1  0.41441694  0.83852811  0.30379830  1
  O2-  O502  1  0.39612567  0.79837154  0.64615371  1
  O2-  O503  1  0.45022774  0.81878037  0.98124850  1
  O2-  O504  1  0.65511030  0.06086755  0.30547159  1
  O2-  O505  1  0.65999913  0.07124042  0.64893611  1
  O2-  O506  1  0.65998103  0.07763192  0.98642133  1
  O2-  O507  1  0.67944978  0.33320569  0.31167360  1
  O2-  O508  1  0.61348488  0.24439105  0.66951688  1
  O2-  O509  1  0.64019242  0.30829215  0.96245607  1
  O2-  O510  1  0.68087811  0.57013406  0.30361593  1
  O2-  O511  1  0.65550810  0.58084943  0.64696425  1
  O2-  O512  1  0.65090994  0.56419448  0.96513632  1
  O2-  O513  1  0.66633138  0.83526378  0.31582833  1
  O2-  O514  1  0.67689555  0.83917027  0.64786076  1
  O2-  O515  1  0.72308559  0.85929963  0.99804947  1
  O2-  O516  1  0.95636120  0.04086741  0.30221885  1
  O2-  O517  1  0.92364478  0.07504573  0.65480657  1
  O2-  O518  1  0.90130347  0.08348480  0.97867028  1
  O2-  O519  1  0.92745503  0.33967408  0.32419811  1
  O2-  O520  1  0.90253859  0.33920548  0.63372851  1
  O2-  O521  1  0.90316249  0.32965898  0.97429425  1
  O2-  O522  1  0.92833642  0.59016877  0.31586290  1
  O2-  O523  1  0.92522533  0.60226669  0.65542147  1
  O2-  O524  1  0.89276084  0.56281735  0.98362963  1
  O2-  O525  1  0.90104316  0.81600005  0.31341195  1
  O2-  O526  1  0.91386695  0.83169739  0.65194282  1
  O2-  O527  1  0.91749590  0.84097240  0.97714888  1
  O2-  O528  1  0.07025130  0.16391412  0.01328288  1
  O2-  O529  1  0.09789383  0.17286496  0.36006670  1
  O2-  O530  1  0.08880868  0.16951360  0.69786869  1
  O2-  O531  1  0.06352366  0.43347462  0.02263236  1
  O2-  O532  1  0.09440504  0.41036679  0.35310986  1
  O2-  O533  1  0.06814339  0.42068911  0.67645898  1
  O2-  O534  1  0.10631650  0.69821807  -0.00298009  1
  O2-  O535  1  0.09102635  0.66769782  0.35253791  1
  O2-  O536  1  0.09229953  0.67721146  0.68957386  1
  O2-  O537  1  0.08380666  0.92689051  0.01801663  1
  O2-  O538  1  0.07699616  0.90522167  0.33797188  1
  O2-  O539  1  0.06131024  0.85408473  0.70730478  1
  O2-  O540  1  0.33258690  0.17268358  0.01953780  1
  O2-  O541  1  0.36443359  0.19673790  0.35705297  1
  O2-  O542  1  0.34475411  0.15260909  0.67824285  1
  O2-  O543  1  0.33917534  0.39713849  0.00606953  1
  O2-  O544  1  0.39600505  0.45022017  0.37516354  1
  O2-  O545  1  0.35594281  0.44204508  0.68150145  1
  O2-  O546  1  0.33744784  0.65442791  0.02385025  1
  O2-  O547  1  0.31400857  0.70310480  0.37274371  1
  O2-  O548  1  0.31363591  0.61176529  0.70406518  1
  O2-  O549  1  0.28529802  0.91029872  0.01214976  1
  O2-  O550  1  0.33762568  0.92865345  0.33805977  1
  O2-  O551  1  0.33633552  0.90089307  0.68682624  1
  O2-  O552  1  0.56646497  0.15067620  0.01107592  1
  O2-  O553  1  0.67267828  0.19650649  0.37360031  1
  O2-  O554  1  0.57650896  0.15467049  0.69052415  1
  O2-  O555  1  0.58398454  0.40635823  0.01523263  1
  O2-  O556  1  0.59517326  0.40847709  0.35717331  1
  O2-  O557  1  0.58739067  0.42523298  0.68681450  1
  O2-  O558  1  0.58693203  0.65926891  0.00105612  1
  O2-  O559  1  0.55062773  0.69141344  0.36192398  1
  O2-  O560  1  0.59259649  0.67621015  0.69200265  1
  O2-  O561  1  0.60837127  0.91187170  0.02726744  1
  O2-  O562  1  0.57482359  0.90873447  0.35016055  1
  O2-  O563  1  0.56014589  0.88920848  0.67557134  1
  O2-  O564  1  0.82382955  0.16806840  0.02090938  1
  O2-  O565  1  0.82319027  0.21437094  0.40211096  1
  O2-  O566  1  0.82840034  0.16302137  0.65005608  1
  O2-  O567  1  0.80383321  0.40208132  0.00254643  1
  O2-  O568  1  0.84804715  0.43262466  0.34884701  1
  O2-  O569  1  0.83622022  0.43787808  0.68548419  1
  O2-  O570  1  0.82403698  0.66412324  -0.03384219  1
  O2-  O571  1  0.83178756  0.65110892  0.35533679  1
  O2-  O572  1  0.82678820  0.66502067  0.69284242  1
  O2-  O573  1  0.81277756  0.91468501  0.01813616  1
  O2-  O574  1  0.83134100  0.90418271  0.35965035  1
  O2-  O575  1  0.83472619  0.91488474  0.69388228  1
