# generated using pymatgen
data_H2O
_symmetry_space_group_name_H-M   'P 1'
_cell_length_a   17.98462190
_cell_length_b   17.98608529
_cell_length_c   21.99995706
_cell_angle_alpha   89.99561337
_cell_angle_beta   90.02900130
_cell_angle_gamma   119.97683466
_symmetry_Int_Tables_number   1
_chemical_formula_structural   H2O
_chemical_formula_sum   'H384 O192'
_cell_volume   6164.41247134
_cell_formula_units_Z   192
loop_
 _symmetry_equiv_pos_site_id
 _symmetry_equiv_pos_as_xyz
  1  'x, y, z'
loop_
 _atom_type_symbol
 _atom_type_oxidation_number
  H+  1.0
  O2-  -2.0
loop_
 _atom_site_type_symbol
 _atom_site_label
 _atom_site_symmetry_multiplicity
 _atom_site_fract_x
 _atom_site_fract_y
 _atom_site_fract_z
 _atom_site_occupancy
  H+  H0  1  0.61802514  0.21297683  0.66748675  1
  H+  H1  1  0.13860666  0.86401909  0.32315944  1
  H+  H2  1  0.25927430  0.38738103  0.15657699  1
  H+  H3  1  0.64041005  0.51921221  0.66505099  1
  H+  H4  1  0.32316134  -0.05032826  0.87798934  1
  H+  H5  1  0.47276886  0.61782100  0.62393101  1
  H+  H6  1  0.77081823  0.38177993  0.15628918  1
  H+  H7  1  0.40616624  0.86770316  0.98914802  1
  H+  H8  1  0.32647269  0.66108272  0.71170197  1
  H+  H9  1  0.13575516  0.38408006  0.17523709  1
  H+  H10  1  0.85429288  0.76597249  0.98030691  1
  H+  H11  1  0.93305111  0.56491752  0.67906550  1
  H+  H12  1  0.27775060  0.13579091  0.16106483  1
  H+  H13  1  0.10522282  0.12693175  0.69799809  1
  H+  H14  1  0.96422576  0.86054694  0.49699286  1
  H+  H15  1  0.38518972  0.27537986  0.17230972  1
  H+  H16  1  0.96823365  0.36343803  0.83774584  1
  H+  H17  1  0.60945807  0.39567348  -0.02412232  1
  H+  H18  1  0.63234674  0.49740846  0.31860732  1
  H+  H19  1  0.89593776  0.37509410  0.32973530  1
  H+  H20  1  -0.03413803  0.12464730  0.65974642  1
  H+  H21  1  0.10712923  0.72248938  0.00977598  1
  H+  H22  1  0.63917030  0.36821960  0.83701266  1
  H+  H23  1  0.87871759  0.77109181  0.82959412  1
  H+  H24  1  0.22598500  0.11524856  -0.00672204  1
  H+  H25  1  0.35611911  0.37944508  0.67628675  1
  H+  H26  1  0.85102756  0.87985800  0.81332924  1
  H+  H27  1  0.36557126  0.23010278  0.49074364  1
  H+  H28  1  0.88263374  0.77880521  0.31876941  1
  H+  H29  1  0.62225924  0.35639946  1.06364248  1
  H+  H30  1  0.63230050  0.01997611  0.98320093  1
  H+  H31  1  0.41652170  0.33482149  0.56886503  1
  H+  H32  1  0.12557596  0.28974059  0.17965197  1
  H+  H33  1  0.85859231  0.22376186  0.82088356  1
  H+  H34  1  0.36989858  0.51047874  0.16631953  1
  H+  H35  1  0.45837466  0.59343975  0.82647521  1
  H+  H36  1  0.84525362  0.45012089  0.64980776  1
  H+  H37  1  0.12512713  0.63470315  0.49177829  1
  H+  H38  1  0.25992335  0.78333351  0.76784194  1
  H+  H39  1  1.01474393  0.13835420  0.83338465  1
  H+  H40  1  0.52107117  0.14833212  0.14356300  1
  H+  H41  1  0.37596011  0.76286624  0.65044591  1
  H+  H42  1  0.72719791  0.11353330  0.49781783  1
  H+  H43  1  0.37494144  0.35777792  0.17289473  1
  H+  H44  1  0.50908298  0.61931226  0.15989972  1
  H+  H45  1  0.62086923  1.00884405  0.17220117  1
  H+  H46  1  0.67000328  0.80016011  0.31464233  1
  H+  H47  1  0.24027109  0.37667580  0.83625079  1
  H+  H48  1  0.36502847  0.95045003  0.87254417  1
  H+  H49  1  0.63610208  0.60748137  0.16429685  1
  H+  H50  1  0.14262625  0.87187373  0.47323143  1
  H+  H51  1  0.10165856  0.63208723  0.33686954  1
  H+  H52  1  0.36327588  0.71165613  0.81254530  1
  H+  H53  1  0.15409309  0.79782877  0.69117768  1
  H+  H54  1  0.17096644  0.08643300  0.23460418  1
  H+  H55  1  0.38522051  0.10942830  0.16554005  1
  H+  H56  1  0.86015089  0.64401792  0.01012354  1
  H+  H57  1  0.51803035  0.63260417  0.00847124  1
  H+  H58  1  0.47154785  0.87616062  0.20285396  1
  H+  H59  1  0.10624623  0.39110321  0.67720950  1
  H+  H60  1  0.15434848  0.02426636  0.64725985  1
  H+  H61  1  0.96292816  0.58936696  0.18371209  1
  H+  H62  1  0.75623783  0.12098255  0.15754047  1
  H+  H63  1  1.00951934  0.15181932  0.16734577  1
  H+  H64  1  0.25717236  0.39608093  0.99963107  1
  H+  H65  1  0.73518037  0.87317954  0.65342757  1
  H+  H66  1  0.51953878  0.88276792  0.81391799  1
  H+  H67  1  0.60879978  0.72158652  0.65595570  1
  H+  H68  1  0.64641906  0.28173917  0.83687737  1
  H+  H69  1  0.86969014  0.49062606  0.34828745  1
  H+  H70  1  0.33067375  0.13782829  0.32652540  1
  H+  H71  1  0.22687205  0.86120576  0.17363717  1
  H+  H72  1  0.98812374  0.38882562  0.17320256  1
  H+  H73  1  -0.03549750  0.34976189  0.66236464  1
  H+  H74  1  0.83420083  0.67972290  0.06970342  1
  H+  H75  1  0.14437952  0.77901921  0.32923444  1
  H+  H76  1  0.63939730  0.58900512  0.31062903  1
  H+  H77  1  0.98144718  0.36680577  0.50581946  1
  H+  H78  1  0.60882584  0.34982903  0.50279325  1
  H+  H79  1  0.62586677  0.88501817  1.00223992  1
  H+  H80  1  0.90159267  0.63031843  0.66019876  1
  H+  H81  1  0.40210237  0.82195614  0.28104039  1
  H+  H82  1  0.11237788  0.38032351  0.34284076  1
  H+  H83  1  0.36894948  -0.01638337  0.16114624  1
  H+  H84  1  0.61523262  0.14113685  0.33224805  1
  H+  H85  1  0.89059954  0.62570330  0.33175938  1
  H+  H86  1  0.74204852  0.71887290  0.34224646  1
  H+  H87  1  0.86603759  0.97943369  0.66190290  1
  H+  H88  1  0.31202275  0.35095429  0.82928241  1
  H+  H89  1  0.39908724  0.27584371  0.66092753  1
  H+  H90  1  0.10439642  0.72461533  0.16156431  1
  H+  H91  1  0.14563091  0.78492348  0.47582158  1
  H+  H92  1  0.61684796  0.22468494  -0.00387591  1
  H+  H93  1  0.84787013  0.71833164  0.48357322  1
  H+  H94  1  0.77748211  0.64909074  0.15198870  1
  H+  H95  1  0.32635850  0.56018245  0.38721951  1
  H+  H96  1  0.61042754  0.88564465  0.33379631  1
  H+  H97  1  0.87681869  0.35835509  0.83510662  1
  H+  H98  1  0.11866428  0.27923018  0.85399594  1
  H+  H99  1  0.36736571  0.14658422  1.00543878  1
  H+  H100  1  0.27804040  0.89872295  0.33998129  1
  H+  H101  1  0.91727476  0.54117085  0.50959299  1
  H+  H102  1  0.67029662  0.83968929  0.55827474  1
  H+  H103  1  0.60800583  0.12816046  0.48747237  1
  H+  H104  1  0.36617098  0.58911117  0.36957291  1
  H+  H105  1  0.29614750  0.13536673  0.66556768  1
  H+  H106  1  0.15027761  0.50819551  0.33012339  1
  H+  H107  1  0.87693477  1.01726505  0.83027118  1
  H+  H108  1  0.10655572  0.47974533  0.83100882  1
  H+  H109  1  0.66328242  0.56975391  0.56761346  1
  H+  H110  1  0.73026976  0.36126078  0.99494486  1
  H+  H111  1  0.27116060  0.39279713  0.50041282  1
  H+  H112  1  0.46541566  0.36808933  0.98392117  1
  H+  H113  1  0.78962062  0.90088745  0.02446157  1
  H+  H114  1  0.87360721  0.11959975  0.16790850  1
  H+  H115  1  0.74040771  0.89494160  0.31203729  1
  H+  H116  1  0.88439149  0.51540089  0.83079113  1
  H+  H117  1  0.31108476  0.15470833  0.39301516  1
  H+  H118  1  0.61187093  0.72990787  0.50170488  1
  H+  H119  1  0.87406735  0.10651508  -0.01123321  1
  H+  H120  1  0.13578787  0.28064736  0.50679174  1
  H+  H121  1  0.37899925  -0.00479513  0.99587570  1
  H+  H122  1  0.25803833  0.64293336  0.35646363  1
  H+  H123  1  0.59427729  0.20966897  0.49083382  1
  H+  H124  1  0.23497167  0.14276123  0.83851754  1
  H+  H125  1  0.38306175  1.02342750  0.50726925  1
  H+  H126  1  0.27446449  0.64775153  0.16046176  1
  H+  H127  1  0.76798836  0.38588150  0.82218661  1
  H+  H128  1  0.08726174  0.91014712  0.54126445  1
  H+  H129  1  0.85149607  0.21547630  0.66607035  1
  H+  H130  1  0.13495378  0.51432375  0.50957488  1
  H+  H131  1  0.41944883  0.08555995  0.22528583  1
  H+  H132  1  0.62087152  0.85987500  0.80360983  1
  H+  H133  1  0.63609550  0.61952999  -0.00318839  1
  H+  H134  1  0.65657319  0.28517920  0.32082285  1
  H+  H135  1  0.40397626  0.15090908  0.83586112  1
  H+  H136  1  0.04555144  0.42667733  0.00648636  1
  H+  H137  1  0.53770107  0.15471840  0.82218488  1
  H+  H138  1  0.38757004  0.87060715  0.50352071  1
  H+  H139  1  0.61008137  0.48455006  0.97914808  1
  H+  H140  1  0.87070135  0.90062414  0.33010761  1
  H+  H141  1  0.68002247  0.62281838  0.90476598  1
  H+  H142  1  0.92069677  0.58271958  0.27828617  1
  H+  H143  1  0.78192191  0.39851381  0.34686832  1
  H+  H144  1  0.65019481  0.31963478  0.59918234  1
  H+  H145  1  0.86385582  0.85976429  0.98164201  1
  H+  H146  1  0.53543732  0.88258086  -0.00667022  1
  H+  H147  1  0.02045562  0.63104759  0.50511215  1
  H+  H148  1  0.38178818  0.25299890  0.81835872  1
  H+  H149  1  0.38892190  0.34263403  0.32935252  1
  H+  H150  1  0.14146568  0.02478612  0.17761299  1
  H+  H151  1  0.37868094  0.52153192  0.99089252  1
  H+  H152  1  0.71633911  0.34703817  0.65465969  1
  H+  H153  1  0.38582360  0.13947867  0.67253866  1
  H+  H154  1  0.02643881  0.26469260  0.71371407  1
  H+  H155  1  0.90169318  0.03949922  0.32230726  1
  H+  H156  1  0.64967229  0.36894373  0.32371111  1
  H+  H157  1  0.37379362  0.64202903  0.00745291  1
  H+  H158  1  0.66053418  0.07837276  0.88913188  1
  H+  H159  1  0.14275253  0.12183220  -0.00131774  1
  H+  H160  1  0.87720820  0.10630557  0.83295111  1
  H+  H161  1  0.72759714  0.62280249  0.99520791  1
  H+  H162  1  0.17341282  0.10679944  0.89604629  1
  H+  H163  1  0.40229416  0.06226867  0.83981769  1
  H+  H164  1  0.77787037  0.63558716  0.66658746  1
  H+  H165  1  0.22832814  0.36158844  0.32925187  1
  H+  H166  1  0.49259097  0.10911472  0.65813326  1
  H+  H167  1  0.36633910  0.73022112  0.16668627  1
  H+  H168  1  0.87312536  0.14933377  0.33509159  1
  H+  H169  1  0.38312298  0.87034459  0.18427616  1
  H+  H170  1  0.86773233  0.37631150  0.02419073  1
  H+  H171  1  0.38226594  0.36480051  0.51166437  1
  H+  H172  1  0.63659811  0.02297978  0.32941250  1
  H+  H173  1  0.37162548  0.45400157  0.33812166  1
  H+  H174  1  0.85573655  0.88710869  0.48446501  1
  H+  H175  1  0.34435441  0.90822562  0.72473756  1
  H+  H176  1  0.61970682  0.14083252  0.82199853  1
  H+  H177  1  0.34502632  0.38805860  -0.00039897  1
  H+  H178  1  0.57954010  0.90971328  0.39621321  1
  H+  H179  1  0.20049442  0.59955172  0.60898969  1
  H+  H180  1  0.58201833  0.24605987  0.12197312  1
  H+  H181  1  0.76181765  0.62795377  0.48705153  1
  H+  H182  1  0.00394637  0.86434404  0.81963796  1
  H+  H183  1  0.11527295  0.88748718  0.16359015  1
  H+  H184  1  0.83896662  0.92946051  0.38908046  1
  H+  H185  1  0.62820189  0.10840196  -0.01538107  1
  H+  H186  1  0.63585676  0.08614415  0.65507568  1
  H+  H187  1  0.22849679  0.37194405  0.65886781  1
  H+  H188  1  0.13370741  0.62813722  0.17283631  1
  H+  H189  1  0.47763489  0.12747372  0.31685315  1
  H+  H190  1  0.80336285  0.43593860  0.49738550  1
  H+  H191  1  1.10888776  0.98181644  1.01267687  1
  H+  H192  1  0.86473660  0.72816046  0.66547059  1
  H+  H193  1  0.07521454  0.92913080  0.71956713  1
  H+  H194  1  0.01705118  0.63919801  0.34488915  1
  H+  H195  1  0.65766533  0.38370649  0.12940427  1
  H+  H196  1  0.87316475  0.10662375  0.65371166  1
  H+  H197  1  0.13006407  0.29584604  0.66219489  1
  H+  H198  1  0.38607235  0.98292266  0.67086701  1
  H+  H199  1  0.39882018  0.77480484  0.99305531  1
  H+  H200  1  0.36859455  0.50619168  0.83640828  1
  H+  H201  1  0.11423169  0.63503339  0.83594445  1
  H+  H202  1  0.43226396  0.40003394  0.83662042  1
  H+  H203  1  0.63546184  0.76090108  1.01188946  1
  H+  H204  1  0.86088519  0.93633811  0.10433989  1
  H+  H205  1  0.36032072  0.47961157  0.50749155  1
  H+  H206  1  0.76135110  0.87921330  0.80335878  1
  H+  H207  1  0.88521365  0.11333449  0.49957124  1
  H+  H208  1  0.38905696  0.86568810  0.65552936  1
  H+  H209  1  0.37305763  0.83003880  0.83102508  1
  H+  H210  1  0.86355492  0.22823950  0.48855926  1
  H+  H211  1  1.02707341  0.38985606  0.33991817  1
  H+  H212  1  0.63780111  0.60652375  0.65449988  1
  H+  H213  1  0.47111284  0.85307145  0.33640361  1
  H+  H214  1  0.36687432  0.14145248  0.49082118  1
  H+  H215  1  0.59349737  0.71254945  0.15972617  1
  H+  H216  1  0.52387284  0.88757856  0.49136825  1
  H+  H217  1  0.13557454  0.30207085  0.99886826  1
  H+  H218  1  0.47280941  0.10803816  0.50332132  1
  H+  H219  1  0.13147213  0.85409271  0.84158258  1
  H+  H220  1  0.47689654  0.62298996  0.53098671  1
  H+  H221  1  0.36649242  0.89894415  0.34005975  1
  H+  H222  1  0.63907483  1.02284605  0.49762032  1
  H+  H223  1  0.06532053  0.09387599  0.68166313  1
  H+  H224  1  0.86460906  0.74171329  0.15473857  1
  H+  H225  1  0.48280273  0.59327916  0.31580271  1
  H+  H226  1  0.72274530  0.10918935  0.83099951  1
  H+  H227  1  0.87388663  0.98913404  0.00576376  1
  H+  H228  1  0.61208641  0.38476430  0.67867138  1
  H+  H229  1  0.65087132  0.93644278  0.64917655  1
  H+  H230  1  0.72580985  0.86372826  0.49646416  1
  H+  H231  1  0.72035127  0.70728754  0.86645917  1
  H+  H232  1  0.75703315  0.12610109  0.99827693  1
  H+  H233  1  0.76643998  0.62135195  0.32934659  1
  H+  H234  1  0.48256667  0.36857838  0.66471047  1
  H+  H235  1  0.38450086  0.77880744  0.50779161  1
  H+  H236  1  0.77805681  0.64282614  0.82321574  1
  H+  H237  1  0.89696121  0.88086900  0.17370311  1
  H+  H238  1  0.64295677  0.82082614  0.85973128  1
  H+  H239  1  0.12425385  0.64423735  0.00857923  1
  H+  H240  1  0.39049703  0.03898841  0.32014105  1
  H+  H241  1  0.61138381  0.88417412  0.48917694  1
  H+  H242  1  0.37726050  0.60364177  0.17503507  1
  H+  H243  1  0.11812540  0.15142873  0.48959187  1
  H+  H244  1  0.60749537  0.97247729  0.81338912  1
  H+  H245  1  0.70022732  0.81944324  0.96112840  1
  H+  H246  1  0.62780970  0.60186520  0.51352165  1
  H+  H247  1  0.76478040  0.12210554  0.66580288  1
  H+  H248  1  0.82827798  0.16302898  0.76127389  1
  H+  H249  1  0.35599789  0.64124072  0.64778466  1
  H+  H250  1  0.98171660  0.87098599  0.17540359  1
  H+  H251  1  0.88647827  0.60492772  0.83760984  1
  H+  H252  1  0.60275962  0.46582290  0.49322865  1
  H+  H253  1  0.61944547  0.46757897  0.82628840  1
  H+  H254  1  0.72684509  0.11154581  0.32588098  1
  H+  H255  1  0.89539619  0.37134838  0.50558797  1
  H+  H256  1  0.84491796  0.21402241  1.00272673  1
  H+  H257  1  0.51901373  0.37211476  0.33225712  1
  H+  H258  1  0.60559486  0.84504131  0.16249157  1
  H+  H259  1  0.97870285  0.56495812  0.98950349  1
  H+  H260  1  0.12760029  0.40541608  0.00231422  1
  H+  H261  1  0.96489553  0.30935998  0.97567088  1
  H+  H262  1  0.11755596  0.38979759  0.49743020  1
  H+  H263  1  0.19320619  0.13858254  0.33973360  1
  H+  H264  1  0.51052787  0.37992224  0.49306350  1
  H+  H265  1  0.01824374  0.88093746  0.32704355  1
  H+  H266  1  0.10429146  0.89185470  1.01319071  1
  H+  H267  1  0.19547449  0.23921128  1.05506676  1
  H+  H268  1  0.88815928  0.34718155  0.16177890  1
  H+  H269  1  0.12095290  0.89933316  0.67406421  1
  H+  H270  1  0.34583238  0.74796281  0.35830616  1
  H+  H271  1  0.24502657  0.63240606  0.99190725  1
  H+  H272  1  0.23900986  0.88646024  0.67391566  1
  H+  H273  1  0.35254264  0.61911331  0.80977791  1
  H+  H274  1  0.36409293  0.64244939  0.50602280  1
  H+  H275  1  0.59934314  0.63557831  0.80992463  1
  H+  H276  1  -0.02237360  0.86609694  0.64822752  1
  H+  H277  1  0.58355964  0.16926370  0.39023810  1
  H+  H278  1  0.15657807  0.54308382  0.99289305  1
  H+  H279  1  0.58739601  0.71450572  0.79777113  1
  H+  H280  1  0.86651177  0.23438811  0.33483128  1
  H+  H281  1  0.50716684  0.37507036  0.83380989  1
  H+  H282  1  0.05904722  0.66944908  0.68048790  1
  H+  H283  1  0.23259312  0.11875230  0.48950870  1
  H+  H284  1  0.27885565  0.89237643  0.47851673  1
  H+  H285  1  0.12207702  0.49958135  0.15728818  1
  H+  H286  1  0.21829787  0.86758048  0.00028620  1
  H+  H287  1  0.67934566  0.34032215  0.93083201  1
  H+  H288  1  0.57053425  0.65445363  0.07273338  1
  H+  H289  1  0.83612179  0.17207931  0.42756159  1
  H+  H290  1  0.06794116  0.40579233  0.74052636  1
  H+  H291  1  0.12949942  0.76569985  0.85021290  1
  H+  H292  1  0.55781417  0.65571174  0.45344726  1
  H+  H293  1  0.58827961  0.41585891  0.74127935  1
  H+  H294  1  0.95323726  0.60062101  0.57266456  1
  H+  H295  1  0.91415124  0.32728385  0.59766871  1
  H+  H296  1  0.31545996  0.40082448  0.73345146  1
  H+  H297  1  0.85646287  0.36924010  0.66354181  1
  H+  H298  1  0.90627293  0.82901344  0.55555990  1
  H+  H299  1  0.02088716  0.62939162  0.83387446  1
  H+  H300  1  0.91018374  0.32497997  0.92681320  1
  H+  H301  1  0.90537267  0.07695481  0.93043347  1
  H+  H302  1  0.91323297  0.08298302  0.55934513  1
  H+  H303  1  0.17100346  0.34706791  0.26829603  1
  H+  H304  1  0.56487597  0.65384579  0.70892435  1
  H+  H305  1  0.03316218  0.81585074  0.77589994  1
  H+  H306  1  0.58028072  0.91531862  0.08318788  1
  H+  H307  1  0.08657355  0.92319249  0.10597418  1
  H+  H308  1  0.91592332  0.84018808  0.25955384  1
  H+  H309  1  0.33249392  0.91316146  -0.04311024  1
  H+  H310  1  0.05665093  0.20681238  0.74904083  1
  H+  H311  1  0.09708656  0.79564054  0.58034917  1
  H+  H312  1  0.57709199  0.40578846  0.39340834  1
  H+  H313  1  0.92453456  0.35049708  0.26732385  1
  H+  H314  1  0.86470528  0.51260510  0.19514709  1
  H+  H315  1  0.11206695  0.15556988  0.82915673  1
  H+  H316  1  0.16970370  0.83220608  0.23368993  1
  H+  H317  1  0.24895953  0.84220442  0.81475958  1
  H+  H318  1  0.87868900  0.99336854  0.16353628  1
  H+  H319  1  0.49643850  0.86973194  0.12132788  1
  H+  H320  1  0.31625461  0.41377905  0.09473642  1
  H+  H321  1  0.16788283  0.59674427  0.23067951  1
  H+  H322  1  0.89134686  0.82782424  0.88887938  1
  H+  H323  1  0.67858387  0.71443343  0.39102594  1
  H+  H324  1  0.09665781  0.44041302  0.09780632  1
  H+  H325  1  0.88769954  0.86403577  0.64985183  1
  H+  H326  1  0.11648204  0.98651515  0.49583485  1
  H+  H327  1  0.18137419  0.09047066  0.55107589  1
  H+  H328  1  0.82440754  0.40864272  0.76038973  1
  H+  H329  1  0.81431529  0.15193913  0.09768590  1
  H+  H330  1  0.10467229  0.19176522  0.08435335  1
  H+  H331  1  0.27181351  0.63548565  0.50798274  1
  H+  H332  1  0.66856572  0.06996573  0.59228454  1
  H+  H333  1  0.08810906  0.42078102  0.43724959  1
  H+  H334  1  0.10089994  0.75597059  0.57974109  1
  H+  H335  1  0.65624064  0.06792178  0.23133404  1
  H+  H336  1  0.84958266  0.44076482  0.43313262  1
  H+  H337  1  0.35987107  0.23177645  0.00426660  1
  H+  H338  1  0.34948830  0.18448081  0.76283480  1
  H+  H339  1  0.73192647  0.38787245  0.22026049  1
  H+  H340  1  0.08731869  0.65925531  0.43074696  1
  H+  H341  1  0.48705674  0.12622106  0.99180058  1
  H+  H342  1  0.23509396  0.55114331  0.29083939  1
  H+  H343  1  0.42745644  0.10770268  0.93344590  1
  H+  H344  1  0.99219616  0.12334155  0.30953161  1
  H+  H345  1  0.41505428  0.83378812  0.59013078  1
  H+  H346  1  0.16301658  0.83608613  0.93954397  1
  H+  H347  1  0.10256805  0.38900926  0.83643517  1
  H+  H348  1  0.35118173  0.93223262  0.43083856  1
  H+  H349  1  0.07628159  0.66319318  0.10286518  1
  H+  H350  1  0.08454208  0.92688538  0.38022619  1
  H+  H351  1  0.41217005  0.58053550  0.93132762  1
  H+  H352  1  0.68714648  0.33323529  0.49375700  1
  H+  H353  1  0.22756104  0.61139342  0.83290037  1
  H+  H354  1  0.73453867  0.95102836  0.90804631  1
  H+  H355  1  0.31426918  0.68133295  0.42352172  1
  H+  H356  1  0.83332930  0.66205622  0.76169577  1
  H+  H357  1  0.65209263  0.83369825  0.22036908  1
  H+  H358  1  0.16568297  0.34347271  0.56612975  1
  H+  H359  1  0.09942845  0.15366833  0.17727051  1
  H+  H360  1  0.58124810  0.16931448  0.05762993  1
  H+  H361  1  0.68950253  0.94308386  0.90650459  1
  H+  H362  1  0.42721041  0.08190637  0.60022227  1
  H+  H363  1  0.91167051  0.09882491  0.22953085  1
  H+  H364  1  0.34658687  0.67507009  0.06783060  1
  H+  H365  1  0.83407040  0.91677787  0.72021212  1
  H+  H366  1  0.13653399  0.22768001  0.30942322  1
  H+  H367  1  0.34094359  0.91700507  0.10507143  1
  H+  H368  1  0.18052968  0.59342947  0.89862220  1
  H+  H369  1  0.42946453  0.55133658  0.25629294  1
  H+  H370  1  0.85831337  0.97776992  0.48680066  1
  H+  H371  1  0.09641596  0.68025065  0.74743590  1
  H+  H372  1  0.17290958  0.11896509  0.64441737  1
  H+  H373  1  0.33417118  0.16697586  0.09995481  1
  H+  H374  1  0.81715757  0.66330188  0.39329481  1
  H+  H375  1  0.15445098  0.34612941  0.91424746  1
  H+  H376  1  0.41910094  0.32891781  0.26466567  1
  H+  H377  1  0.41760620  0.81908240  0.89122438  1
  H+  H378  1  0.40552700  0.33324796  0.92883659  1
  H+  H379  1  0.33279999  0.41000526  0.40254797  1
  H+  H380  1  0.59298138  0.15940118  0.72864528  1
  H+  H381  1  0.66952597  0.56814162  0.21433839  1
  H+  H382  1  0.92426290  0.53640137  0.93038829  1
  H+  H383  1  0.02775572  0.14676424  0.49371978  1
  O2-  O384  1  0.07427962  0.18511164  0.15762992  1
  O2-  O385  1  0.08874952  0.18475510  0.48274564  1
  O2-  O386  1  0.07422650  0.18076691  0.81978904  1
  O2-  O387  1  0.09357172  0.43878058  0.14347998  1
  O2-  O388  1  0.08760266  0.42261778  0.48267516  1
  O2-  O389  1  0.07307172  0.41876178  0.81731933  1
  O2-  O390  1  0.07474097  0.66321451  0.14851208  1
  O2-  O391  1  0.09344464  0.66416978  0.47692963  1
  O2-  O392  1  0.08355689  0.66642694  0.82313003  1
  O2-  O393  1  0.08857643  0.92240485  0.15208942  1
  O2-  O394  1  0.08239980  0.92099471  0.49840329  1
  O2-  O395  1  0.05598691  0.87010266  0.79780559  1
  O2-  O396  1  0.33764668  0.16410688  0.14513709  1
  O2-  O397  1  0.33739087  0.17101972  0.47328981  1
  O2-  O398  1  0.34934676  0.19025298  0.80800659  1
  O2-  O399  1  0.31905944  0.41356713  0.14017826  1
  O2-  O400  1  0.33344575  0.42263542  0.48801183  1
  O2-  O401  1  0.29994990  0.39614774  0.81743534  1
  O2-  O402  1  0.33603568  0.67262997  0.14791010  1
  O2-  O403  1  0.33096101  0.66971253  0.49019860  1
  O2-  O404  1  0.32758960  0.65399681  0.79344981  1
  O2-  O405  1  0.33939203  0.91898850  0.14940560  1
  O2-  O406  1  0.34385003  0.92335337  0.47600310  1
  O2-  O407  1  0.29310519  0.83773859  0.78934085  1
  O2-  O408  1  0.57579641  0.18742372  0.12316255  1
  O2-  O409  1  0.57230254  0.15252908  0.47157032  1
  O2-  O410  1  0.59635362  0.17717395  0.80508794  1
  O2-  O411  1  0.60473793  0.34688334  0.10619627  1
  O2-  O412  1  0.57132716  0.40558132  0.47748811  1
  O2-  O413  1  0.58915721  0.40881654  0.81102499  1
  O2-  O414  1  0.56917976  0.65179050  0.14434782  1
  O2-  O415  1  0.57454875  0.66502862  0.49612314  1
  O2-  O416  1  0.56038614  0.65142497  0.78916417  1
  O2-  O417  1  0.55838089  0.90423448  0.12668008  1
  O2-  O418  1  0.58256022  0.91561800  0.47347244  1
  O2-  O419  1  0.57748751  0.91381020  0.79543919  1
  O2-  O420  1  0.81685439  0.15235328  0.14264310  1
  O2-  O421  1  0.83299827  0.16822895  0.47322071  1
  O2-  O422  1  0.82854468  0.16271792  0.80675853  1
  O2-  O423  1  0.80660135  0.33652620  0.09953116  1
  O2-  O424  1  0.85806385  0.44728442  0.48046357  1
  O2-  O425  1  0.82879804  0.41284921  0.80512578  1
  O2-  O426  1  0.83777036  0.68348793  0.13615818  1
  O2-  O427  1  0.81854842  0.65935546  0.46667346  1
  O2-  O428  1  0.83679151  0.66337773  0.80699472  1
  O2-  O429  1  0.85684818  0.93333884  0.14944319  1
  O2-  O430  1  0.82578995  0.91793060  0.46963599  1
  O2-  O431  1  0.82421360  0.91219480  0.79509107  1
  O2-  O432  1  0.17056288  0.08697346  0.19031477  1
  O2-  O433  1  0.17234843  0.08898677  0.50640152  1
  O2-  O434  1  0.17445180  0.11588021  0.85142651  1
  O2-  O435  1  0.16279235  0.35119373  0.19235475  1
  O2-  O436  1  0.16638823  0.34345745  0.52034399  1
  O2-  O437  1  0.15087130  0.34128853  0.86586634  1
  O2-  O438  1  0.17172167  0.60344376  0.18633331  1
  O2-  O439  1  0.16681984  0.57876267  0.52327496  1
  O2-  O440  1  0.17060997  0.58679138  0.85343663  1
  O2-  O441  1  0.16662635  0.82990350  0.18810727  1
  O2-  O442  1  0.17728165  0.84499352  0.46252688  1
  O2-  O443  1  0.16447165  0.82890225  0.86021398  1
  O2-  O444  1  0.41566573  0.07819915  0.17969760  1
  O2-  O445  1  0.41486465  0.08390982  0.52281900  1
  O2-  O446  1  0.43596450  0.12181241  0.85306949  1
  O2-  O447  1  0.40883481  0.33338962  0.19001790  1
  O2-  O448  1  0.41304927  0.33345960  0.52328386  1
  O2-  O449  1  0.43994374  0.35208164  0.84853147  1
  O2-  O450  1  0.40434639  0.56917537  0.18591223  1
  O2-  O451  1  0.41404152  0.59389655  0.54199397  1
  O2-  O452  1  0.40139994  0.56840125  0.84687807  1
  O2-  O453  1  0.40937567  0.83743031  0.20402563  1
  O2-  O454  1  0.41771139  0.83995478  0.52085066  1
  O2-  O455  1  0.41510166  0.81375071  0.84615629  1
  O2-  O456  1  0.65537847  0.06812711  0.18639352  1
  O2-  O457  1  0.66695129  0.08266527  0.51382433  1
  O2-  O458  1  0.66096892  0.07904026  0.84352197  1
  O2-  O459  1  0.75551295  0.41837582  0.18175388  1
  O2-  O460  1  0.63607462  0.31480693  0.51845925  1
  O2-  O461  1  0.67505300  0.34133120  0.85326114  1
  O2-  O462  1  0.67462354  0.58367162  0.17101895  1
  O2-  O463  1  0.65778405  0.56948881  0.52211039  1
  O2-  O464  1  0.69035330  0.64515466  0.86084966  1
  O2-  O465  1  0.63151327  0.81230096  0.17891101  1
  O2-  O466  1  0.66524191  0.83189091  0.51304715  1
  O2-  O467  1  0.64740113  0.82191289  0.81557589  1
  O2-  O468  1  0.91379995  0.09836815  0.18440020  1
  O2-  O469  1  0.91354286  0.08088383  0.51400683  1
  O2-  O470  1  0.90669279  0.07552470  0.84863911  1
  O2-  O471  1  0.93180999  0.36412079  0.19388305  1
  O2-  O472  1  0.92000211  0.33594686  0.51949971  1
  O2-  O473  1  0.90662874  0.32780228  0.85084606  1
  O2-  O474  1  0.91993721  0.55403764  0.21441881  1
  O2-  O475  1  0.95472025  0.60095788  0.52693443  1
  O2-  O476  1  0.91717908  0.57409688  0.84929692  1
  O2-  O477  1  0.92073781  0.84288179  0.18922197  1
  O2-  O478  1  0.90335513  0.82929865  0.51014200  1
  O2-  O479  1  0.90400241  0.83193653  0.84314317  1
  O2-  O480  1  0.13265777  0.12572552  0.34731537  1
  O2-  O481  1  0.19534417  0.08280058  0.62959781  1
  O2-  O482  1  0.16544192  0.08793936  0.97845159  1
  O2-  O483  1  0.16786629  0.33485469  0.31320559  1
  O2-  O484  1  0.16875020  0.35135037  0.64172918  1
  O2-  O485  1  0.16287600  0.35888821  0.97952611  1
  O2-  O486  1  0.19619040  0.56596739  0.31159625  1
  O2-  O487  1  0.14437711  0.57653118  0.58837475  1
  O2-  O488  1  0.18550925  0.60338369  0.97541353  1
  O2-  O489  1  0.17463783  0.83721065  0.31147005  1
  O2-  O490  1  0.17804857  0.86124388  0.68473480  1
  O2-  O491  1  0.15912930  0.83444313  0.98494799  1
  O2-  O492  1  0.41794037  0.09652470  0.30078238  1
  O2-  O493  1  0.43004623  0.08024210  0.64582143  1
  O2-  O494  1  0.42413949  0.09750575  0.97810205  1
  O2-  O495  1  0.42607878  0.32404553  0.30970918  1
  O2-  O496  1  0.42317622  0.33648748  0.64725660  1
  O2-  O497  1  0.40232169  0.33427400  0.97388694  1
  O2-  O498  1  0.44835900  0.53869810  0.29615143  1
  O2-  O499  1  0.41212819  0.59622894  0.60949500  1
  O2-  O500  1  0.41424251  0.58314656  0.97643109  1
  O2-  O501  1  0.40712949  0.82387556  0.32644341  1
  O2-  O502  1  0.41204602  0.82763559  0.63703595  1
  O2-  O503  1  0.43022860  0.83302296  0.97264577  1
  O2-  O504  1  0.66551379  0.08222792  0.31299379  1
  O2-  O505  1  0.66840586  0.06028225  0.63707415  1
  O2-  O506  1  0.65853876  0.07923866  0.96648811  1
  O2-  O507  1  0.68940802  0.34777357  0.31136354  1
  O2-  O508  1  0.65421440  0.31817101  0.64413272  1
  O2-  O509  1  0.67269026  0.33611773  0.97626542  1
  O2-  O510  1  0.66789708  0.55672252  0.29966483  1
  O2-  O511  1  0.67147745  0.57774782  0.64501253  1
  O2-  O512  1  0.66982385  0.59725147  0.97488833  1
  O2-  O513  1  0.67863003  0.85643035  0.30117181  1
  O2-  O514  1  0.67455289  0.84128587  0.63507808  1
  O2-  O515  1  0.67396877  0.82322463  0.99880734  1
  O2-  O516  1  0.92944989  0.10056505  0.30822512  1
  O2-  O517  1  0.91114714  0.08344782  0.63958069  1
  O2-  O518  1  0.90762854  0.07908830  0.97540234  1
  O2-  O519  1  0.92508050  0.34501122  0.31323831  1
  O2-  O520  1  0.90562974  0.32235047  0.64273702  1
  O2-  O521  1  0.91760596  0.32086936  0.97206007  1
  O2-  O522  1  0.92238922  0.59440585  0.32458799  1
  O2-  O523  1  0.94075429  0.60698318  0.64809771  1
  O2-  O524  1  0.93223768  0.51434468  0.96922674  1
  O2-  O525  1  0.91385440  0.83986686  0.30635664  1
  O2-  O526  1  0.91630899  0.83177660  0.63500119  1
  O2-  O527  1  0.85405678  0.81106962  0.95432037  1
  O2-  O528  1  0.13516446  0.20408033  0.04406568  1
  O2-  O529  1  0.11154419  0.16565817  0.29729275  1
  O2-  O530  1  0.04157741  0.21964232  0.70778532  1
  O2-  O531  1  0.10380127  0.44682880  0.02124392  1
  O2-  O532  1  0.08726496  0.41660735  0.35701716  1
  O2-  O533  1  0.05456843  0.38661183  0.69724485  1
  O2-  O534  1  0.08486589  0.66329528  0.02530315  1
  O2-  O535  1  0.08023140  0.66466375  0.35871731  1
  O2-  O536  1  0.11273186  0.69584810  0.70378578  1
  O2-  O537  1  0.07946987  0.92428993  0.03210794  1
  O2-  O538  1  0.08024996  0.90711749  0.33864565  1
  O2-  O539  1  0.08413111  0.92882923  0.67519414  1
  O2-  O540  1  0.33248077  0.17177478  0.02070612  1
  O2-  O541  1  0.28531247  0.13613248  0.35219966  1
  O2-  O542  1  0.35354709  0.16906240  0.68500810  1
  O2-  O543  1  0.31958597  0.42193448  0.01613669  1
  O2-  O544  1  0.32800187  0.39970461  0.35817811  1
  O2-  O545  1  0.32179449  0.40606330  0.68887069  1
  O2-  O546  1  0.34926807  0.67815497  0.02254300  1
  O2-  O547  1  0.29595707  0.69554846  0.38257210  1
  O2-  O548  1  0.32666859  0.67000041  0.66671810  1
  O2-  O549  1  0.34743494  0.92983064  -0.00058476  1
  O2-  O550  1  0.33968035  0.93258811  0.35322069  1
  O2-  O551  1  0.35391196  0.91902819  0.68045306  1
  O2-  O552  1  0.58361221  0.16400764  0.01037266  1
  O2-  O553  1  0.58838683  0.17559870  0.34528916  1
  O2-  O554  1  0.59181956  0.15291004  0.68319780  1
  O2-  O555  1  0.57260639  0.42129073  -0.01992563  1
  O2-  O556  1  0.58146239  0.40486088  0.34860374  1
  O2-  O557  1  0.58756185  0.41975632  0.69398393  1
  O2-  O558  1  0.57681162  0.66113866  0.02651319  1
  O2-  O559  1  0.68567252  0.71521843  0.34713946  1
  O2-  O560  1  0.57362491  0.65918796  0.66387563  1
  O2-  O561  1  0.59470377  0.91698479  0.01053161  1
  O2-  O562  1  0.57362712  0.90817814  0.35081782  1
  O2-  O563  1  0.62636379  0.87726730  0.66512136  1
  O2-  O564  1  0.81622976  0.15347704  0.01607938  1
  O2-  O565  1  0.83758667  0.17404404  0.35013740  1
  O2-  O566  1  0.82477200  0.15615327  0.68299403  1
  O2-  O567  1  0.82711042  0.38743406  0.04769135  1
  O2-  O568  1  0.84198010  0.43071321  0.36518378  1
  O2-  O569  1  0.82410989  0.40036893  0.67638409  1
  O2-  O570  1  0.82912304  0.67327768  0.02178332  1
  O2-  O571  1  0.82062203  0.66978049  0.34723439  1
  O2-  O572  1  0.83893530  0.66803515  0.68133836  1
  O2-  O573  1  0.85267273  0.93045079  0.02586798  1
  O2-  O574  1  0.84377013  0.93507030  0.34399005  1
  O2-  O575  1  0.83497505  0.91721016  0.67428756  1
