# generated using pymatgen
data_H2O
_symmetry_space_group_name_H-M   'P 1'
_cell_length_a   17.98942820
_cell_length_b   17.99153110
_cell_length_c   22.00437973
_cell_angle_alpha   89.98156374
_cell_angle_beta   90.00216579
_cell_angle_gamma   120.02073700
_symmetry_Int_Tables_number   1
_chemical_formula_structural   H2O
_chemical_formula_sum   'H384 O192'
_cell_volume   6166.43887759
_cell_formula_units_Z   192
loop_
 _symmetry_equiv_pos_site_id
 _symmetry_equiv_pos_as_xyz
  1  'x, y, z'
loop_
 _atom_type_symbol
 _atom_type_oxidation_number
  H+  1.0
  O2-  -2.0
loop_
 _atom_site_type_symbol
 _atom_site_label
 _atom_site_symmetry_multiplicity
 _atom_site_fract_x
 _atom_site_fract_y
 _atom_site_fract_z
 _atom_site_occupancy
  H+  H0  1  -0.08338336  0.82483668  0.56290234  1
  H+  H1  1  0.60946345  0.66202783  0.49550101  1
  H+  H2  1  0.96744322  0.36236739  0.31714781  1
  H+  H3  1  0.58926861  0.66941997  0.73973451  1
  H+  H4  1  0.61884899  0.89475059  0.15964762  1
  H+  H5  1  0.38990475  0.86288717  0.84047859  1
  H+  H6  1  0.41838151  0.08624052  0.23406251  1
  H+  H7  1  0.59030360  0.21491472  0.00986272  1
  H+  H8  1  0.10579117  0.87955369  1.00562010  1
  H+  H9  1  0.26045763  0.35952930  0.15509470  1
  H+  H10  1  0.44154282  0.12415503  0.67143565  1
  H+  H11  1  0.59452229  0.92389635  0.76460459  1
  H+  H12  1  0.27154295  0.13262635  0.48232582  1
  H+  H13  1  0.52705622  0.62512988  0.32102639  1
  H+  H14  1  0.39008517  0.61475699  0.85379527  1
  H+  H15  1  -0.03165622  0.35955710  0.53115961  1
  H+  H16  1  0.86811903  0.47670425  0.81780934  1
  H+  H17  1  0.14920720  0.54243827  0.16678703  1
  H+  H18  1  0.12894288  0.02969029  0.49527405  1
  H+  H19  1  0.77681899  0.63512073  0.33350432  1
  H+  H20  1  0.02519939  0.88798869  0.15806509  1
  H+  H21  1  0.87194233  0.10129800  -0.02572763  1
  H+  H22  1  0.37335289  0.27413346  0.63973228  1
  H+  H23  1  0.12085828  0.73336457  0.34439878  1
  H+  H24  1  0.38735227  0.11175829  0.17166113  1
  H+  H25  1  0.38695012  0.86089993  -0.00553136  1
  H+  H26  1  0.46939737  0.34889588  0.84389224  1
  H+  H27  1  0.01859106  0.13181393  0.81838579  1
  H+  H28  1  0.50735684  0.14248662  0.33816565  1
  H+  H29  1  0.38758345  0.56538141  0.11265624  1
  H+  H30  1  0.63653825  0.54330113  0.16129368  1
  H+  H31  1  0.36246071  0.47288954  0.33955145  1
  H+  H32  1  0.79645498  0.89124800  0.65658252  1
  H+  H33  1  0.62901357  0.02101898  0.83312940  1
  H+  H34  1  0.36710078  0.21675917  0.15616629  1
  H+  H35  1  0.38311423  0.19443313  0.62193883  1
  H+  H36  1  0.72577654  0.13173481  0.34256845  1
  H+  H37  1  0.36188069  0.38555868  0.84112775  1
  H+  H38  1  0.60658478  0.97705626  0.00826806  1
  H+  H39  1  0.92282154  0.55432881  0.18315456  1
  H+  H40  1  0.51296384  0.13501319  0.83463153  1
  H+  H41  1  0.91165856  0.63023087  0.65473907  1
  H+  H42  1  0.04216761  0.40686919  0.16495260  1
  H+  H43  1  0.82288460  0.20275088  0.67063145  1
  H+  H44  1  0.66561049  0.13481330  0.67020284  1
  H+  H45  1  0.76576089  0.61338604  0.67461153  1
  H+  H46  1  0.38137434  0.60666548  0.53269331  1
  H+  H47  1  0.14566631  0.36137676  0.52449123  1
  H+  H48  1  0.01000878  0.36754412  0.67748811  1
  H+  H49  1  0.87701597  0.76818506  0.83446430  1
  H+  H50  1  0.85467100  0.13713624  0.34505880  1
  H+  H51  1  0.69149639  0.36918645  0.00420354  1
  H+  H52  1  0.86895934  0.64105471  0.33934921  1
  H+  H53  1  0.16880435  0.83793472  0.26904940  1
  H+  H54  1  0.62368384  0.42846376  0.15814536  1
  H+  H55  1  0.92973527  0.08954040  0.57099468  1
  H+  H56  1  -0.12452092  0.09710058  0.83011622  1
  H+  H57  1  0.36096412  0.22646504  0.33089010  1
  H+  H58  1  0.66590386  0.38935324  0.84762068  1
  H+  H59  1  0.34896667  0.21079180  0.85113690  1
  H+  H60  1  0.61638398  0.42528112  0.51413072  1
  H+  H61  1  0.86477099  0.97738766  0.33930083  1
  H+  H62  1  0.63481048  0.31212630  0.09030512  1
  H+  H63  1  0.84329040  0.47387549  -0.01000473  1
  H+  H64  1  0.77705548  0.64127720  0.15776404  1
  H+  H65  1  0.64371310  0.04658883  0.50635374  1
  H+  H66  1  0.01688354  0.88019761  0.00604329  1
  H+  H67  1  0.20896525  0.09782993  0.85165350  1
  H+  H68  1  0.39835716  0.78959724  0.51960395  1
  H+  H69  1  0.00785824  0.97726654  0.44514931  1
  H+  H70  1  0.29179228  0.89059570  0.49776001  1
  H+  H71  1  0.10321967  0.72391220  0.00112767  1
  H+  H72  1  0.23531546  0.36325484  0.51454882  1
  H+  H73  1  0.84353813  0.16446783  0.17510627  1
  H+  H74  1  0.85576813  0.72122545  0.49232718  1
  H+  H75  1  0.44253389  0.86321097  0.60812879  1
  H+  H76  1  0.73218153  0.86460834  0.33116844  1
  H+  H77  1  0.87125007  0.36126739  -0.02393298  1
  H+  H78  1  0.64381362  0.02911200  0.17962629  1
  H+  H79  1  0.76489595  0.12738961  0.82783850  1
  H+  H80  1  0.87823984  0.76718996  -0.01234278  1
  H+  H81  1  0.13548748  0.72833896  0.68564563  1
  H+  H82  1  0.21798092  0.85640769  0.99214594  1
  H+  H83  1  0.35287713  0.44190604  0.15601255  1
  H+  H84  1  0.39027388  0.52564078  0.85211514  1
  H+  H85  1  0.51365960  0.88739680  0.16438932  1
  H+  H86  1  0.57230143  0.20233915  0.78485527  1
  H+  H87  1  0.04314912  0.64973349  0.67593559  1
  H+  H88  1  0.82475090  0.16021402  0.03574345  1
  H+  H89  1  0.64707049  0.88571589  0.51146288  1
  H+  H90  1  0.48189779  0.88148883  0.32390893  1
  H+  H91  1  0.52737999  0.40154681  0.68709570  1
  H+  H92  1  0.65141702  0.99716942  0.67901380  1
  H+  H93  1  0.02505986  0.14044452  0.49499142  1
  H+  H94  1  0.38136865  0.60704678  0.99712996  1
  H+  H95  1  0.38942808  0.61395962  0.30587401  1
  H+  H96  1  0.12446537  0.50957785  0.66657568  1
  H+  H97  1  0.63630222  0.82031769  0.35563129  1
  H+  H98  1  0.22356692  0.35535334  0.84310037  1
  H+  H99  1  0.87960529  1.01691846  -0.01525251  1
  H+  H100  1  0.75513333  0.12796591  -0.01700272  1
  H+  H101  1  0.36577098  0.90243320  0.33785793  1
  H+  H102  1  0.52608193  0.63904367  0.83617727  1
  H+  H103  1  0.37749311  0.34020133  0.16795537  1
  H+  H104  1  0.36164423  0.66286764  0.15085109  1
  H+  H105  1  0.47612291  0.61344289  0.67870003  1
  H+  H106  1  0.88251310  0.37520139  0.15409789  1
  H+  H107  1  1.01515909  0.38280069  1.00982510  1
  H+  H108  1  0.36720166  0.72615439  0.83998581  1
  H+  H109  1  0.12083799  0.64561338  0.84403897  1
  H+  H110  1  0.10178560  0.37005954  0.67413933  1
  H+  H111  1  0.12367919  0.10285627  0.84002369  1
  H+  H112  1  0.40078091  0.79203492  0.16847044  1
  H+  H113  1  0.38193165  -0.01684367  0.67919432  1
  H+  H114  1  0.88611855  0.52130323  0.50483007  1
  H+  H115  1  0.86389645  0.88744454  0.33493144  1
  H+  H116  1  0.78051557  0.39092674  0.82333119  1
  H+  H117  1  0.11728278  0.22768000  0.49628635  1
  H+  H118  1  0.23042930  0.12618974  0.64273618  1
  H+  H119  1  0.76401195  0.87986823  0.83345808  1
  H+  H120  1  0.89118032  0.61386118  0.83852052  1
  H+  H121  1  0.27169343  0.88354662  0.82835269  1
  H+  H122  1  0.63159897  0.49070414  0.33890714  1
  H+  H123  1  0.38353285  0.35638186  0.32560685  1
  H+  H124  1  0.38428651  0.26234739  0.48531037  1
  H+  H125  1  0.58528981  0.92480850  0.09637054  1
  H+  H126  1  -0.11271699  -0.01970044  0.64955507  1
  H+  H127  1  0.26867579  0.13022935  1.00163093  1
  H+  H128  1  0.38824745  0.52225362  0.52096800  1
  H+  H129  1  0.12492911  0.71331632  0.50350806  1
  H+  H130  1  0.39331954  0.03519656  0.33165757  1
  H+  H131  1  0.73187602  0.60835891  0.95923474  1
  H+  H132  1  0.40022712  0.87895496  0.50658289  1
  H+  H133  1  0.87438461  0.85342672  0.50909177  1
  H+  H134  1  0.85805489  0.88046965  0.00139913  1
  H+  H135  1  0.88652353  0.61018870  0.49966324  1
  H+  H136  1  0.54295683  0.65954272  0.16719040  1
  H+  H137  1  0.98642261  0.62061752  0.33667052  1
  H+  H138  1  0.96716784  0.85820776  0.83305343  1
  H+  H139  1  0.13123098  0.02427714  0.31686833  1
  H+  H140  1  0.35261603  0.96540700  0.00283647  1
  H+  H141  1  0.26242943  0.38844830  0.68922460  1
  H+  H142  1  0.81552072  0.46533051  0.14123747  1
  H+  H143  1  0.62351741  0.49476056  0.83631723  1
  H+  H144  1  0.13934715  0.36170587  0.16866418  1
  H+  H145  1  0.33014612  0.41799813  0.78390863  1
  H+  H146  1  0.16047695  0.57545153  0.57971818  1
  H+  H147  1  0.36721008  0.38371926  0.49379506  1
  H+  H148  1  0.72330224  0.86441802  0.99287999  1
  H+  H149  1  0.36240800  0.98020727  0.16022235  1
  H+  H150  1  0.11977110  0.48837885  0.31641564  1
  H+  H151  1  1.07473625  0.16863628  0.10069666  1
  H+  H152  1  0.51948333  0.11140296  0.65659749  1
  H+  H153  1  0.64956240  0.65515184  0.87888069  1
  H+  H154  1  0.64526731  0.78026604  0.66242381  1
  H+  H155  1  0.24505264  0.87080503  0.67120311  1
  H+  H156  1  0.90592929  0.09643159  0.16669024  1
  H+  H157  1  0.97433586  0.11498117  0.33217107  1
  H+  H158  1  0.64252544  0.78893911  0.17338919  1
  H+  H159  1  0.61308824  0.63935601  0.67766097  1
  H+  H160  1  0.35395794  0.62733040  0.69645898  1
  H+  H161  1  0.11326086  0.36908037  0.82388707  1
  H+  H162  1  0.43692355  0.85407409  0.23057607  1
  H+  H163  1  0.24697829  0.77601366  0.55549246  1
  H+  H164  1  0.62017016  0.10750412  0.17339943  1
  H+  H165  1  0.89548891  1.03437050  0.50655785  1
  H+  H166  1  0.38506818  0.01494218  0.83944780  1
  H+  H167  1  0.08510183  0.16979132  0.39932661  1
  H+  H168  1  0.22702358  0.87351872  0.32880879  1
  H+  H169  1  0.13390610  0.26434654  0.83555865  1
  H+  H170  1  0.60845196  0.73266078  1.01246373  1
  H+  H171  1  0.14533890  0.62518286  0.32248230  1
  H+  H172  1  0.85872200  0.87511994  0.83046934  1
  H+  H173  1  0.51845138  0.88636671  0.01282876  1
  H+  H174  1  0.07701976  0.39746301  0.76219224  1
  H+  H175  1  0.87203695  0.27293504  0.97711604  1
  H+  H176  1  0.61848624  0.71033759  0.32211700  1
  H+  H177  1  0.13121844  0.26322589  0.66757922  1
  H+  H178  1  0.63376618  0.52482938  0.65680097  1
  H+  H179  1  0.27647164  0.12898014  0.15595172  1
  H+  H180  1  0.11328717  0.47271569  0.51942112  1
  H+  H181  1  0.36711954  0.46718357  0.00495825  1
  H+  H182  1  0.09531339  0.67040889  0.40286818  1
  H+  H183  1  0.63517528  0.60241561  0.31915604  1
  H+  H184  1  0.74310236  0.41124347  0.67576060  1
  H+  H185  1  0.11869157  0.64647011  -0.00691624  1
  H+  H186  1  0.59745264  0.19396115  0.14278742  1
  H+  H187  1  0.88298492  0.76769465  0.31849485  1
  H+  H188  1  0.22934936  0.86901896  0.17361607  1
  H+  H189  1  0.24077340  0.63302321  0.87670623  1
  H+  H190  1  0.30326825  0.52753444  0.14994672  1
  H+  H191  1  0.12233723  0.97663883  0.67033643  1
  H+  H192  1  0.13202646  0.86220367  0.83833494  1
  H+  H193  1  0.80773955  0.44345898  0.73244193  1
  H+  H194  1  0.11297156  0.22668000  0.33855724  1
  H+  H195  1  0.46052851  0.09928148  0.99103252  1
  H+  H196  1  0.27787481  0.64721386  0.31655982  1
  H+  H197  1  0.65105153  0.19597780  0.49447320  1
  H+  H198  1  0.09011810  0.67608796  0.09149956  1
  H+  H199  1  0.77477831  0.62685345  0.83406449  1
  H+  H200  1  0.37217419  0.10095536  0.99021528  1
  H+  H201  1  0.92046531  0.32785844  0.11750558  1
  H+  H202  1  0.63579444  0.90048363  0.67614963  1
  H+  H203  1  0.03575406  0.88616685  0.66810370  1
  H+  H204  1  0.39521773  0.79013327  0.31332800  1
  H+  H205  1  0.51661826  0.37049270  0.49329917  1
  H+  H206  1  0.14146011  0.36580409  0.31618924  1
  H+  H207  1  0.33180463  0.15743548  0.05999726  1
  H+  H208  1  0.39266964  0.26335935  0.99470323  1
  H+  H209  1  0.83510583  0.17089373  0.40701997  1
  H+  H210  1  0.82107599  0.64512658  0.76928624  1
  H+  H211  1  0.64091512  0.87194395  0.83802937  1
  H+  H212  1  0.13992840  0.02358812  0.16577863  1
  H+  H213  1  0.98150546  0.61546303  0.84062693  1
  H+  H214  1  0.62990103  0.11216179  0.83554617  1
  H+  H215  1  0.61103337  0.73107132  0.83052669  1
  H+  H216  1  0.87411548  0.14321197  0.49917653  1
  H+  H217  1  0.36825789  0.89558904  0.15838091  1
  H+  H218  1  0.07434711  0.83697539  0.54178756  1
  H+  H219  1  0.88306726  0.27065593  0.51787669  1
  H+  H220  1  0.77750299  0.89019355  0.16377527  1
  H+  H221  1  0.63519107  0.39664956  0.34780782  1
  H+  H222  1  0.38793879  0.12298036  0.32577585  1
  H+  H223  1  0.63578276  0.86737713  -0.00490954  1
  H+  H224  1  0.63721692  0.26198287  0.66352477  1
  H+  H225  1  0.86495503  0.38596753  0.34132354  1
  H+  H226  1  0.86115539  0.63155579  -0.00261432  1
  H+  H227  1  0.27373709  0.38537721  0.34099986  1
  H+  H228  1  0.42703465  0.84110901  0.89943316  1
  H+  H229  1  0.09282210  0.23775227  1.01333597  1
  H+  H230  1  0.97142626  0.60540991  0.98993399  1
  H+  H231  1  0.53406208  0.90774070  0.50241280  1
  H+  H232  1  0.72441429  0.34304813  0.50726578  1
  H+  H233  1  0.27582106  0.65279117  -0.01465751  1
  H+  H234  1  0.40980949  0.07014416  0.90102332  1
  H+  H235  1  -0.02620844  0.85895581  0.31357963  1
  H+  H236  1  0.89233435  0.25742504  0.83425772  1
  H+  H237  1  0.27687807  0.66803910  0.15719206  1
  H+  H238  1  0.83220639  0.91478788  0.43683286  1
  H+  H239  1  0.13415789  0.60240270  0.51504592  1
  H+  H240  1  0.39212867  0.77446350  -0.00980447  1
  H+  H241  1  0.60808604  0.23934455  0.34562558  1
  H+  H242  1  0.10656594  0.88648212  0.33379639  1
  H+  H243  1  0.65038196  0.63628299  0.17208496  1
  H+  H244  1  0.87368376  0.34966535  0.67613282  1
  H+  H245  1  0.62393314  0.54432081  0.49399983  1
  H+  H246  1  0.10893360  0.13383019  0.66802765  1
  H+  H247  1  0.99979333  0.64475314  0.17000215  1
  H+  H248  1  0.13468113  0.11465336  0.32191483  1
  H+  H249  1  0.17209715  0.32942763  0.26264319  1
  H+  H250  1  0.75030195  0.36705201  0.14072846  1
  H+  H251  1  0.09937768  0.96865306  0.82809574  1
  H+  H252  1  0.13993133  0.12115251  0.50142909  1
  H+  H253  1  0.37389226  -0.01255955  0.49367684  1
  H+  H254  1  0.07686521  0.81872899  0.51166049  1
  H+  H255  1  0.07898210  0.91355588  0.76642316  1
  H+  H256  1  0.62113733  0.92133918  0.34047227  1
  H+  H257  1  0.87459177  -0.02954820  0.16322516  1
  H+  H258  1  0.50369484  0.89184813  0.66598154  1
  H+  H259  1  0.64413025  0.29282855  0.85554558  1
  H+  H260  1  0.26977047  0.63460824  0.52056523  1
  H+  H261  1  0.73303159  0.13554412  0.19538558  1
  H+  H262  1  0.52764543  0.88892332  0.82233371  1
  H+  H263  1  0.62409491  0.10578730  0.98370738  1
  H+  H264  1  0.61059149  1.00235971  0.34881602  1
  H+  H265  1  0.85880899  0.38163872  0.50286868  1
  H+  H266  1  0.38337192  0.39369177  0.68109961  1
  H+  H267  1  0.89941997  0.77450001  0.65767037  1
  H+  H268  1  0.12060156  0.13685520  0.15278068  1
  H+  H269  1  0.74309751  0.37189333  0.33928533  1
  H+  H270  1  0.87526619  0.85838650  0.17147820  1
  H+  H271  1  0.60525873  0.38346075  0.67692678  1
  H+  H272  1  0.87102419  0.64769541  0.15891172  1
  H+  H273  1  0.86858362  0.47844884  0.34437981  1
  H+  H274  1  0.60793248  0.14793193  0.34896682  1
  H+  H275  1  0.47319290  0.35819058  0.16754835  1
  H+  H276  1  0.63413417  0.79063276  0.50880375  1
  H+  H277  1  0.35055960  0.12272542  0.84708508  1
  H+  H278  1  1.01033712  0.35831646  0.82645862  1
  H+  H279  1  0.12474547  0.74065184  0.15115351  1
  H+  H280  1  0.13802307  0.02188562  0.99849114  1
  H+  H281  1  0.62517786  0.31104772  0.49684136  1
  H+  H282  1  0.35073467  0.48304364  0.69252387  1
  H+  H283  1  0.38948298  0.11343740  0.50439147  1
  H+  H284  1  0.72123380  0.62032198  0.49950710  1
  H+  H285  1  0.27193130  0.13437191  0.32808482  1
  H+  H286  1  0.86103805  -0.02660966  0.82801639  1
  H+  H287  1  1.00626381  0.14614591  1.00935554  1
  H+  H288  1  0.53696692  0.36079029  0.00449560  1
  H+  H289  1  0.89627576  0.32253660  0.61271564  1
  H+  H290  1  0.99575225  0.10465870  0.17450158  1
  H+  H291  1  0.44209043  0.41493208  0.62293632  1
  H+  H292  1  0.83263272  0.40969615  0.44054653  1
  H+  H293  1  0.58961519  0.68578496  0.10050365  1
  H+  H294  1  0.60122388  0.30807900  0.15815491  1
  H+  H295  1  0.81678092  0.41332481  0.04711391  1
  H+  H296  1  0.81349666  0.14784682  0.76525692  1
  H+  H297  1  0.42179921  0.58056150  0.94382835  1
  H+  H298  1  0.38430517  0.89657224  0.67950016  1
  H+  H299  1  0.66736769  0.84692484  0.23345273  1
  H+  H300  1  0.91608115  0.58175914  0.92851696  1
  H+  H301  1  0.02799663  0.63379512  0.49396267  1
  H+  H302  1  0.13932681  0.86711278  0.17254275  1
  H+  H303  1  0.13073033  0.26680940  0.16918482  1
  H+  H304  1  0.14195780  0.62873216  0.16423570  1
  H+  H305  1  0.32347753  0.67335545  0.05209907  1
  H+  H306  1  0.30426922  0.18437302  0.73399385  1
  H+  H307  1  0.34735101  0.67667642  0.36856737  1
  H+  H308  1  0.89460073  0.19811705  0.09972434  1
  H+  H309  1  0.82803115  0.66593676  0.43131695  1
  H+  H310  1  0.42462037  0.33028648  0.90879407  1
  H+  H311  1  0.89958128  0.86514973  0.64985110  1
  H+  H312  1  0.33910140  0.92908551  0.40020875  1
  H+  H313  1  0.56546942  0.14084081  0.05884365  1
  H+  H314  1  0.33111286  0.39725469  0.05832363  1
  H+  H315  1  0.87716653  0.76327258  0.16819891  1
  H+  H316  1  0.41278506  0.32671450  0.26609391  1
  H+  H317  1  0.17135577  0.60127788  0.25732000  1
  H+  H318  1  0.43068804  0.08997793  0.56111998  1
  H+  H319  1  0.16049116  0.83269744  0.93203492  1
  H+  H320  1  0.40892077  0.56601933  0.25374917  1
  H+  H321  1  0.67933297  0.34308145  0.28143404  1
  H+  H322  1  0.22455838  0.35974002  0.98896299  1
  H+  H323  1  0.66623784  0.83977140  0.89956964  1
  H+  H324  1  0.91642711  0.17326064  0.10952120  1
  H+  H325  1  0.06334389  0.92035038  0.38409803  1
  H+  H326  1  0.01517168  0.12858956  0.66257627  1
  H+  H327  1  0.33715811  0.41940193  0.43885426  1
  H+  H328  1  0.93333856  0.59908443  0.27552753  1
  H+  H329  1  0.59896975  0.42826409  0.40696337  1
  H+  H330  1  0.10342701  0.38205855  0.01031736  1
  H+  H331  1  0.84452048  0.24886484  0.19089903  1
  H+  H332  1  0.80191388  0.55279525  0.69604582  1
  H+  H333  1  0.62620278  0.45761024  0.77114174  1
  H+  H334  1  -0.00560254  0.89587138  0.47997461  1
  H+  H335  1  0.52009626  0.65405006  0.50751139  1
  H+  H336  1  0.89328449  0.09832848  0.65072255  1
  H+  H337  1  0.65018576  0.07179742  0.92445934  1
  H+  H338  1  0.92281043  0.32621660  0.89026661  1
  H+  H339  1  0.32209509  0.65429003  0.78887724  1
  H+  H340  1  0.61142833  0.14803162  0.72733367  1
  H+  H341  1  0.67232439  0.83987423  0.60266889  1
  H+  H342  1  0.91052312  0.07220974  0.88973926  1
  H+  H343  1  0.90991865  0.83007532  0.93087022  1
  H+  H344  1  0.07893203  0.16143861  0.75983328  1
  H+  H345  1  0.09025208  0.42878124  0.37283328  1
  H+  H346  1  0.32269665  0.15541799  0.72931281  1
  H+  H347  1  0.77475417  0.89327455  0.49680566  1
  H+  H348  1  0.32889959  0.15733530  0.42140614  1
  H+  H349  1  0.94501543  0.61035809  0.59370633  1
  H+  H350  1  0.50832910  0.10877657  0.16102292  1
  H+  H351  1  0.09002869  0.42363927  0.10192983  1
  H+  H352  1  0.09502920  0.66388669  0.77706417  1
  H+  H353  1  0.13395184  0.60414845  0.67000582  1
  H+  H354  1  0.83354652  0.91372373  0.06127528  1
  H+  H355  1  0.82386934  0.65886410  0.05351656  1
  H+  H356  1  0.66917029  0.57212035  0.26232305  1
  H+  H357  1  0.90714039  0.82410855  0.23652890  1
  H+  H358  1  0.15914070  0.07840176  0.93954175  1
  H+  H359  1  0.13580174  0.77477867  0.84111769  1
  H+  H360  1  0.08034586  0.91190404  0.09682733  1
  H+  H361  1  0.16041827  0.33033614  0.93268248  1
  H+  H362  1  0.26217383  0.61883130  0.69412980  1
  H+  H363  1  0.16349767  0.08002739  0.59186418  1
  H+  H364  1  0.78434865  0.14544818  0.49798170  1
  H+  H365  1  0.58922557  0.93871885  0.44184190  1
  H+  H366  1  0.52005583  0.64222154  0.01839201  1
  H+  H367  1  0.40180770  0.35678817  0.99637243  1
  H+  H368  1  0.32624676  0.90977617  0.06343635  1
  H+  H369  1  0.41532950  0.57966809  0.62041218  1
  H+  H370  1  0.16820443  0.08465268  0.22450119  1
  H+  H371  1  0.88131545  0.27505864  0.33230504  1
  H+  H372  1  0.07057217  0.39895462  0.46971202  1
  H+  H373  1  0.91958108  0.08213613  0.27178328  1
  H+  H374  1  0.33850130  0.66278178  0.46852624  1
  H+  H375  1  0.66444123  0.10320997  0.28344377  1
  H+  H376  1  0.33618086  0.91461015  0.77057299  1
  H+  H377  1  0.58719740  0.42370840  0.09217462  1
  H+  H378  1  0.39779536  0.29355128  0.55080658  1
  H+  H379  1  0.65061322  0.31267993  0.60226310  1
  H+  H380  1  0.19575348  0.81590144  0.58427805  1
  H+  H381  1  0.15270513  0.86557555  0.66573925  1
  H+  H382  1  0.17167322  0.32800394  0.61143274  1
  H+  H383  1  0.66045251  0.58706026  0.59817994  1
  O2-  O384  1  0.08446900  0.16422108  0.14624460  1
  O2-  O385  1  0.08604837  0.16935308  0.47765886  1
  O2-  O386  1  0.07976035  0.16333907  0.80579580  1
  O2-  O387  1  0.10049737  0.43266288  0.14798956  1
  O2-  O388  1  0.08027458  0.40790163  0.51321980  1
  O2-  O389  1  0.07765362  0.39553694  0.80865261  1
  O2-  O390  1  0.09195282  0.67906329  0.13761148  1
  O2-  O391  1  0.08960672  0.65802817  0.48144454  1
  O2-  O392  1  0.08914446  0.66930465  0.82186415  1
  O2-  O393  1  0.08455960  0.91612705  0.14308860  1
  O2-  O394  1  0.03708134  0.94495917  0.45353565  1
  O2-  O395  1  0.07092643  0.90825732  0.81147831  1
  O2-  O396  1  0.33752636  0.15585380  0.14143489  1
  O2-  O397  1  0.33186095  0.16086138  0.46677076  1
  O2-  O398  1  0.31287220  0.14827109  0.84624204  1
  O2-  O399  1  0.32148762  0.38362718  0.13945720  1
  O2-  O400  1  0.33923951  0.41815126  0.48418810  1
  O2-  O401  1  0.33063262  0.41610207  0.82936480  1
  O2-  O402  1  0.33828887  0.70102279  0.14220257  1
  O2-  O403  1  0.33378344  0.66899201  0.51200929  1
  O2-  O404  1  0.33210526  0.66266837  0.83443495  1
  O2-  O405  1  0.33274666  0.91981693  0.14459656  1
  O2-  O406  1  0.34685347  0.92653346  0.47622888  1
  O2-  O407  1  0.33358731  0.91248551  0.81619671  1
  O2-  O408  1  0.56766779  0.12947576  0.14174398  1
  O2-  O409  1  0.64689036  0.14667227  0.47100189  1
  O2-  O410  1  0.57525143  0.17258726  0.82099031  1
  O2-  O411  1  0.58083773  0.43614236  0.13631004  1
  O2-  O412  1  0.57879409  0.40358790  0.47875821  1
  O2-  O413  1  0.65207862  0.47091499  0.81230436  1
  O2-  O414  1  0.59994779  0.69090034  0.14896220  1
  O2-  O415  1  0.57567733  0.69024583  0.48667830  1
  O2-  O416  1  0.58685990  0.66909144  0.82108663  1
  O2-  O417  1  0.58706620  0.92543444  0.14505468  1
  O2-  O418  1  0.59444313  0.94135748  0.48656678  1
  O2-  O419  1  0.58985990  0.92143778  0.81075031  1
  O2-  O420  1  0.81455914  0.18534925  0.20195812  1
  O2-  O421  1  0.84544032  0.17571815  0.48334414  1
  O2-  O422  1  0.82373641  0.15143858  0.81002788  1
  O2-  O423  1  0.81227318  0.41018178  0.13485323  1
  O2-  O424  1  0.82747224  0.40991419  0.48546651  1
  O2-  O425  1  0.83288092  0.42072009  0.79742058  1
  O2-  O426  1  0.83811287  0.67474540  0.14290026  1
  O2-  O427  1  0.82376674  0.66061652  0.47629961  1
  O2-  O428  1  0.83032366  0.66115456  0.81381560  1
  O2-  O429  1  0.83676543  0.90966983  0.14841532  1
  O2-  O430  1  0.83535770  0.91674336  0.48171449  1
  O2-  O431  1  0.82690132  0.90806507  0.81797664  1
  O2-  O432  1  0.17198823  0.08494730  0.17909621  1
  O2-  O433  1  0.16808836  0.08673666  0.51317258  1
  O2-  O434  1  0.14502651  0.06697581  0.85923021  1
  O2-  O435  1  0.16637154  0.32816848  0.18340240  1
  O2-  O436  1  0.17638975  0.32930115  0.53229223  1
  O2-  O437  1  0.16045399  0.32416244  0.85266001  1
  O2-  O438  1  0.17636855  0.60323846  0.18151416  1
  O2-  O439  1  0.16577986  0.57500197  0.53338419  1
  O2-  O440  1  0.18186121  0.61149627  0.89428311  1
  O2-  O441  1  0.16889300  0.83666642  0.18887220  1
  O2-  O442  1  0.21056598  0.79945242  0.54366740  1
  O2-  O443  1  0.16586505  0.83633126  0.85462360  1
  O2-  O444  1  0.41820463  0.08167442  0.18888971  1
  O2-  O445  1  0.42114744  0.08397217  0.51683167  1
  O2-  O446  1  0.41543364  0.07548475  0.85558188  1
  O2-  O447  1  0.41545292  0.31864576  0.18401610  1
  O2-  O448  1  0.41429787  0.31821275  0.50923546  1
  O2-  O449  1  0.41415188  0.32941241  0.86352290  1
  O2-  O450  1  0.36581117  0.56100611  0.15415534  1
  O2-  O451  1  0.41592121  0.57893358  0.54190840  1
  O2-  O452  1  0.42371529  0.58623757  0.86652319  1
  O2-  O453  1  0.44060691  0.85369788  0.18394708  1
  O2-  O454  1  0.43160653  0.85220163  0.52626822  1
  O2-  O455  1  0.42543781  0.83741245  0.85423910  1
  O2-  O456  1  0.66076247  0.08718602  0.19656291  1
  O2-  O457  1  0.67982054  0.10958578  0.51583495  1
  O2-  O458  1  0.65883042  0.08119699  0.85082156  1
  O2-  O459  1  0.64183477  0.29860361  0.13474992  1
  O2-  O460  1  0.66434938  0.29910970  0.52008818  1
  O2-  O461  1  0.68557548  0.35212311  0.86670300  1
  O2-  O462  1  0.67416621  0.59800609  0.18316685  1
  O2-  O463  1  0.66121604  0.59729936  0.51597963  1
  O2-  O464  1  0.69676066  0.67144729  0.90914328  1
  O2-  O465  1  0.67064741  0.85064150  0.18855489  1
  O2-  O466  1  0.67378721  0.85108621  0.52374402  1
  O2-  O467  1  0.67075524  0.84099947  0.85408838  1
  O2-  O468  1  0.93276991  0.06976757  0.18979507  1
  O2-  O469  1  0.92777683  0.09446553  0.52085312  1
  O2-  O470  1  0.90780145  0.06794010  0.84399246  1
  O2-  O471  1  0.91216894  0.34138074  0.15917802  1
  O2-  O472  1  0.90521721  0.32917218  0.53713759  1
  O2-  O473  1  0.93089392  0.31836339  0.84636140  1
  O2-  O474  1  0.94057945  0.61444502  0.19019853  1
  O2-  O475  1  0.92110611  0.58402981  0.51305694  1
  O2-  O476  1  0.92042804  0.58325834  0.85445636  1
  O2-  O477  1  0.90596354  0.82541894  0.18695358  1
  O2-  O478  1  0.90769754  0.82343936  0.51752903  1
  O2-  O479  1  0.90613304  0.82943908  0.84871329  1
  O2-  O480  1  0.16431502  0.08542722  0.30364490  1
  O2-  O481  1  0.16933423  0.08366119  0.63716220  1
  O2-  O482  1  0.17062794  0.08192045  0.98397426  1
  O2-  O483  1  0.17112608  0.33277782  0.30795734  1
  O2-  O484  1  0.16361268  0.32701173  0.65641440  1
  O2-  O485  1  0.16329126  0.33557259  0.97783585  1
  O2-  O486  1  0.17507518  0.59651598  0.30276455  1
  O2-  O487  1  0.15885943  0.56978390  0.65173733  1
  O2-  O488  1  0.19767524  0.64318626  0.95718932  1
  O2-  O489  1  0.16647693  0.83847699  0.31452085  1
  O2-  O490  1  0.18478720  0.83512175  0.65545571  1
  O2-  O491  1  0.15743732  0.83014125  0.97767982  1
  O2-  O492  1  0.42512086  0.09585313  0.31490036  1
  O2-  O493  1  0.45684187  0.09001536  0.64550881  1
  O2-  O494  1  0.40025580  0.06701881  0.97655526  1
  O2-  O495  1  0.41111312  0.32380229  0.31107143  1
  O2-  O496  1  0.42570404  0.37961250  0.65956201  1
  O2-  O497  1  0.43200949  0.32546239  0.98324155  1
  O2-  O498  1  0.41608988  0.57802794  0.29733067  1
  O2-  O499  1  0.41432514  0.58091270  0.66576181  1
  O2-  O500  1  0.41518431  0.57735534  0.98946353  1
  O2-  O501  1  0.42512646  0.85227433  0.30224154  1
  O2-  O502  1  0.44256916  0.86311437  0.65299276  1
  O2-  O503  1  0.42482779  0.83786916  0.98098312  1
  O2-  O504  1  0.66367086  0.10594900  0.32804998  1
  O2-  O505  1  0.71011069  0.09895708  0.65544781  1
  O2-  O506  1  0.65262480  0.07318713  0.97059364  1
  O2-  O507  1  0.67795990  0.34199804  0.32581762  1
  O2-  O508  1  0.64354775  0.31648445  0.64656766  1
  O2-  O509  1  0.63085105  0.33358485  1.02070579  1
  O2-  O510  1  0.66894059  0.57146621  0.30777501  1
  O2-  O511  1  0.66200796  0.58596989  0.64322628  1
  O2-  O512  1  0.68753086  0.58789394  0.92651431  1
  O2-  O513  1  0.66949842  0.83493172  0.31794000  1
  O2-  O514  1  0.67794716  0.84051924  0.64786769  1
  O2-  O515  1  0.66270273  0.83571965  0.97774211  1
  O2-  O516  1  0.91372862  0.08307687  0.31653223  1
  O2-  O517  1  0.93209175  0.08100427  0.63313288  1
  O2-  O518  1  0.90795492  0.07496431  0.96542617  1
  O2-  O519  1  0.90446030  0.33253031  0.31288566  1
  O2-  O520  1  0.89817495  0.31695619  0.65830659  1
  O2-  O521  1  0.90742785  0.33514217  0.96760984  1
  O2-  O522  1  0.92618642  0.59076403  0.32005424  1
  O2-  O523  1  0.96367382  0.63832627  0.63380943  1
  O2-  O524  1  0.91112196  0.57857146  0.97452571  1
  O2-  O525  1  0.91134198  0.82718587  0.29949998  1
  O2-  O526  1  0.93108749  0.83090575  0.63854686  1
  O2-  O527  1  0.90918730  0.82948564  0.97612980  1
  O2-  O528  1  0.05036403  0.18757849  0.03742354  1
  O2-  O529  1  0.08172011  0.16632507  0.35369948  1
  O2-  O530  1  0.07747261  0.16212618  0.68351976  1
  O2-  O531  1  0.06928310  0.40293902  0.03246386  1
  O2-  O532  1  0.08871672  0.42606166  0.32866055  1
  O2-  O533  1  0.07142179  0.40034370  0.69021599  1
  O2-  O534  1  0.07986648  0.66348263  0.01572632  1
  O2-  O535  1  0.09308819  0.67180286  0.35728697  1
  O2-  O536  1  0.09910633  0.66704786  0.69787511  1
  O2-  O537  1  0.07584027  0.90895984  0.02360328  1
  O2-  O538  1  0.07081510  0.91449120  0.33954711  1
  O2-  O539  1  0.09444295  0.91699319  0.68658489  1
  O2-  O540  1  0.33205028  0.16006625  0.01487466  1
  O2-  O541  1  0.33217975  0.16313316  0.34368190  1
  O2-  O542  1  0.34787477  0.22061082  0.61461511  1
  O2-  O543  1  0.33800527  0.40403304  0.01358673  1
  O2-  O544  1  0.33332854  0.41499605  0.35791661  1
  O2-  O545  1  0.32158401  0.42162561  0.70739341  1
  O2-  O546  1  0.33372079  0.66836183  0.00887059  1
  O2-  O547  1  0.34250367  0.67758308  0.32451151  1
  O2-  O548  1  0.31795305  0.64832010  0.71531296  1
  O2-  O549  1  0.32537371  0.90487953  0.01845600  1
  O2-  O550  1  0.33720685  0.93295323  0.35439116  1
  O2-  O551  1  0.34862677  0.92338905  0.69422367  1
  O2-  O552  1  0.56804404  0.15268052  0.01472343  1
  O2-  O553  1  0.57244437  0.17703002  0.35735217  1
  O2-  O554  1  0.61837780  0.15892678  0.68367445  1
  O2-  O555  1  0.59740709  0.39432345  0.02192428  1
  O2-  O556  1  0.60543997  0.42968504  0.36107699  1
  O2-  O557  1  0.58990313  0.42571125  0.69328293  1
  O2-  O558  1  0.57853122  0.67823484  0.03616848  1
  O2-  O559  1  0.58778597  0.64932537  0.33349051  1
  O2-  O560  1  0.58452176  0.67019088  0.69456074  1
  O2-  O561  1  0.57945842  0.92014249  0.02988925  1
  O2-  O562  1  0.58182369  0.93890070  0.35732944  1
  O2-  O563  1  0.61087756  0.93561273  0.69199048  1
  O2-  O564  1  0.81928970  0.16027003  -0.00840220  1
  O2-  O565  1  0.82684282  0.16871899  0.36139951  1
  O2-  O566  1  0.79453979  0.14305529  0.68664993  1
  O2-  O567  1  0.80574785  0.41223333  0.00330209  1
  O2-  O568  1  0.83506294  0.41760133  0.35828138  1
  O2-  O569  1  0.79546699  0.46120316  0.69156491  1
  O2-  O570  1  0.82678266  0.65977768  0.00889277  1
  O2-  O571  1  0.83633803  0.67134760  0.34927421  1
  O2-  O572  1  0.81518728  0.61529223  0.69618697  1
  O2-  O573  1  0.82940826  0.91301805  0.01653925  1
  O2-  O574  1  0.83313845  0.91537383  0.35226151  1
  O2-  O575  1  0.85909208  0.91735326  0.66239528  1
