# generated using pymatgen
data_H2O
_symmetry_space_group_name_H-M   'P 1'
_cell_length_a   17.99589181
_cell_length_b   18.00112939
_cell_length_c   22.01408350
_cell_angle_alpha   90.00822014
_cell_angle_beta   89.99252440
_cell_angle_gamma   120.02755463
_symmetry_Int_Tables_number   1
_chemical_formula_structural   H2O
_chemical_formula_sum   'H384 O192'
_cell_volume   6174.24288976
_cell_formula_units_Z   192
loop_
 _symmetry_equiv_pos_site_id
 _symmetry_equiv_pos_as_xyz
  1  'x, y, z'
loop_
 _atom_type_symbol
 _atom_type_oxidation_number
  H+  1.0
  O2-  -2.0
loop_
 _atom_site_type_symbol
 _atom_site_label
 _atom_site_symmetry_multiplicity
 _atom_site_fract_x
 _atom_site_fract_y
 _atom_site_fract_z
 _atom_site_occupancy
  H+  H0  1  0.87100642  0.01045453  0.84583871  1
  H+  H1  1  0.13655880  0.29823887  0.82730983  1
  H+  H2  1  0.22824945  0.61491110  0.32184125  1
  H+  H3  1  0.47867558  0.60335899  0.99783515  1
  H+  H4  1  0.72444155  0.86198428  0.99316233  1
  H+  H5  1  0.95653635  0.62136506  0.16904543  1
  H+  H6  1  0.61470590  0.97519048  0.67164404  1
  H+  H7  1  0.13992618  0.99035731  0.67514868  1
  H+  H8  1  0.14244286  0.76820121  0.29665490  1
  H+  H9  1  0.74707927  0.62357759  0.83315763  1
  H+  H10  1  0.14609422  0.39989528  1.01332726  1
  H+  H11  1  0.32608135  0.89172541  0.73043758  1
  H+  H12  1  0.90909580  0.34126805  0.56404612  1
  H+  H13  1  0.45807212  0.36857242  0.41592047  1
  H+  H14  1  0.85839845  0.90124382  0.68689373  1
  H+  H15  1  0.13376518  0.13293042  0.83561530  1
  H+  H16  1  0.61288703  0.89019360  0.00938158  1
  H+  H17  1  0.63539655  0.62334300  0.50954159  1
  H+  H18  1  0.21372997  0.60235183  0.67560981  1
  H+  H19  1  0.13996595  0.86279334  0.66324810  1
  H+  H20  1  0.14180559  0.60757914  0.51688962  1
  H+  H21  1  0.62139380  0.50184148  0.98232170  1
  H+  H22  1  0.88737349  0.61903358  0.32174491  1
  H+  H23  1  0.77717645  0.87175096  0.34024201  1
  H+  H24  1  0.37403394  0.83405568  0.65477041  1
  H+  H25  1  0.68488113  0.96251770  0.34744332  1
  H+  H26  1  0.10587526  0.12818187  0.15988381  1
  H+  H27  1  0.19565033  0.59934676  0.85773059  1
  H+  H28  1  0.27382755  0.64263109  0.17863737  1
  H+  H29  1  0.10978555  0.37466680  0.68160532  1
  H+  H30  1  0.85775052  0.88485790  0.82856930  1
  H+  H31  1  0.27186788  0.41787093  0.83300542  1
  H+  H32  1  0.48263184  0.85822350  0.16174200  1
  H+  H33  1  0.96338203  0.59010546  0.66317072  1
  H+  H34  1  0.34943554  0.35206758  0.32316284  1
  H+  H35  1  0.61432189  0.19324754  0.56050402  1
  H+  H36  1  0.24154811  0.11507679  0.50859345  1
  H+  H37  1  0.79009811  0.14588649  0.49235261  1
  H+  H38  1  0.14204115  0.62142640  1.01502798  1
  H+  H39  1  0.62540940  0.84786554  0.16761434  1
  H+  H40  1  0.84701547  0.33259106  0.12031718  1
  H+  H41  1  0.15169202  -0.00431823  0.86602983  1
  H+  H42  1  0.14937146  0.36194839  0.18149859  1
  H+  H43  1  0.70417924  0.38717493  0.59257298  1
  H+  H44  1  0.01376293  0.63482112  0.32528259  1
  H+  H45  1  0.61766305  0.49085113  0.49209989  1
  H+  H46  1  0.58491307  0.91742896  0.76553056  1
  H+  H47  1  0.36348889  0.70626351  0.69066302  1
  H+  H48  1  -0.02558128  0.86195589  -0.01229581  1
  H+  H49  1  0.12312752  0.22372418  0.66101968  1
  H+  H50  1  0.23272918  0.35824327  -0.00464390  1
  H+  H51  1  0.89103271  0.77336314  0.83190891  1
  H+  H52  1  0.97821959  0.86416067  0.83411874  1
  H+  H53  1  0.39160410  0.61545004  0.53573977  1
  H+  H54  1  0.16567326  0.53815732  0.01582948  1
  H+  H55  1  0.87397721  0.63372865  0.82327448  1
  H+  H56  1  0.60742916  0.15429941  -0.00529972  1
  H+  H57  1  0.01502474  0.87682896  0.15836558  1
  H+  H58  1  0.38613090  0.04512802  0.31366469  1
  H+  H59  1  0.36574937  0.11562848  0.68001376  1
  H+  H60  1  0.89083233  0.03335088  0.50615347  1
  H+  H61  1  0.05056280  0.89197000  0.51536453  1
  H+  H62  1  1.03807311  0.13762366  0.49717462  1
  H+  H63  1  0.76339852  0.89319780  0.50248291  1
  H+  H64  1  0.24348986  0.10852793  0.66139944  1
  H+  H65  1  0.41353376  0.78170762  0.97539051  1
  H+  H66  1  0.51941367  0.63057547  0.50033634  1
  H+  H67  1  0.41341017  0.56719969  0.61613775  1
  H+  H68  1  0.24206731  0.88545057  0.84781563  1
  H+  H69  1  0.05932194  0.40161507  0.77364940  1
  H+  H70  1  0.22355316  0.85491750  -0.00484179  1
  H+  H71  1  0.91773940  0.82960794  0.64777523  1
  H+  H72  1  0.73241756  0.16568415  0.96876740  1
  H+  H73  1  0.16367253  0.14018840  0.80950633  1
  H+  H74  1  0.89176288  0.75769542  0.32379500  1
  H+  H75  1  0.61268899  0.88899980  0.82706836  1
  H+  H76  1  0.45780571  0.64050786  0.85058192  1
  H+  H77  1  0.59952778  0.94020992  0.16357473  1
  H+  H78  1  0.67890081  0.55155029  0.17905396  1
  H+  H79  1  0.01441656  0.62877548  0.51592621  1
  H+  H80  1  0.49361404  0.87381350  -0.00465766  1
  H+  H81  1  0.72885813  0.62646790  0.50996191  1
  H+  H82  1  0.28103124  0.89442072  0.15043092  1
  H+  H83  1  0.36285346  0.38054995  1.00117013  1
  H+  H84  1  0.78921361  0.15019768  0.15145114  1
  H+  H85  1  0.11042708  0.87657505  1.00472544  1
  H+  H86  1  0.91204243  0.81651037  0.71920810  1
  H+  H87  1  0.17521752  0.83699151  0.90124765  1
  H+  H88  1  -0.01295555  0.85875614  0.32106872  1
  H+  H89  1  0.22445040  0.18794302  0.95533771  1
  H+  H90  1  0.63126414  0.85501408  0.50715842  1
  H+  H91  1  0.11197999  0.73273406  0.82142863  1
  H+  H92  1  0.14516398  0.27333004  0.51460603  1
  H+  H93  1  0.74110738  0.10844546  0.66243532  1
  H+  H94  1  1.02720131  0.62859517  1.00523674  1
  H+  H95  1  0.87298295  0.21124872  0.33436714  1
  H+  H96  1  0.87079125  0.40025624  0.48833906  1
  H+  H97  1  0.39778270  0.36626446  0.17637952  1
  H+  H98  1  0.34954578  0.44148850  0.68003479  1
  H+  H99  1  0.17200491  0.29306138  0.33949813  1
  H+  H100  1  0.13505265  0.02227996  0.16517250  1
  H+  H101  1  0.37166349  0.23002682  0.17121641  1
  H+  H102  1  0.57274558  0.02754529  0.54066959  1
  H+  H103  1  0.90586204  0.10430093  0.33197973  1
  H+  H104  1  0.62488609  0.37441467  -0.03020685  1
  H+  H105  1  0.61473547  0.13161258  0.81766928  1
  H+  H106  1  0.38337475  0.59371268  0.67719274  1
  H+  H107  1  0.39301706  0.37393534  0.46380808  1
  H+  H108  1  0.42364308  0.84602479  0.22301619  1
  H+  H109  1  0.64647757  0.38531016  0.49839195  1
  H+  H110  1  0.95686805  0.34400232  0.84363624  1
  H+  H111  1  0.11603419  0.14146328  0.00726631  1
  H+  H112  1  0.62978562  0.25393894  0.50680212  1
  H+  H113  1  0.81867040  0.92714321  0.73951095  1
  H+  H114  1  0.85093695  0.89681134  0.48354526  1
  H+  H115  1  0.53824498  0.63093385  0.15782121  1
  H+  H116  1  0.60666344  0.72104576  0.49545043  1
  H+  H117  1  0.38438570  1.00108518  0.66101780  1
  H+  H118  1  0.13251459  0.11192624  0.31935267  1
  H+  H119  1  0.60672793  0.71769282  0.67254661  1
  H+  H120  1  0.34292780  0.09874697  0.32476650  1
  H+  H121  1  0.33406571  0.23091986  0.34455765  1
  H+  H122  1  0.07544198  0.15992128  0.06644773  1
  H+  H123  1  0.75496432  0.39310520  0.97959808  1
  H+  H124  1  0.76569864  0.88085476  0.83414905  1
  H+  H125  1  0.40648369  0.77659077  0.30991404  1
  H+  H126  1  0.29973946  0.15618806  0.01226178  1
  H+  H127  1  -0.03808227  0.87727850  0.44914168  1
  H+  H128  1  0.87369972  1.00675369  0.16234381  1
  H+  H129  1  0.59529225  0.23556559  0.99339830  1
  H+  H130  1  0.81012580  0.36496120  0.06841701  1
  H+  H131  1  0.48990254  0.12523506  0.51746599  1
  H+  H132  1  0.86937052  0.63830215  0.99550233  1
  H+  H133  1  0.10065986  0.62275991  0.67486430  1
  H+  H134  1  0.52618758  0.88009331  0.47810335  1
  H+  H135  1  0.51556677  0.33114408  0.66779556  1
  H+  H136  1  0.86220202  0.40393774  0.32217888  1
  H+  H137  1  0.83943716  0.39163694  0.96481611  1
  H+  H138  1  0.71556560  0.34361309  0.82096394  1
  H+  H139  1  0.28275498  0.38257924  0.16005258  1
  H+  H140  1  0.90485858  0.57624339  0.57251322  1
  H+  H141  1  0.21405228  0.10350872  0.31791770  1
  H+  H142  1  0.27996675  0.14190416  0.16319159  1
  H+  H143  1  0.89193396  0.52064325  0.83302510  1
  H+  H144  1  0.87356537  0.85101629  0.17724085  1
  H+  H145  1  0.11428617  0.50866852  0.85523568  1
  H+  H146  1  0.86941164  0.13750774  0.67039369  1
  H+  H147  1  0.62918661  0.40416651  0.18825071  1
  H+  H148  1  0.86060517  0.88301408  0.00537481  1
  H+  H149  1  0.36524822  0.88046703  0.00047450  1
  H+  H150  1  0.38476771  0.31535081  0.81505225  1
  H+  H151  1  0.11573970  0.47038644  0.50067315  1
  H+  H152  1  -0.02319031  0.36764979  0.50979435  1
  H+  H153  1  0.11425380  0.96607948  0.00299958  1
  H+  H154  1  0.38209316  0.52551445  0.51301414  1
  H+  H155  1  0.14076557  0.76646608  0.50997389  1
  H+  H156  1  0.28670557  0.89317132  0.49746526  1
  H+  H157  1  0.37881101  0.23674676  0.48144683  1
  H+  H158  1  0.95521237  0.22513504  0.03688338  1
  H+  H159  1  0.03770754  0.13027906  0.65659844  1
  H+  H160  1  0.85988053  0.73138391  0.47539473  1
  H+  H161  1  0.13762282  0.27398471  0.99773892  1
  H+  H162  1  0.09642112  0.71008024  0.66750838  1
  H+  H163  1  0.90610909  0.12809761  0.50444815  1
  H+  H164  1  0.88568537  0.53135501  0.50712262  1
  H+  H165  1  0.88962587  0.52817898  0.98455234  1
  H+  H166  1  0.87999362  0.10847193  0.16423944  1
  H+  H167  1  0.83977915  0.58824770  0.67147718  1
  H+  H168  1  0.73977844  0.62170491  0.98657515  1
  H+  H169  1  0.37093148  0.10409042  0.83054884  1
  H+  H170  1  0.07555010  0.67072534  0.76328068  1
  H+  H171  1  0.71750230  0.85826725  0.66446710  1
  H+  H172  1  0.63559210  0.77287774  0.99330483  1
  H+  H173  1  0.87177896  0.10554259  0.84280230  1
  H+  H174  1  0.39860402  0.36623711  0.64083112  1
  H+  H175  1  0.37443145  0.98529605  0.49501587  1
  H+  H176  1  0.14203288  0.52721414  0.17938007  1
  H+  H177  1  0.87220105  0.23844853  0.49162604  1
  H+  H178  1  0.36612942  0.73616441  0.17653418  1
  H+  H179  1  0.39775652  0.87622053  0.49776544  1
  H+  H180  1  0.39622228  0.51934010  0.16726450  1
  H+  H181  1  0.57944372  0.40984889  0.36246954  1
  H+  H182  1  0.11481471  0.88101875  0.83070054  1
  H+  H183  1  0.36477338  0.62862028  0.31175906  1
  H+  H184  1  0.77672519  0.63878553  0.33582737  1
  H+  H185  1  0.41492723  0.56217866  0.26266528  1
  H+  H186  1  0.63733766  0.29357569  0.34359452  1
  H+  H187  1  0.71802213  0.34009070  0.64504298  1
  H+  H188  1  0.90387511  0.33524150  0.36160400  1
  H+  H189  1  0.18527718  0.33328814  0.23723257  1
  H+  H190  1  0.24737603  0.64138657  1.02908606  1
  H+  H191  1  0.87103292  0.49543828  0.33038966  1
  H+  H192  1  0.24858246  0.07198762  0.86729809  1
  H+  H193  1  0.97979133  0.61369418  0.83303552  1
  H+  H194  1  0.62939032  0.35140595  0.82662506  1
  H+  H195  1  0.10559990  0.63983538  0.16378673  1
  H+  H196  1  0.52377746  0.88533716  0.67062324  1
  H+  H197  1  0.73661447  0.38526921  0.49465007  1
  H+  H198  1  0.38616126  1.00703048  -0.01802607  1
  H+  H199  1  0.60734849  0.22511401  0.81678570  1
  H+  H200  1  0.85678231  0.22187355  -0.00431673  1
  H+  H201  1  0.69435618  0.60377882  0.26616172  1
  H+  H202  1  0.47630160  0.37346736  0.97070224  1
  H+  H203  1  0.73305053  0.12372876  0.32100230  1
  H+  H204  1  0.89935780  0.11690161  0.99899079  1
  H+  H205  1  0.98201282  0.41712899  0.96861359  1
  H+  H206  1  0.42863097  0.85687419  0.89760218  1
  H+  H207  1  0.13556037  0.35663976  0.51498895  1
  H+  H208  1  0.11470730  0.73214000  0.15525797  1
  H+  H209  1  0.48777259  0.37217798  0.19016167  1
  H+  H210  1  0.36543202  0.47084485  0.00718656  1
  H+  H211  1  0.91551192  0.83557652  -0.07177119  1
  H+  H212  1  0.88015111  0.49525876  0.65445893  1
  H+  H213  1  0.23073907  0.84982390  0.31163598  1
  H+  H214  1  0.62920222  0.76996910  0.84418417  1
  H+  H215  1  0.83798291  0.65320101  0.76228703  1
  H+  H216  1  0.09224221  0.38197295  0.83504162  1
  H+  H217  1  0.61648466  0.16619902  0.14993957  1
  H+  H218  1  0.38147088  0.76171470  0.61392691  1
  H+  H219  1  0.52904088  0.58761694  0.81590277  1
  H+  H220  1  0.86071738  0.97175285  0.00531091  1
  H+  H221  1  0.84262098  0.67497937  0.66003451  1
  H+  H222  1  0.35971579  0.86338443  0.34278421  1
  H+  H223  1  0.81712111  0.27840277  1.01247255  1
  H+  H224  1  0.90624574  0.27104267  0.17449542  1
  H+  H225  1  0.28469407  0.64896690  0.54648064  1
  H+  H226  1  0.10244931  0.97527035  0.33124334  1
  H+  H227  1  0.61034798  0.35324830  0.67449163  1
  H+  H228  1  0.88537623  0.02833653  0.65907511  1
  H+  H229  1  0.08590660  0.18902796  0.75308362  1
  H+  H230  1  0.53370378  0.40105269  0.47884653  1
  H+  H231  1  0.46063656  0.58401765  0.32703507  1
  H+  H232  1  0.04054102  0.38851996  0.16696999  1
  H+  H233  1  0.37289136  0.54679538  0.84986197  1
  H+  H234  1  -0.00501811  0.38739925  -0.04624784  1
  H+  H235  1  0.20206122  0.60293888  0.46790231  1
  H+  H236  1  0.63759113  0.83957017  0.31937328  1
  H+  H237  1  0.32615536  0.89346200  0.39936345  1
  H+  H238  1  0.19155348  0.09003078  0.94084361  1
  H+  H239  1  0.04766980  0.90896757  0.68743723  1
  H+  H240  1  0.85059186  0.36742067  0.82306525  1
  H+  H241  1  0.34398767  0.65355331  0.84349264  1
  H+  H242  1  0.62972188  0.48013782  0.83549226  1
  H+  H243  1  0.63967885  0.04410765  0.31577084  1
  H+  H244  1  1.02253352  0.38138301  0.67808719  1
  H+  H245  1  0.64212950  0.76829017  0.16644772  1
  H+  H246  1  0.85487990  0.75276023  0.17854327  1
  H+  H247  1  0.62554264  0.15990426  0.34939469  1
  H+  H248  1  0.33848589  0.66630024  0.25780176  1
  H+  H249  1  0.63000766  0.29098307  0.18717486  1
  H+  H250  1  0.04768998  0.15079067  0.34711877  1
  H+  H251  1  0.12163633  0.98448593  0.49416829  1
  H+  H252  1  0.86561452  0.72491091  -0.00258531  1
  H+  H253  1  0.72228516  0.38320402  0.33659367  1
  H+  H254  1  0.26920192  0.39126409  0.49746208  1
  H+  H255  1  0.25651204  0.17997884  0.38987865  1
  H+  H256  1  -0.00603602  0.35726072  0.33727658  1
  H+  H257  1  0.62376340  0.64433085  -0.00022289  1
  H+  H258  1  0.49423165  0.86605331  0.31633599  1
  H+  H259  1  0.39949169  0.60955513  0.17506407  1
  H+  H260  1  0.13463476  0.76590187  0.99525093  1
  H+  H261  1  0.66290563  0.06575761  0.98614041  1
  H+  H262  1  0.47050841  0.10332596  0.97858347  1
  H+  H263  1  0.83608294  0.39712749  0.75957394  1
  H+  H264  1  0.85870973  0.21368687  0.82695334  1
  H+  H265  1  0.62737246  0.61040878  0.65861445  1
  H+  H266  1  0.64288358  0.06570671  0.16550842  1
  H+  H267  1  0.51686523  0.62439689  0.67505977  1
  H+  H268  1  0.12747359  0.13733463  0.50013739  1
  H+  H269  1  0.37747641  0.19166602  0.84702330  1
  H+  H270  1  0.53496579  0.39984043  0.82968739  1
  H+  H271  1  0.97589667  0.09907011  0.98557024  1
  H+  H272  1  0.38876428  0.02224284  0.15524364  1
  H+  H273  1  0.14349325  0.86773351  0.16080524  1
  H+  H274  1  0.13729976  0.61241562  0.33232829  1
  H+  H275  1  0.65129970  0.16007424  0.64596655  1
  H+  H276  1  0.65688956  0.62307518  0.83133358  1
  H+  H277  1  0.12123980  0.47632052  0.34776948  1
  H+  H278  1  0.62834816  0.11300061  0.50810334  1
  H+  H279  1  0.64295405  0.59916666  0.32675989  1
  H+  H280  1  0.88009675  0.85394851  0.40877023  1
  H+  H281  1  0.10335161  0.27656833  0.73381141  1
  H+  H282  1  0.38582253  0.11718294  0.16374279  1
  H+  H283  1  0.37119742  0.89371228  0.15371012  1
  H+  H284  1  0.14625858  0.85623297  0.49744391  1
  H+  H285  1  0.48110443  0.87873840  0.83580847  1
  H+  H286  1  0.37047705  0.73371378  0.52655854  1
  H+  H287  1  0.31718342  0.45614844  0.32770793  1
  H+  H288  1  0.63321928  0.02532498  0.83192140  1
  H+  H289  1  0.97156303  0.10343865  0.16674508  1
  H+  H290  1  0.86229439  0.61052726  0.17606894  1
  H+  H291  1  0.51719214  0.11974461  0.81715216  1
  H+  H292  1  0.43801024  0.85546901  0.55546205  1
  H+  H293  1  0.06655765  0.41394787  0.01473607  1
  H+  H294  1  0.35731756  0.65891746  0.43263529  1
  H+  H295  1  0.86251801  0.17234284  0.09662419  1
  H+  H296  1  0.33798670  0.16089857  0.43789757  1
  H+  H297  1  0.68348844  0.60133140  0.92486616  1
  H+  H298  1  0.89512187  0.82105470  0.56713802  1
  H+  H299  1  0.64960846  0.32998152  0.91590784  1
  H+  H300  1  0.66037321  0.82983356  0.90343865  1
  H+  H301  1  0.18120785  0.83963928  0.21692466  1
  H+  H302  1  0.10771565  0.17812664  0.40525563  1
  H+  H303  1  0.84904635  0.43527281  0.42726093  1
  H+  H304  1  0.83723348  0.15859687  0.39441721  1
  H+  H305  1  0.15645616  0.33071182  0.61835497  1
  H+  H306  1  0.25939757  0.35730189  0.67278550  1
  H+  H307  1  0.15400057  0.11235248  0.65278816  1
  H+  H308  1  0.34523829  0.74080171  0.83061621  1
  H+  H309  1  0.93464178  0.81606144  0.56614124  1
  H+  H310  1  0.57558869  0.65233269  0.76209101  1
  H+  H311  1  0.26121115  0.86049602  0.67421726  1
  H+  H312  1  0.66008221  0.34209723  0.25121581  1
  H+  H313  1  0.91273456  0.02108763  0.33623811  1
  H+  H314  1  0.82809561  0.91301014  0.09936006  1
  H+  H315  1  0.30847788  0.42601818  0.43239552  1
  H+  H316  1  0.83501512  0.15828692  0.73096394  1
  H+  H317  1  0.15993679  0.58306058  0.23888752  1
  H+  H318  1  0.35342221  0.75791064  0.05544968  1
  H+  H319  1  0.16220035  0.08010316  0.22455936  1
  H+  H320  1  0.66389831  0.09386734  0.88793052  1
  H+  H321  1  0.06893321  0.63893139  0.45782953  1
  H+  H322  1  0.41710031  0.05048111  0.89782782  1
  H+  H323  1  0.40953448  0.34306939  0.88517205  1
  H+  H324  1  0.33798509  0.91434129  0.05947226  1
  H+  H325  1  0.88343470  0.30041515  0.89805516  1
  H+  H326  1  0.76918668  0.12625878  0.82231606  1
  H+  H327  1  0.91560364  0.81798730  0.25739899  1
  H+  H328  1  0.33920545  0.40990081  0.09897501  1
  H+  H329  1  0.33388023  0.14531880  0.73748722  1
  H+  H330  1  0.92578304  0.33307022  0.23063186  1
  H+  H331  1  0.09878823  0.92509388  0.77353135  1
  H+  H332  1  0.43087575  0.33743673  0.58427765  1
  H+  H333  1  0.71021434  0.59022350  0.65868496  1
  H+  H334  1  0.07828342  0.91805188  0.39175838  1
  H+  H335  1  0.90532978  0.07494045  0.91019365  1
  H+  H336  1  0.16241045  0.33386905  0.89745585  1
  H+  H337  1  0.08523181  0.41107584  0.44206520  1
  H+  H338  1  0.12698732  0.51454217  0.67278807  1
  H+  H339  1  0.39941124  0.11992695  0.51112756  1
  H+  H340  1  0.39712944  0.27984570  0.98597502  1
  H+  H341  1  0.66743927  0.81429539  0.25957224  1
  H+  H342  1  0.07137071  0.90862323  0.09804492  1
  H+  H343  1  0.31965690  0.61513154  0.42616893  1
  H+  H344  1  0.76544192  0.88568751  0.15848976  1
  H+  H345  1  0.60176441  0.69998123  0.33508258  1
  H+  H346  1  0.92072190  0.08624335  0.59859022  1
  H+  H347  1  0.08097303  0.70220671  0.37295249  1
  H+  H348  1  0.59288720  0.66747477  0.06145645  1
  H+  H349  1  0.68129643  0.07307728  0.60236414  1
  H+  H350  1  0.93052030  0.58794669  0.92790958  1
  H+  H351  1  0.35704358  0.18948484  0.07061954  1
  H+  H352  1  0.10566344  0.21646857  0.16504356  1
  H+  H353  1  0.39239413  0.92877717  0.83719448  1
  H+  H354  1  0.60684222  0.92119378  0.39284990  1
  H+  H355  1  0.10865450  0.42352906  0.11200190  1
  H+  H356  1  0.48359110  0.12298280  0.15299637  1
  H+  H357  1  0.59447515  0.20509268  0.65738375  1
  H+  H358  1  0.60323784  0.18470424  0.41250056  1
  H+  H359  1  0.13371910  0.39429309  0.34899649  1
  H+  H360  1  0.63411511  0.64416525  0.15562971  1
  H+  H361  1  0.36424157  0.42625155  0.82976080  1
  H+  H362  1  0.62819879  0.85577783  0.66325995  1
  H+  H363  1  0.57178886  0.64694744  0.39653553  1
  H+  H364  1  0.18319531  0.08046030  0.56850155  1
  H+  H365  1  0.91061609  0.58950825  0.25743664  1
  H+  H366  1  0.60243562  0.43337081  0.12867454  1
  H+  H367  1  0.81592532  0.92036256  0.40273819  1
  H+  H368  1  0.39956086  0.32860619  0.27276271  1
  H+  H369  1  0.41782235  0.06810398  0.60717333  1
  H+  H370  1  0.57606025  0.90731331  0.07086924  1
  H+  H371  1  0.34082783  0.68145294  0.09661711  1
  H+  H372  1  0.66290852  0.58859419  0.58929776  1
  H+  H373  1  0.57481072  0.43543359  0.03598488  1
  H+  H374  1  0.07860981  0.66209828  0.06977339  1
  H+  H375  1  0.67757211  0.11827170  0.22627207  1
  H+  H376  1  0.61336425  0.96706991  0.48117882  1
  H+  H377  1  0.32095113  0.65439962  0.74977689  1
  H+  H378  1  0.83719770  0.66573139  0.39637519  1
  H+  H379  1  0.86334194  0.64639290  0.49708252  1
  H+  H380  1  0.57925877  0.18583963  0.08929345  1
  H+  H381  1  0.16439015  0.83091675  0.60193280  1
  H+  H382  1  0.65746636  0.82664466  0.57010465  1
  H+  H383  1  0.41036404  0.58339112  0.94576065  1
  O2-  O384  1  0.07253038  0.15740270  0.14789635  1
  O2-  O385  1  0.09909756  0.16843411  0.48329062  1
  O2-  O386  1  0.08112800  0.23727563  0.76944062  1
  O2-  O387  1  0.10348517  0.42110394  0.15710601  1
  O2-  O388  1  0.07973442  0.40987317  0.48725258  1
  O2-  O389  1  0.05105898  0.39909784  0.81894623  1
  O2-  O390  1  0.07779691  0.66970802  0.14472757  1
  O2-  O391  1  0.07618244  0.65304407  0.50106610  1
  O2-  O392  1  0.07291124  0.67341027  0.80822741  1
  O2-  O393  1  0.07458959  0.91182522  0.14323377  1
  O2-  O394  1  0.08406631  0.92265252  0.47958533  1
  O2-  O395  1  0.08422997  0.91207536  0.81756561  1
  O2-  O396  1  0.34220683  0.17126413  0.15242727  1
  O2-  O397  1  0.34861304  0.17247884  0.48214737  1
  O2-  O398  1  0.34106118  0.13848225  0.82526390  1
  O2-  O399  1  0.34276815  0.41425916  0.14451799  1
  O2-  O400  1  0.32504172  0.42819021  0.47524503  1
  O2-  O401  1  0.33341017  0.45780388  0.82256470  1
  O2-  O402  1  0.33784906  0.67015223  0.17372753  1
  O2-  O403  1  0.34706994  0.68441995  0.55520357  1
  O2-  O404  1  0.31315835  0.67876691  0.82141715  1
  O2-  O405  1  0.34326601  0.92609284  0.13680305  1
  O2-  O406  1  0.34551062  0.92420911  0.48030545  1
  O2-  O407  1  0.36280132  0.96192736  0.82451980  1
  O2-  O408  1  0.57536570  0.18359697  0.13487371  1
  O2-  O409  1  0.60206322  0.18983976  0.51524428  1
  O2-  O410  1  0.57835800  0.15851761  0.80323299  1
  O2-  O411  1  0.60260121  0.44073884  0.17236015  1
  O2-  O412  1  0.59746572  0.43226377  0.47717054  1
  O2-  O413  1  0.59620195  0.41691742  0.83198327  1
  O2-  O414  1  0.59658614  0.66585224  0.13986053  1
  O2-  O415  1  0.57837197  0.66001863  0.48185921  1
  O2-  O416  1  0.57263854  0.64721709  0.80794593  1
  O2-  O417  1  0.56630250  0.88591292  0.14260211  1
  O2-  O418  1  0.58833545  0.90742076  0.46548807  1
  O2-  O419  1  0.58577164  0.92179343  0.81099619  1
  O2-  O420  1  0.85013684  0.16813865  0.14373955  1
  O2-  O421  1  0.84733039  0.17843934  0.47465499  1
  O2-  O422  1  0.83160872  0.15161517  0.81305723  1
  O2-  O423  1  0.80400179  0.31289525  0.08778811  1
  O2-  O424  1  0.84664394  0.43566333  0.47248577  1
  O2-  O425  1  0.82524752  0.39982671  0.80318794  1
  O2-  O426  1  0.79317499  0.65361032  0.16253042  1
  O2-  O427  1  0.82793067  0.66777686  0.47689874  1
  O2-  O428  1  0.84719681  0.66739511  0.80613377  1
  O2-  O429  1  0.82803056  0.91748339  0.14499641  1
  O2-  O430  1  0.82140866  0.93082458  0.48387169  1
  O2-  O431  1  0.82611897  0.91613618  0.81869044  1
  O2-  O432  1  0.16580829  0.08327484  0.17901295  1
  O2-  O433  1  0.18042969  0.08157204  0.52221574  1
  O2-  O434  1  0.19903350  0.03444543  0.89384741  1
  O2-  O435  1  0.17630558  0.32673889  0.19280274  1
  O2-  O436  1  0.17246576  0.33371675  0.52913010  1
  O2-  O437  1  0.16641576  0.35040609  0.85430840  1
  O2-  O438  1  0.16594467  0.58773592  0.19377231  1
  O2-  O439  1  0.18184930  0.58541609  0.50945712  1
  O2-  O440  1  0.14956611  0.55615388  0.88321854  1
  O2-  O441  1  0.17844904  0.84048170  0.17027584  1
  O2-  O442  1  0.17420380  0.82904198  0.51929445  1
  O2-  O443  1  0.18097070  0.84436923  0.85623215  1
  O2-  O444  1  0.42059425  0.08596702  0.16821720  1
  O2-  O445  1  0.42711510  0.08637184  0.52428092  1
  O2-  O446  1  0.42029894  0.05046729  0.84705303  1
  O2-  O447  1  0.42472690  0.33554149  0.19621021  1
  O2-  O448  1  0.42603392  0.34452204  0.45610902  1
  O2-  O449  1  0.41995688  0.36343029  0.84184822  1
  O2-  O450  1  0.42999616  0.57838075  0.18527227  1
  O2-  O451  1  0.41996403  0.58023564  0.53546686  1
  O2-  O452  1  0.40102104  0.60763414  0.86898134  1
  O2-  O453  1  0.41690119  0.83674560  0.17832195  1
  O2-  O454  1  0.43146784  0.84735992  0.51096314  1
  O2-  O455  1  0.42241680  0.85866720  0.85261550  1
  O2-  O456  1  0.68028378  0.12358320  0.18069688  1
  O2-  O457  1  0.62789990  0.05843437  0.51952319  1
  O2-  O458  1  0.66294293  0.08837810  0.84227853  1
  O2-  O459  1  0.66491748  0.34779092  0.20550638  1
  O2-  O460  1  0.67915454  0.35672941  0.51391038  1
  O2-  O461  1  0.65439786  0.31234265  0.83542701  1
  O2-  O462  1  0.70600220  0.61452898  0.18842102  1
  O2-  O463  1  0.66956377  0.59739156  0.52787247  1
  O2-  O464  1  0.68664546  0.59459593  0.84906119  1
  O2-  O465  1  0.66644974  0.82789264  0.18303129  1
  O2-  O466  1  0.66130946  0.82602469  0.52467003  1
  O2-  O467  1  0.66078607  0.83025769  0.85712281  1
  O2-  O468  1  0.90773840  0.07188442  0.17733303  1
  O2-  O469  1  0.93065442  0.09335790  0.52023362  1
  O2-  O470  1  0.90011872  0.07228882  0.86147023  1
  O2-  O471  1  0.93358056  0.33277282  0.18655573  1
  O2-  O472  1  0.91367587  0.33864866  0.51921176  1
  O2-  O473  1  0.89246145  0.30868445  0.85381324  1
  O2-  O474  1  0.90021320  0.58753119  0.18879343  1
  O2-  O475  1  0.91277523  0.58907225  0.52774344  1
  O2-  O476  1  0.91823669  0.57965161  0.84929147  1
  O2-  O477  1  0.89896395  0.81569056  0.18996339  1
  O2-  O478  1  0.89918339  0.84054044  0.44760253  1
  O2-  O479  1  0.91545189  0.83424992  0.84504528  1
  O2-  O480  1  0.15452137  0.07573580  0.30114331  1
  O2-  O481  1  0.18366424  0.07857743  0.64178642  1
  O2-  O482  1  0.19675207  0.13202153  0.97526121  1
  O2-  O483  1  0.19844609  0.35331501  0.32195955  1
  O2-  O484  1  0.15388239  0.32304499  0.66264636  1
  O2-  O485  1  0.17097291  0.33392963  0.98221866  1
  O2-  O486  1  0.16440050  0.57839910  0.31953931  1
  O2-  O487  1  0.15498633  0.57567265  0.65903297  1
  O2-  O488  1  0.18759483  0.60169009  1.01018489  1
  O2-  O489  1  0.17774464  0.82925565  0.28643437  1
  O2-  O490  1  0.16071912  0.82438016  0.64673935  1
  O2-  O491  1  0.16275939  0.82647719  0.98063343  1
  O2-  O492  1  0.34944171  0.06338602  0.29404449  1
  O2-  O493  1  0.41741600  0.06293691  0.65193644  1
  O2-  O494  1  0.41566894  0.06172382  0.95818173  1
  O2-  O495  1  0.37585465  0.31673149  0.31469951  1
  O2-  O496  1  0.45118178  0.37090084  0.62137789  1
  O2-  O497  1  0.41415248  0.33426343  0.96215091  1
  O2-  O498  1  0.40262568  0.55851793  0.30733339  1
  O2-  O499  1  0.41863309  0.56933676  0.66127857  1
  O2-  O500  1  0.41646397  0.56923455  0.98836088  1
  O2-  O501  1  0.43433211  0.84006851  0.30362745  1
  O2-  O502  1  0.41392839  0.81476637  0.63904437  1
  O2-  O503  1  0.43287388  0.84306585  0.97490000  1
  O2-  O504  1  0.67441324  0.10506231  0.30425808  1
  O2-  O505  1  0.67796554  0.07688835  0.64668223  1
  O2-  O506  1  0.67124585  0.11531331  0.96217764  1
  O2-  O507  1  0.66103380  0.35179666  0.32550591  1
  O2-  O508  1  0.72062744  0.39481766  0.63624728  1
  O2-  O509  1  0.65079338  0.33769973  0.96073580  1
  O2-  O510  1  0.69025576  0.59207163  0.31048393  1
  O2-  O511  1  0.65473382  0.57791041  0.63862176  1
  O2-  O512  1  0.67816967  0.59699403  0.97020569  1
  O2-  O513  1  0.66758469  0.80962707  0.30524984  1
  O2-  O514  1  0.65747935  0.82407641  0.64862508  1
  O2-  O515  1  0.66433091  0.83360430  0.97741403  1
  O2-  O516  1  0.94573180  0.08250415  0.32523987  1
  O2-  O517  1  0.92234817  0.08759431  0.64389824  1
  O2-  O518  1  0.91412586  0.07368548  0.97415440  1
  O2-  O519  1  0.93100170  0.32593852  0.32623352  1
  O2-  O520  1  0.91117106  0.35870495  0.64828002  1
  O2-  O521  1  0.82430023  0.25027683  0.97565622  1
  O2-  O522  1  0.91778786  0.58984584  0.30422053  1
  O2-  O523  1  0.90211141  0.55739821  0.64764936  1
  O2-  O524  1  0.93081910  0.58898153  0.97337202  1
  O2-  O525  1  0.92432172  0.81846063  0.30420324  1
  O2-  O526  1  0.92970025  0.85934737  0.68695751  1
  O2-  O527  1  0.91392551  0.83504978  0.97340378  1
  O2-  O528  1  0.07718889  0.16294610  0.02120505  1
  O2-  O529  1  0.10984379  0.18430300  0.35984979  1
  O2-  O530  1  0.09974557  0.15828146  0.66563580  1
  O2-  O531  1  0.12369433  0.43663419  0.03266215  1
  O2-  O532  1  0.09485287  0.41562941  0.36262311  1
  O2-  O533  1  0.07966552  0.40827666  0.69693505  1
  O2-  O534  1  0.08628164  0.65956897  0.02436030  1
  O2-  O535  1  0.07564222  0.66228436  0.34120504  1
  O2-  O536  1  0.06489473  0.65104606  0.68414533  1
  O2-  O537  1  0.07948851  0.90762111  0.01818451  1
  O2-  O538  1  0.07049484  0.91525506  0.34760509  1
  O2-  O539  1  0.10900795  0.93051304  0.69503749  1
  O2-  O540  1  0.36002435  0.19034335  0.02571129  1
  O2-  O541  1  0.29834065  0.17226519  0.36660742  1
  O2-  O542  1  0.33274009  0.14400013  0.69293122  1
  O2-  O543  1  0.33290758  0.40816455  0.02111428  1
  O2-  O544  1  0.28473273  0.39883424  0.34911185  1
  O2-  O545  1  0.32265611  0.37881153  0.67939092  1
  O2-  O546  1  0.33690603  0.69735826  0.05351613  1
  O2-  O547  1  0.33966593  0.66647518  0.30284837  1
  O2-  O548  1  0.32886397  0.64705710  0.70511205  1
  O2-  O549  1  0.33197089  0.90811883  0.01416048  1
  O2-  O550  1  0.30889495  0.86265670  0.36035575  1
  O2-  O551  1  0.32285801  0.88366933  0.68637418  1
  O2-  O552  1  0.57053094  0.17659047  0.01098453  1
  O2-  O553  1  0.59662070  0.18798986  0.36884785  1
  O2-  O554  1  0.63994897  0.20617822  0.63227690  1
  O2-  O555  1  0.58250952  0.43702139  -0.00778512  1
  O2-  O556  1  0.53607613  0.42781321  0.36699272  1
  O2-  O557  1  0.55206760  0.31258790  0.68905966  1
  O2-  O558  1  0.58988542  0.67017240  0.01623753  1
  O2-  O559  1  0.56808030  0.64093764  0.35176226  1
  O2-  O560  1  0.58112455  0.65673399  0.68665427  1
  O2-  O561  1  0.58201059  0.91918059  0.02494864  1
  O2-  O562  1  0.62220661  0.93303756  0.34819419  1
  O2-  O563  1  0.58258121  0.91447741  0.68768405  1
  O2-  O564  1  0.89498243  0.18072728  0.03342722  1
  O2-  O565  1  0.83440216  0.15193425  0.34937814  1
  O2-  O566  1  0.83140214  0.15881024  0.68618266  1
  O2-  O567  1  0.81748731  0.42023769  -0.00925386  1
  O2-  O568  1  0.84336371  0.43503587  0.34836150  1
  O2-  O569  1  0.86852239  0.38992359  0.67469540  1
  O2-  O570  1  0.83397626  0.66344312  0.00879668  1
  O2-  O571  1  0.84053409  0.66999884  0.35129322  1
  O2-  O572  1  0.80987626  0.62229958  0.68329855  1
  O2-  O573  1  0.82994531  0.91212472  0.02223617  1
  O2-  O574  1  0.83180711  0.90744906  0.36244999  1
  O2-  O575  1  0.81984731  0.92470865  0.69424940  1
