# generated using pymatgen
data_H2O
_symmetry_space_group_name_H-M   'P 1'
_cell_length_a   17.95796185
_cell_length_b   17.96084227
_cell_length_c   21.95916070
_cell_angle_alpha   90.02557662
_cell_angle_beta   90.00119533
_cell_angle_gamma   120.00562348
_symmetry_Int_Tables_number   1
_chemical_formula_structural   H2O
_chemical_formula_sum   'H384 O192'
_cell_volume   6133.45861214
_cell_formula_units_Z   192
loop_
 _symmetry_equiv_pos_site_id
 _symmetry_equiv_pos_as_xyz
  1  'x, y, z'
loop_
 _atom_type_symbol
 _atom_type_oxidation_number
  H+  1.0
  O2-  -2.0
loop_
 _atom_site_type_symbol
 _atom_site_label
 _atom_site_symmetry_multiplicity
 _atom_site_fract_x
 _atom_site_fract_y
 _atom_site_fract_z
 _atom_site_occupancy
  H+  H0  1  0.44034201  0.09699177  0.35451924  1
  H+  H1  1  0.76142792  0.13445027  0.66864097  1
  H+  H2  1  0.47367101  0.61024685  0.33026694  1
  H+  H3  1  0.38444810  0.26644545  0.49790012  1
  H+  H4  1  0.61404110  0.13619824  0.17039023  1
  H+  H5  1  -0.03076185  0.36476256  0.66666186  1
  H+  H6  1  0.36859777  0.33221166  0.99741494  1
  H+  H7  1  0.12471324  0.51792623  0.18089582  1
  H+  H8  1  0.13021976  0.39441780  0.49358829  1
  H+  H9  1  0.58898728  0.40998280  0.42340915  1
  H+  H10  1  0.29259696  0.88544570  0.01529310  1
  H+  H11  1  0.62859147  0.01291494  1.00441187  1
  H+  H12  1  0.85692632  0.47476489  0.66794256  1
  H+  H13  1  0.35455927  0.62091312  0.16205865  1
  H+  H14  1  0.85703021  0.38463648  0.66926942  1
  H+  H15  1  0.13109592  1.03081755  0.82855132  1
  H+  H16  1  0.51629902  0.37666334  0.00524481  1
  H+  H17  1  0.48127209  0.10293773  1.00124684  1
  H+  H18  1  0.77307390  0.88549223  0.34681848  1
  H+  H19  1  0.40153081  0.36230536  0.32330406  1
  H+  H20  1  0.00279817  0.37666875  0.01458848  1
  H+  H21  1  0.35509331  0.39054778  0.83435740  1
  H+  H22  1  0.75105162  0.64602442  0.16600679  1
  H+  H23  1  0.91594111  0.84736451  0.22229071  1
  H+  H24  1  0.24692011  0.09065969  0.64612740  1
  H+  H25  1  0.72502331  0.87125883  0.66834191  1
  H+  H26  1  0.23402646  0.46621646  0.99498159  1
  H+  H27  1  0.02247637  0.14475829  0.48902451  1
  H+  H28  1  0.34929693  -0.03392330  0.33519605  1
  H+  H29  1  0.63303297  0.84940517  0.84473683  1
  H+  H30  1  0.52446074  0.13535371  0.16872956  1
  H+  H31  1  0.88156501  0.04390415  0.49697326  1
  H+  H32  1  0.83444550  0.46756546  0.82227443  1
  H+  H33  1  0.62630526  0.57570447  0.83668131  1
  H+  H34  1  0.86746836  0.11354370  0.65313258  1
  H+  H35  1  0.86938207  0.70781456  0.99181382  1
  H+  H36  1  0.86816327  0.60944583  0.83023731  1
  H+  H37  1  0.35870652  0.88230077  0.16290053  1
  H+  H38  1  0.73207940  0.36547045  0.17104032  1
  H+  H39  1  0.13543559  0.11536939  0.16270100  1
  H+  H40  1  0.38257525  0.86314411  0.66251328  1
  H+  H41  1  0.13009935  0.86984145  0.32433452  1
  H+  H42  1  0.35393206  0.73800431  0.67879615  1
  H+  H43  1  0.52279304  0.14082292  0.48660662  1
  H+  H44  1  0.42351380  0.73979240  0.96092556  1
  H+  H45  1  0.11115407  0.89477435  0.81902908  1
  H+  H46  1  0.36273975  0.13590961  0.48429261  1
  H+  H47  1  0.38214565  0.86265261  0.50550603  1
  H+  H48  1  0.37732969  0.53858924  0.84805570  1
  H+  H49  1  -0.01263178  0.16117712  0.67945548  1
  H+  H50  1  0.22644440  0.37055433  0.85328914  1
  H+  H51  1  0.88467637  0.36510002  0.48949461  1
  H+  H52  1  0.88006658  0.27231158  0.66642977  1
  H+  H53  1  0.12097448  0.21391186  0.98354388  1
  H+  H54  1  0.07650209  0.92003330  0.39407126  1
  H+  H55  1  0.76259305  0.37212388  0.00789334  1
  H+  H56  1  0.65493011  0.11944510  0.33459702  1
  H+  H57  1  0.76149883  0.36671406  0.32262453  1
  H+  H58  1  0.61091430  0.12630938  0.01384501  1
  H+  H59  1  0.38866951  0.02733403  0.49487796  1
  H+  H60  1  0.60825580  0.21901281  0.66794832  1
  H+  H61  1  0.61405450  0.64884594  0.00692279  1
  H+  H62  1  0.61853393  0.33372901  0.84279970  1
  H+  H63  1  0.38084473  0.27812273  0.83236153  1
  H+  H64  1  0.26413055  0.38453920  0.02376354  1
  H+  H65  1  0.26518764  0.14329339  0.33129859  1
  H+  H66  1  0.47085362  0.85886587  0.66266853  1
  H+  H67  1  0.60581258  0.87890772  0.67473544  1
  H+  H68  1  0.10711430  0.88676385  0.48940470  1
  H+  H69  1  0.14136987  0.88783538  0.00439044  1
  H+  H70  1  0.62430402  0.86858713  0.49401010  1
  H+  H71  1  0.86240500  0.97490172  0.34083979  1
  H+  H72  1  0.88881395  0.77560654  0.82196516  1
  H+  H73  1  0.25573850  0.39024367  0.17615725  1
  H+  H74  1  0.51854220  0.12773984  0.66002717  1
  H+  H75  1  0.09260030  0.42778639  0.40551464  1
  H+  H76  1  0.71346933  0.34808008  0.83596179  1
  H+  H77  1  0.32894025  0.69148360  0.76525789  1
  H+  H78  1  0.38849561  0.09954530  -0.00481472  1
  H+  H79  1  0.62367854  0.74466183  1.01172591  1
  H+  H80  1  0.13615163  0.77620012  0.50180096  1
  H+  H81  1  0.86194953  0.71776005  0.66626314  1
  H+  H82  1  0.50918783  0.28989347  0.67478119  1
  H+  H83  1  0.87176624  0.84868250  0.98825265  1
  H+  H84  1  0.38285229  0.10488792  0.17566862  1
  H+  H85  1  0.36327656  0.47287344  0.33690906  1
  H+  H86  1  0.13878376  0.28342979  0.17372957  1
  H+  H87  1  0.45725182  0.33732211  0.67844590  1
  H+  H88  1  0.10866276  0.40488453  0.66350546  1
  H+  H89  1  0.21905754  0.60228372  0.17632363  1
  H+  H90  1  0.85932697  0.88296076  -0.01046739  1
  H+  H91  1  0.85176666  0.09592248  0.35538950  1
  H+  H92  1  0.81068055  0.40761096  0.76340547  1
  H+  H93  1  0.94786310  0.07929447  0.19230729  1
  H+  H94  1  0.35252838  0.60293258  0.00305413  1
  H+  H95  1  0.86446017  0.13957880  0.01581394  1
  H+  H96  1  0.08784614  0.66474183  0.43789844  1
  H+  H97  1  0.14670685  0.15385987  0.71702063  1
  H+  H98  1  0.60721447  0.97240025  0.34132452  1
  H+  H99  1  0.13175090  0.62475496  0.66284120  1
  H+  H100  1  0.86603729  0.13347355  0.17562464  1
  H+  H101  1  0.11936074  -0.03037650  0.66030260  1
  H+  H102  1  0.10875675  0.13689731  0.48905276  1
  H+  H103  1  0.33072568  0.16806257  0.42586488  1
  H+  H104  1  0.87743030  0.17034567  0.45058717  1
  H+  H105  1  0.60636044  0.87722866  0.00865184  1
  H+  H106  1  0.21275467  0.85338524  0.83628741  1
  H+  H107  1  0.46312582  0.37473771  0.83786203  1
  H+  H108  1  0.53838063  0.37909604  0.33090542  1
  H+  H109  1  0.23406298  0.36282919  0.50596062  1
  H+  H110  1  0.60879901  0.37778584  0.16127919  1
  H+  H111  1  0.47095144  0.85964701  0.31840806  1
  H+  H112  1  0.45397634  0.44994449  0.67682490  1
  H+  H113  1  0.52097751  0.37686566  0.48004793  1
  H+  H114  1  0.97527997  0.86681831  0.66172455  1
  H+  H115  1  0.77397582  0.65902326  0.80760779  1
  H+  H116  1  0.38573632  0.25763971  0.17652697  1
  H+  H117  1  0.34815772  0.96768603  0.67990602  1
  H+  H118  1  0.10065201  0.38748814  0.17065830  1
  H+  H119  1  0.56487787  0.16388655  0.32544410  1
  H+  H120  1  0.35410531  -0.05559479  0.83031398  1
  H+  H121  1  0.93862233  0.68435034  0.41587781  1
  H+  H122  1  0.30091976  0.59125927  0.06562844  1
  H+  H123  1  0.27612838  0.38305596  0.33922517  1
  H+  H124  1  0.01055090  0.63202407  0.67066345  1
  H+  H125  1  0.47384900  0.52295518  0.01863501  1
  H+  H126  1  0.23310800  0.62012910  0.50926426  1
  H+  H127  1  0.87736141  0.26601310  1.00274139  1
  H+  H128  1  0.98677211  0.59731997  0.50876394  1
  H+  H129  1  0.69488693  0.34213188  0.26578467  1
  H+  H130  1  0.26821703  0.14577022  0.81700971  1
  H+  H131  1  0.81321457  0.14855286  0.73033330  1
  H+  H132  1  0.63172192  0.51935636  0.31793535  1
  H+  H133  1  0.46908085  0.07583059  0.83906529  1
  H+  H134  1  0.24762719  0.47764354  0.73795755  1
  H+  H135  1  0.16956592  0.57542961  0.26364821  1
  H+  H136  1  0.02508635  0.40104023  0.35031855  1
  H+  H137  1  0.60611229  0.38020288  0.00465960  1
  H+  H138  1  0.74184656  0.09059830  0.82050828  1
  H+  H139  1  0.60426354  0.97312571  0.49465762  1
  H+  H140  1  0.62839725  0.86185431  0.33790124  1
  H+  H141  1  0.37411758  0.18482159  0.66773693  1
  H+  H142  1  0.70153832  0.46957947  0.73339894  1
  H+  H143  1  0.65003633  0.37483849  0.65851499  1
  H+  H144  1  0.24204194  0.41394821  0.68730550  1
  H+  H145  1  0.16967859  0.76612009  1.00202889  1
  H+  H146  1  0.36515737  0.44273317  0.02861131  1
  H+  H147  1  0.39395298  0.63795903  0.66551041  1
  H+  H148  1  0.13984355  0.39496464  1.00617353  1
  H+  H149  1  0.65159039  0.25008081  0.33761458  1
  H+  H150  1  0.62632611  0.26674532  0.50374621  1
  H+  H151  1  0.85680401  0.64562397  0.15480474  1
  H+  H152  1  0.26689727  0.12224468  0.15481291  1
  H+  H153  1  0.33454940  0.84648459  0.81957279  1
  H+  H154  1  0.37047294  0.09619545  0.65860099  1
  H+  H155  1  0.15876348  0.33196227  0.24027718  1
  H+  H156  1  0.38080063  0.98941297  0.01569481  1
  H+  H157  1  0.36614963  0.11181960  0.33066120  1
  H+  H158  1  0.37245709  0.54444512  0.67321802  1
  H+  H159  1  0.83248053  0.66652079  0.74828024  1
  H+  H160  1  0.12861638  0.26981595  0.32928480  1
  H+  H161  1  0.10634214  0.88813714  0.15428349  1
  H+  H162  1  0.12504627  0.77863313  0.32247223  1
  H+  H163  1  0.36329312  0.73018440  0.49119805  1
  H+  H164  1  0.89667403  0.58067990  0.48983727  1
  H+  H165  1  0.77553755  0.99932855  0.05540620  1
  H+  H166  1  0.01062075  0.38639122  0.17566769  1
  H+  H167  1  0.87689548  0.87131102  0.16493158  1
  H+  H168  1  0.59783973  0.63612370  0.50502571  1
  H+  H169  1  0.12706180  0.02194688  0.16293946  1
  H+  H170  1  0.60543263  0.71973126  0.35010058  1
  H+  H171  1  0.47524191  0.60779002  0.17089011  1
  H+  H172  1  0.88523203  0.45454068  0.48466961  1
  H+  H173  1  0.38564144  0.52730158  0.51064583  1
  H+  H174  1  0.33975401  0.42085421  0.43324188  1
  H+  H175  1  0.36158007  0.22944374  0.33214934  1
  H+  H176  1  0.27405965  0.11869206  0.99737579  1
  H+  H177  1  0.13537295  0.53756357  0.66302073  1
  H+  H178  1  0.72792369  0.09329358  0.34250614  1
  H+  H179  1  0.46949824  0.50201953  0.98806300  1
  H+  H180  1  0.78320390  0.14416289  0.17223875  1
  H+  H181  1  0.14206332  0.27477299  0.50371183  1
  H+  H182  1  0.58419678  0.94234394  0.83301257  1
  H+  H183  1  0.11110283  0.97823807  0.48710135  1
  H+  H184  1  0.38134513  0.85745070  0.31398521  1
  H+  H185  1  0.46096118  0.83743865  0.97279721  1
  H+  H186  1  0.14228410  0.01398171  0.98125198  1
  H+  H187  1  0.51551738  0.88026872  0.49425643  1
  H+  H188  1  0.62561602  1.01295588  0.66198304  1
  H+  H189  1  0.88229625  0.03269363  0.65536154  1
  H+  H190  1  0.86610266  0.89874453  0.67631904  1
  H+  H191  1  0.11331892  0.51433113  -0.00550126  1
  H+  H192  1  0.22078152  0.86709208  0.17367531  1
  H+  H193  1  0.10094277  0.63577476  0.82733201  1
  H+  H194  1  0.83711044  0.10523027  0.82292410  1
  H+  H195  1  0.85627757  0.90165764  0.49681993  1
  H+  H196  1  0.87619369  0.35436571  0.99663377  1
  H+  H197  1  0.01924839  0.89137883  0.33262645  1
  H+  H198  1  0.22478941  0.11311261  0.49267758  1
  H+  H199  1  0.27041934  0.88706170  0.48890233  1
  H+  H200  1  0.96499939  0.62389630  0.15958619  1
  H+  H201  1  0.37014912  0.39111820  0.49171521  1
  H+  H202  1  0.62735837  0.10146165  0.50616445  1
  H+  H203  1  0.72873957  0.36206576  0.64975231  1
  H+  H204  1  0.47421056  0.34684497  0.17389252  1
  H+  H205  1  0.87324459  0.03266883  1.00560191  1
  H+  H206  1  0.82759768  0.66979199  0.05729040  1
  H+  H207  1  0.88662004  0.86676865  0.32125766  1
  H+  H208  1  0.33346535  0.67146721  0.39569295  1
  H+  H209  1  0.87621864  0.53558018  0.15597252  1
  H+  H210  1  0.10490730  0.23654668  0.84182744  1
  H+  H211  1  0.86208969  0.58791159  0.99078476  1
  H+  H212  1  0.14193864  0.50050717  0.82089265  1
  H+  H213  1  0.71999311  0.10131133  1.00369537  1
  H+  H214  1  0.52998168  0.63950357  0.68186227  1
  H+  H215  1  0.64137949  0.77871397  0.66913787  1
  H+  H216  1  0.61730789  0.51840731  0.51143839  1
  H+  H217  1  0.62667083  0.26079340  0.99735229  1
  H+  H218  1  0.65919094  0.50585315  0.68536986  1
  H+  H219  1  0.71400365  0.87268906  0.15858814  1
  H+  H220  1  0.95257872  0.60228987  0.83458677  1
  H+  H221  1  0.12397289  0.64073031  0.49707418  1
  H+  H222  1  1.00017414  0.82834370  0.97264014  1
  H+  H223  1  0.10919349  0.64022603  0.16916658  1
  H+  H224  1  0.62890063  0.77324183  0.49892910  1
  H+  H225  1  0.62180294  0.60355475  0.32590132  1
  H+  H226  1  0.86369206  0.39640649  0.16075395  1
  H+  H227  1  0.43246366  0.01808171  0.62097110  1
  H+  H228  1  0.88153050  0.28849330  0.35981427  1
  H+  H229  1  0.59986180  0.73054681  0.15410651  1
  H+  H230  1  0.12356055  0.12789189  -0.00495636  1
  H+  H231  1  0.88540064  0.79380294  0.50976745  1
  H+  H232  1  0.21679967  0.85168387  0.65783167  1
  H+  H233  1  0.26287225  0.87691309  0.33359639  1
  H+  H234  1  0.12666694  0.48265585  0.49795126  1
  H+  H235  1  0.13338632  0.36171275  0.33144202  1
  H+  H236  1  0.13900827  0.51469706  0.33139060  1
  H+  H237  1  0.17485304  0.59436776  0.57061138  1
  H+  H238  1  0.77596656  0.63034765  0.51794119  1
  H+  H239  1  0.62523784  0.10228288  0.65951943  1
  H+  H240  1  0.35917902  0.48251037  0.17041568  1
  H+  H241  1  0.71488078  0.61410027  -0.00709628  1
  H+  H242  1  0.12768931  0.64219085  0.01384601  1
  H+  H243  1  0.97743818  0.87757425  0.50402274  1
  H+  H244  1  0.62260316  0.36155674  0.49812740  1
  H+  H245  1  0.66730131  0.59885506  0.22801147  1
  H+  H246  1  0.58143987  0.15842494  0.07305870  1
  H+  H247  1  -0.03256546  0.11489283  0.84835721  1
  H+  H248  1  0.10584236  0.13738084  0.33442035  1
  H+  H249  1  0.86035729  0.97554792  0.83372108  1
  H+  H250  1  0.92607531  0.32511507  0.56918136  1
  H+  H251  1  0.11314622  0.29063009  0.66182735  1
  H+  H252  1  0.26218251  0.64942715  0.68234753  1
  H+  H253  1  0.13752572  0.40828693  0.82488676  1
  H+  H254  1  -0.00814383  0.35600829  0.51342746  1
  H+  H255  1  -0.02560770  0.10837510  -0.00301139  1
  H+  H256  1  0.36032002  0.72660798  0.33264875  1
  H+  H257  1  0.42338023  0.41912468  0.70031029  1
  H+  H258  1  0.78252818  0.67463574  0.51130006  1
  H+  H259  1  0.76406120  0.64158114  0.30834585  1
  H+  H260  1  0.97647021  0.86705060  0.82486283  1
  H+  H261  1  0.34923124  0.70481441  0.14758252  1
  H+  H262  1  0.84927272  0.46334828  1.00186391  1
  H+  H263  1  0.49340132  0.66194710  0.98751691  1
  H+  H264  1  0.42723681  0.32606466  0.55607054  1
  H+  H265  1  0.18866935  0.19593671  0.71723773  1
  H+  H266  1  0.21122177  0.58201385  -0.00653396  1
  H+  H267  1  0.87885741  0.61293798  0.65787319  1
  H+  H268  1  0.65087272  0.61279966  0.66615794  1
  H+  H269  1  0.60229304  0.20241371  0.82512273  1
  H+  H270  1  0.12572184  0.76393849  0.65598182  1
  H+  H271  1  -0.00559495  0.36218321  0.84660856  1
  H+  H272  1  0.23937585  0.80694880  0.94684004  1
  H+  H273  1  0.64434191  0.27387538  0.17754620  1
  H+  H274  1  0.59380103  0.87379066  0.10375868  1
  H+  H275  1  0.88450257  0.77795711  0.30614449  1
  H+  H276  1  0.83918924  0.97321350  0.17323520  1
  H+  H277  1  0.61360980  1.08245184  0.84227763  1
  H+  H278  1  0.13139783  0.02782518  0.32092899  1
  H+  H279  1  0.11176059  0.73054749  0.16506658  1
  H+  H280  1  0.72612347  0.89845291  1.01055340  1
  H+  H281  1  0.22736586  0.63541751  0.84499872  1
  H+  H282  1  0.09421181  0.72061290  0.82512548  1
  H+  H283  1  0.64171996  0.63616700  0.16757714  1
  H+  H284  1  -0.03452221  0.10601994  0.32627098  1
  H+  H285  1  0.62541589  0.52814774  -0.00184622  1
  H+  H286  1  0.46146244  0.84874504  0.14647811  1
  H+  H287  1  0.64854770  0.03193834  0.18295530  1
  H+  H288  1  0.66294412  0.82647058  0.28476819  1
  H+  H289  1  0.57366887  0.14772778  0.76362602  1
  H+  H290  1  0.88663257  0.55977061  0.92934396  1
  H+  H291  1  0.03670904  0.16471030  0.13423210  1
  H+  H292  1  0.34218193  0.92567855  0.08334045  1
  H+  H293  1  0.42087576  0.82669879  0.21481370  1
  H+  H294  1  0.16273400  0.33793517  0.59871446  1
  H+  H295  1  0.15851839  0.08483022  0.26017817  1
  H+  H296  1  0.43289307  0.63162760  0.92569627  1
  H+  H297  1  0.06509797  0.18593895  0.78039049  1
  H+  H298  1  0.37887264  0.62783301  0.83830861  1
  H+  H299  1  0.50268783  0.84766931  0.82173253  1
  H+  H300  1  0.17220234  0.08039387  0.55407383  1
  H+  H301  1  0.41657027  0.04631224  0.90116874  1
  H+  H302  1  0.86141317  0.88654644  0.82720357  1
  H+  H303  1  0.15329189  0.83283732  0.89460380  1
  H+  H304  1  0.89623607  0.07030364  0.26651227  1
  H+  H305  1  0.32758190  0.90829655  0.42868481  1
  H+  H306  1  0.72392109  0.87151632  0.49463834  1
  H+  H307  1  0.90470363  0.33501740  0.24701771  1
  H+  H308  1  0.57842077  0.67074316  0.09623772  1
  H+  H309  1  0.74886226  0.62021906  0.66068910  1
  H+  H310  1  0.10892831  0.87643406  0.66547345  1
  H+  H311  1  0.91542211  0.84621758  0.60431832  1
  H+  H312  1  0.57013823  0.90288133  0.73355221  1
  H+  H313  1  0.16278684  0.58887240  0.90141356  1
  H+  H314  1  0.90670135  0.08102992  0.90652836  1
  H+  H315  1  0.64544519  0.05750576  0.90331464  1
  H+  H316  1  0.84509565  0.64811924  0.34049530  1
  H+  H317  1  0.81122439  0.93171654  0.10558954  1
  H+  H318  1  0.63918293  0.73091029  0.83725916  1
  H+  H319  1  0.51880693  0.49048232  0.77825150  1
  H+  H320  1  0.86653727  0.39282139  0.40155781  1
  H+  H321  1  0.31824171  0.90189945  0.73634471  1
  H+  H322  1  0.83658706  0.92941734  0.73519913  1
  H+  H323  1  0.23659042  0.61067278  0.32707320  1
  H+  H324  1  0.83442326  0.16476986  0.07810078  1
  H+  H325  1  0.65685632  0.33456168  0.56561447  1
  H+  H326  1  0.59423408  0.17774759  0.43261240  1
  H+  H327  1  0.57501445  0.40257244  0.10185595  1
  H+  H328  1  0.65594509  0.31528779  0.93576903  1
  H+  H329  1  0.07768706  0.16621549  0.39576753  1
  H+  H330  1  0.31863105  0.40506969  0.11399820  1
  H+  H331  1  0.59663169  0.66791561  0.73768180  1
  H+  H332  1  0.33302685  0.15744399  0.76370315  1
  H+  H333  1  0.16825850  0.10737215  0.65070726  1
  H+  H334  1  0.94306071  0.31912021  0.90555838  1
  H+  H335  1  0.16302811  0.83423063  0.56095192  1
  H+  H336  1  0.30663667  0.26788559  0.62092812  1
  H+  H337  1  0.32895792  0.14691697  0.09679994  1
  H+  H338  1  0.40322854  0.31987435  0.93305280  1
  H+  H339  1  0.83030957  0.41384449  0.09690940  1
  H+  H340  1  0.09378901  0.91085190  0.05605971  1
  H+  H341  1  0.36445440  0.97567731  0.17084464  1
  H+  H342  1  0.06909929  0.66336563  0.73162392  1
  H+  H343  1  0.42338941  0.08540486  0.55553468  1
  H+  H344  1  0.63447683  0.39159889  0.33358023  1
  H+  H345  1  0.42404602  0.32482152  0.26306732  1
  H+  H346  1  0.15795061  0.83910280  0.23089235  1
  H+  H347  1  0.06207868  0.41439941  0.07559686  1
  H+  H348  1  0.10657234  0.18691674  0.08481309  1
  H+  H349  1  0.57365497  0.65824287  0.40744977  1
  H+  H350  1  0.41033649  0.83248986  0.56640926  1
  H+  H351  1  0.91259265  0.57751258  0.60028770  1
  H+  H352  1  0.16928747  0.36091506  0.91076564  1
  H+  H353  1  0.84969957  0.66193599  0.44318222  1
  H+  H354  1  0.12902652  0.11937658  0.83677819  1
  H+  H355  1  0.82932077  0.92310091  0.43289902  1
  H+  H356  1  0.38558080  0.61193865  0.32521061  1
  H+  H357  1  0.36219070  0.20728404  0.00099225  1
  H+  H358  1  -0.00200877  0.23492703  0.72322238  1
  H+  H359  1  0.58496498  0.45856011  0.76832109  1
  H+  H360  1  0.93904581  0.80265052  0.91438619  1
  H+  H361  1  0.67501069  0.08477420  0.24503752  1
  H+  H362  1  0.31830421  0.42858184  0.78196183  1
  H+  H363  1  0.42024089  0.58053462  0.23428486  1
  H+  H364  1  0.41301914  0.08259701  0.23866292  1
  H+  H365  1  0.29306576  0.29852169  0.60920726  1
  H+  H366  1  0.85965234  0.74124801  0.15712176  1
  H+  H367  1  0.38885613  0.77822254  0.87925605  1
  H+  H368  1  0.40953418  0.58740556  0.57058597  1
  H+  H369  1  0.72960923  0.86516437  0.84645631  1
  H+  H370  1  0.51569658  0.64629277  0.50045845  1
  H+  H371  1  0.36242588  0.64046475  0.49160710  1
  H+  H372  1  0.91170133  0.10423345  0.55415956  1
  H+  H373  1  0.57084246  0.91133782  0.39964078  1
  H+  H374  1  0.63943466  0.56700479  0.57590091  1
  H+  H375  1  0.01808982  0.89003879  0.14713122  1
  H+  H376  1  0.10493933  0.68066955  0.07364383  1
  H+  H377  1  0.64920087  0.06592409  0.56616502  1
  H+  H378  1  0.09272128  0.43502894  0.72795591  1
  H+  H379  1  0.08621550  0.92293946  0.75663464  1
  H+  H380  1  0.16746065  0.07779044  0.92291068  1
  H+  H381  1  0.67007694  0.84902249  0.94517582  1
  H+  H382  1  0.63208081  0.86434084  0.19607694  1
  H+  H383  1  0.88441669  0.27360618  0.18881029  1
  O2-  O384  1  0.09880057  0.18937917  0.13010210  1
  O2-  O385  1  0.08347257  0.17189284  0.47404891  1
  O2-  O386  1  0.07482899  0.17759980  0.82367150  1
  O2-  O387  1  0.06992630  0.41766378  0.15704840  1
  O2-  O388  1  0.09923628  0.42440061  0.47889530  1
  O2-  O389  1  0.13402254  0.44993080  0.79667166  1
  O2-  O390  1  0.08256865  0.67043000  0.14901358  1
  O2-  O391  1  0.09050667  0.66873026  0.48283149  1
  O2-  O392  1  0.06653516  0.66044548  0.81000161  1
  O2-  O393  1  0.07957255  0.91894212  0.13380104  1
  O2-  O394  1  0.07589360  0.91636399  0.47414831  1
  O2-  O395  1  0.08446895  0.92738794  0.80210867  1
  O2-  O396  1  0.32805533  0.14645702  0.14221778  1
  O2-  O397  1  0.33178445  0.16717021  0.47150627  1
  O2-  O398  1  0.32903918  0.18020884  0.80351210  1
  O2-  O399  1  0.31856013  0.41811084  0.15943675  1
  O2-  O400  1  0.34006235  0.42225359  0.47886844  1
  O2-  O401  1  0.32636681  0.42517578  0.82649446  1
  O2-  O402  1  0.31768941  0.64134199  0.14277999  1
  O2-  O403  1  0.33309845  0.67042643  0.47383174  1
  O2-  O404  1  0.33112635  0.69164981  0.81404555  1
  O2-  O405  1  0.33064467  0.91675589  0.15196417  1
  O2-  O406  1  0.33119200  0.91452871  0.47390351  1
  O2-  O407  1  0.31250278  0.88635463  0.81080173  1
  O2-  O408  1  0.58432489  0.16527135  0.15244699  1
  O2-  O409  1  0.58652641  0.17522757  0.47757096  1
  O2-  O410  1  0.57274503  0.14260626  0.80893561  1
  O2-  O411  1  0.57100565  0.39948921  0.14698562  1
  O2-  O412  1  0.58346365  0.40609418  0.46931671  1
  O2-  O413  1  0.55071633  0.46833507  0.80047723  1
  O2-  O414  1  0.57601714  0.66896167  0.14286818  1
  O2-  O415  1  0.57679086  0.67374576  0.48568217  1
  O2-  O416  1  0.61541715  0.67328721  0.81578654  1
  O2-  O417  1  0.55348833  0.89329815  0.08982265  1
  O2-  O418  1  0.57548531  0.91063660  0.47719142  1
  O2-  O419  1  0.56453458  0.88516084  0.81317808  1
  O2-  O420  1  0.84389208  0.17231626  0.15845771  1
  O2-  O421  1  0.85679476  0.18551988  0.41320197  1
  O2-  O422  1  0.79681686  0.11527953  0.79816566  1
  O2-  O423  1  0.83133604  0.42210390  0.14253287  1
  O2-  O424  1  0.85949550  0.39642059  0.46636003  1
  O2-  O425  1  0.80183234  0.40659314  0.80800094  1
  O2-  O426  1  0.82393633  0.67885304  0.14421378  1
  O2-  O427  1  0.88009198  0.63694972  0.42240902  1
  O2-  O428  1  0.83253152  0.67330804  0.79586913  1
  O2-  O429  1  0.81100777  0.91509847  0.15076548  1
  O2-  O430  1  0.82167911  0.92529444  0.47845804  1
  O2-  O431  1  0.82895419  0.91643596  0.81541933  1
  O2-  O432  1  0.16013373  0.08171900  0.18014780  1
  O2-  O433  1  0.16468155  0.08248684  0.50902913  1
  O2-  O434  1  0.16166129  0.08959888  0.84737474  1
  O2-  O435  1  0.16341953  0.34052432  0.19423899  1
  O2-  O436  1  0.17351512  0.33447404  0.52104353  1
  O2-  O437  1  0.16510057  0.34297343  0.86761394  1
  O2-  O438  1  0.16159887  0.57862641  0.19674041  1
  O2-  O439  1  0.17278455  0.58897637  0.52513660  1
  O2-  O440  1  0.16615584  0.59622125  0.85599710  1
  O2-  O441  1  0.15899809  0.83831611  0.18520145  1
  O2-  O442  1  0.16399286  0.83756919  0.51537008  1
  O2-  O443  1  0.15157818  0.83121091  0.84996102  1
  O2-  O444  1  0.41606476  0.07852823  0.19386232  1
  O2-  O445  1  0.41932327  0.08853612  0.50839336  1
  O2-  O446  1  0.41123815  0.03737007  0.85679135  1
  O2-  O447  1  0.41506709  0.31643165  0.19321340  1
  O2-  O448  1  0.41984166  0.32835402  0.51209710  1
  O2-  O449  1  0.40543551  0.33480144  0.85482663  1
  O2-  O450  1  0.41524516  0.57558448  0.18850737  1
  O2-  O451  1  0.41125634  0.58801965  0.52510794  1
  O2-  O452  1  0.41002622  0.60099370  0.85650271  1
  O2-  O453  1  0.40745535  0.82134672  0.17044917  1
  O2-  O454  1  0.41227847  0.83206064  0.52080971  1
  O2-  O455  1  0.38229585  0.78250804  0.83307043  1
  O2-  O456  1  0.67337201  0.09000912  0.19919367  1
  O2-  O457  1  0.64750458  0.06262748  0.52059266  1
  O2-  O458  1  0.63687276  0.04638495  0.85894330  1
  O2-  O459  1  0.67499627  0.33420957  0.19266909  1
  O2-  O460  1  0.65241332  0.32964289  0.51873045  1
  O2-  O461  1  0.65334060  0.30867839  0.85511796  1
  O2-  O462  1  0.67812031  0.61180223  0.18324730  1
  O2-  O463  1  0.61094630  0.56087306  0.53558072  1
  O2-  O464  1  0.66767231  0.63830528  0.83993931  1
  O2-  O465  1  0.64691123  0.84259889  0.16025962  1
  O2-  O466  1  0.65974925  0.83846635  0.50674907  1
  O2-  O467  1  0.67019994  0.82962390  0.86437916  1
  O2-  O468  1  0.89014251  0.06658341  0.20297528  1
  O2-  O469  1  0.91645693  0.10502482  0.50895678  1
  O2-  O470  1  0.90659724  0.07704742  0.86109125  1
  O2-  O471  1  0.90997973  0.33511098  0.20224571  1
  O2-  O472  1  0.93056233  0.31996309  0.52448810  1
  O2-  O473  1  0.96321072  0.30690371  0.86706150  1
  O2-  O474  1  0.90226513  0.59759191  0.16604453  1
  O2-  O475  1  0.92450373  0.56050475  0.51894949  1
  O2-  O476  1  0.89123693  0.57312338  0.84692913  1
  O2-  O477  1  0.91204497  0.84413154  0.17665150  1
  O2-  O478  1  0.91757317  0.85429420  0.52133424  1
  O2-  O479  1  0.91747952  0.83359267  0.84230296  1
  O2-  O480  1  0.16089593  0.08842840  0.30561900  1
  O2-  O481  1  0.18606247  0.07080985  0.62975077  1
  O2-  O482  1  0.17052706  0.07574892  0.96877106  1
  O2-  O483  1  0.16200029  0.33126256  0.31418919  1
  O2-  O484  1  0.15710679  0.34611768  0.64324458  1
  O2-  O485  1  0.19564470  0.40281320  0.98894066  1
  O2-  O486  1  0.17454263  0.57517599  0.31131367  1
  O2-  O487  1  0.16828994  0.59932704  0.64953416  1
  O2-  O488  1  0.15460381  0.57326936  0.97895673  1
  O2-  O489  1  0.15947474  0.83866529  0.30800344  1
  O2-  O490  1  0.15829803  0.82427322  0.63931375  1
  O2-  O491  1  0.21182090  0.82521954  0.97706351  1
  O2-  O492  1  0.39808461  0.07892327  0.32185984  1
  O2-  O493  1  0.43196616  0.07171227  0.62544888  1
  O2-  O494  1  0.41979702  0.06709195  0.98594655  1
  O2-  O495  1  0.42890931  0.32884551  0.31017620  1
  O2-  O496  1  0.46266902  0.29387763  0.65503343  1
  O2-  O497  1  0.40403025  0.31110188  0.97810805  1
  O2-  O498  1  0.41526969  0.58090101  0.31058074  1
  O2-  O499  1  0.41474311  0.59865849  0.65261224  1
  O2-  O500  1  0.43946395  0.65501747  0.96866077  1
  O2-  O501  1  0.41284045  0.82810438  0.29911396  1
  O2-  O502  1  0.41015509  0.83113194  0.64573483  1
  O2-  O503  1  0.41278180  0.78818890  0.95188688  1
  O2-  O504  1  0.67291152  0.07825020  0.31995594  1
  O2-  O505  1  0.65536994  0.07199593  0.64387407  1
  O2-  O506  1  0.65979733  0.07263052  0.98779674  1
  O2-  O507  1  0.69992309  0.34442765  0.31189806  1
  O2-  O508  1  0.66602128  0.33650934  0.63635250  1
  O2-  O509  1  0.65548424  0.32052815  0.98091231  1
  O2-  O510  1  0.65230461  0.57897427  0.30283825  1
  O2-  O511  1  0.67929656  0.58215459  0.64899929  1
  O2-  O512  1  0.65228352  0.58851011  0.98449393  1
  O2-  O513  1  0.66031543  0.82949649  0.32891710  1
  O2-  O514  1  0.66394122  0.83858412  0.65517583  1
  O2-  O515  1  0.66429070  0.85054293  0.99027352  1
  O2-  O516  1  0.90330295  0.07099072  0.31591371  1
  O2-  O517  1  0.90627988  0.09188742  0.63785437  1
  O2-  O518  1  0.91520943  0.08979162  0.98395785  1
  O2-  O519  1  0.90844780  0.34108504  0.33437288  1
  O2-  O520  1  0.90984739  0.33228569  0.64978026  1
  O2-  O521  1  0.91003813  0.32530139  0.98594975  1
  O2-  O522  1  1.00897402  0.60752346  0.32697999  1
  O2-  O523  1  0.91101317  0.57970037  0.64532110  1
  O2-  O524  1  0.88810261  0.55462902  0.97414168  1
  O2-  O525  1  0.91944728  0.84253196  0.30066065  1
  O2-  O526  1  0.91382653  0.84078069  0.64913526  1
  O2-  O527  1  0.95215207  0.77969926  0.95158112  1
  O2-  O528  1  0.09776246  0.16370588  0.01004690  1
  O2-  O529  1  0.07493123  0.16686050  0.35010756  1
  O2-  O530  1  0.03104376  0.21029664  0.70605454  1
  O2-  O531  1  0.06415836  0.41346086  0.03045179  1
  O2-  O532  1  0.08756155  0.42679755  0.35918687  1
  O2-  O533  1  0.07905569  0.43315418  0.68328646  1
  O2-  O534  1  0.11520934  0.68732255  0.02863635  1
  O2-  O535  1  0.07013344  0.67011458  0.35538846  1
  O2-  O536  1  0.07206707  0.66507543  0.68600035  1
  O2-  O537  1  0.10326861  0.91136758  0.01098629  1
  O2-  O538  1  0.07988472  0.92274437  0.34862161  1
  O2-  O539  1  0.08371744  0.91234359  0.67985105  1
  O2-  O540  1  0.33301708  0.14623104  0.01571227  1
  O2-  O541  1  0.32498446  0.16858702  0.34813014  1
  O2-  O542  1  0.33661382  0.12301646  0.67712110  1
  O2-  O543  1  0.31724810  0.38804297  0.04338968  1
  O2-  O544  1  0.33693707  0.41317060  0.35315873  1
  O2-  O545  1  0.28359332  0.45958288  0.71584717  1
  O2-  O546  1  0.29366602  0.56970685  0.02332443  1
  O2-  O547  1  0.33133014  0.66674483  0.34993566  1
  O2-  O548  1  0.32296830  0.67988523  0.69932455  1
  O2-  O549  1  0.34998270  0.92604652  0.03660013  1
  O2-  O550  1  0.32443271  0.90480244  0.34702427  1
  O2-  O551  1  0.32025974  0.90623568  0.69034421  1
  O2-  O552  1  0.57862972  0.15576415  0.02755982  1
  O2-  O553  1  0.61469143  0.18752457  0.35240480  1
  O2-  O554  1  0.57642602  0.15955493  0.68340096  1
  O2-  O555  1  0.57608822  0.41032191  0.02038866  1
  O2-  O556  1  0.59797018  0.41556018  0.34762131  1
  O2-  O557  1  0.64711210  0.45170840  0.71248865  1
  O2-  O558  1  0.58700425  0.68294518  0.02364455  1
  O2-  O559  1  0.57380449  0.65791456  0.36176414  1
  O2-  O560  1  0.59154969  0.66536066  0.69244411  1
  O2-  O561  1  0.56345051  0.90183073  0.02262261  1
  O2-  O562  1  0.57371129  0.91046770  0.35393024  1
  O2-  O563  1  0.57071742  0.90657210  0.68824580  1
  O2-  O564  1  0.82634776  0.16048351  0.03288470  1
  O2-  O565  1  0.80764955  0.10090361  0.38374432  1
  O2-  O566  1  0.82126300  0.16457316  0.68531212  1
  O2-  O567  1  0.82366923  0.40352204  0.02154288  1
  O2-  O568  1  0.86400979  0.38847057  0.35237367  1
  O2-  O569  1  0.82259659  0.41270020  0.68082201  1
  O2-  O570  1  0.82210310  0.65635785  0.01354425  1
  O2-  O571  1  0.82792017  0.67251182  0.30703184  1
  O2-  O572  1  0.83217843  0.65755875  0.67996538  1
  O2-  O573  1  0.79651723  0.96137349  0.04192067  1
  O2-  O574  1  0.83459419  0.91432749  0.35853564  1
  O2-  O575  1  0.83771509  0.93174409  0.68967731  1
