# generated using pymatgen
data_H2O
_symmetry_space_group_name_H-M   'P 1'
_cell_length_a   17.99739314
_cell_length_b   18.00421298
_cell_length_c   22.00361768
_cell_angle_alpha   89.99597076
_cell_angle_beta   90.01165371
_cell_angle_gamma   120.02392299
_symmetry_Int_Tables_number   1
_chemical_formula_structural   H2O
_chemical_formula_sum   'H384 O192'
_cell_volume   6173.10572482
_cell_formula_units_Z   192
loop_
 _symmetry_equiv_pos_site_id
 _symmetry_equiv_pos_as_xyz
  1  'x, y, z'
loop_
 _atom_type_symbol
 _atom_type_oxidation_number
  H+  1.0
  O2-  -2.0
loop_
 _atom_site_type_symbol
 _atom_site_label
 _atom_site_symmetry_multiplicity
 _atom_site_fract_x
 _atom_site_fract_y
 _atom_site_fract_z
 _atom_site_occupancy
  H+  H0  1  0.61891374  0.35174175  0.96740931  1
  H+  H1  1  0.23727256  0.86825687  0.65942266  1
  H+  H2  1  0.21938382  0.36413597  0.66329618  1
  H+  H3  1  0.62338636  0.49554322  0.81757142  1
  H+  H4  1  0.62222683  0.29096941  0.16076562  1
  H+  H5  1  0.48798351  0.38749605  0.34721952  1
  H+  H6  1  0.41867132  0.59116849  -0.04225915  1
  H+  H7  1  0.51202511  0.63301616  0.85222975  1
  H+  H8  1  0.48099452  0.37647470  0.50155320  1
  H+  H9  1  0.60290988  0.25696336  -0.03078314  1
  H+  H10  1  0.47322422  0.84848427  0.51272280  1
  H+  H11  1  0.38231299  0.52753589  0.50119098  1
  H+  H12  1  0.24439912  0.40825949  0.75080953  1
  H+  H13  1  0.10567783  0.37440893  0.15912188  1
  H+  H14  1  0.23201831  0.16270813  0.31657074  1
  H+  H15  1  0.86761673  0.10565274  0.33885566  1
  H+  H16  1  0.72192177  0.11104920  0.16869573  1
  H+  H17  1  0.26620885  0.63404627  0.00516605  1
  H+  H18  1  0.72045157  0.85445135  0.65845125  1
  H+  H19  1  0.03583094  0.63517663  -0.00274760  1
  H+  H20  1  0.14120428  0.36655874  0.50000048  1
  H+  H21  1  0.33498326  0.68422105  0.09375315  1
  H+  H22  1  0.36081494  0.39107427  0.17778060  1
  H+  H23  1  0.38948315  0.38622407  0.35429730  1
  H+  H24  1  0.97103093  0.61072718  0.32388434  1
  H+  H25  1  0.01558878  0.14695141  0.50476377  1
  H+  H26  1  0.60582152  0.14442575  0.15130701  1
  H+  H27  1  0.62887850  0.04748067  0.44422127  1
  H+  H28  1  0.61910475  -0.01312345  0.83658134  1
  H+  H29  1  0.75694111  0.13189607  0.67657937  1
  H+  H30  1  0.54545790  0.38268940  0.66382441  1
  H+  H31  1  0.14757328  0.76403257  -0.00930328  1
  H+  H32  1  0.18903918  0.57194177  0.17417550  1
  H+  H33  1  0.10365690  0.46038475  0.66420197  1
  H+  H34  1  0.89221125  0.77918953  0.32453260  1
  H+  H35  1  0.62756032  0.23583528  0.67332231  1
  H+  H36  1  0.52274420  0.89554188  0.00700328  1
  H+  H37  1  0.85195340  -0.01176191  0.67541373  1
  H+  H38  1  0.35781536  0.48672132  0.37181129  1
  H+  H39  1  0.51985240  0.89290754  0.68017662  1
  H+  H40  1  0.96971655  0.11399888  0.16300144  1
  H+  H41  1  0.87160123  0.49816655  0.00035328  1
  H+  H42  1  0.84300460  0.67021692  0.61541722  1
  H+  H43  1  0.86199738  0.43839868  0.42028744  1
  H+  H44  1  0.35650469  0.64145103  0.34585698  1
  H+  H45  1  0.51451770  0.12703312  0.33847272  1
  H+  H46  1  0.12999036  0.89538091  0.67613734  1
  H+  H47  1  0.09726163  0.14766305  0.34644603  1
  H+  H48  1  0.04172755  0.89996433  0.48719374  1
  H+  H49  1  0.49631134  0.88510141  0.16539493  1
  H+  H50  1  0.38716101  0.36064663  0.69437174  1
  H+  H51  1  0.51808569  0.63217996  0.49571987  1
  H+  H52  1  0.88909636  0.35136700  0.17297717  1
  H+  H53  1  0.52130290  0.38897200  1.00452765  1
  H+  H54  1  0.61326193  0.89820535  0.00427462  1
  H+  H55  1  0.88298712  0.76913815  0.16991052  1
  H+  H56  1  0.77039445  0.89159946  -0.00075146  1
  H+  H57  1  0.57414531  0.12591466  -0.01155282  1
  H+  H58  1  0.60720223  0.22520695  0.82240804  1
  H+  H59  1  0.39550971  0.38160837  0.49636736  1
  H+  H60  1  0.51275937  0.62811486  0.68103600  1
  H+  H61  1  0.74244798  0.37352767  0.65636911  1
  H+  H62  1  0.30061163  0.14820668  0.68488509  1
  H+  H63  1  0.37385503  0.01760741  0.64543472  1
  H+  H64  1  0.66226695  0.92332716  0.28034958  1
  H+  H65  1  0.63827860  0.03030738  0.66822946  1
  H+  H66  1  0.35665175  0.97075776  0.14985872  1
  H+  H67  1  0.87709681  0.48359488  0.67727341  1
  H+  H68  1  0.87526028  0.98267277  0.82607225  1
  H+  H69  1  0.85105968  0.22400574  0.67538830  1
  H+  H70  1  0.61107618  0.14491668  0.49133805  1
  H+  H71  1  0.87841684  1.01559478  0.33877453  1
  H+  H72  1  0.38447828  0.10985652  0.65188135  1
  H+  H73  1  0.87281933  0.36994516  -0.00121494  1
  H+  H74  1  0.16777891  0.12180824  0.83669023  1
  H+  H75  1  0.27980494  0.16104528  0.01539303  1
  H+  H76  1  0.64175250  0.37555415  0.82205582  1
  H+  H77  1  0.88367997  0.61531848  0.83120667  1
  H+  H78  1  0.34032866  0.43825902  0.74542148  1
  H+  H79  1  0.23483359  0.36110033  0.33454175  1
  H+  H80  1  0.63535090  0.86244553  0.17475899  1
  H+  H81  1  0.11506091  0.11369773  0.52666049  1
  H+  H82  1  0.81328942  0.38337855  0.13135912  1
  H+  H83  1  0.76466504  0.63640864  0.81681740  1
  H+  H84  1  0.11189698  0.86134725  0.01057402  1
  H+  H85  1  0.46058654  0.10769096  0.14073084  1
  H+  H86  1  0.89058949  0.36190700  0.50052387  1
  H+  H87  1  0.39157307  0.87681554  0.16908614  1
  H+  H88  1  0.76006898  0.63724420  0.65552533  1
  H+  H89  1  0.46909345  0.36903726  0.20272778  1
  H+  H90  1  0.63549807  0.52796057  0.18694729  1
  H+  H91  1  0.86002047  0.63027605  0.15808897  1
  H+  H92  1  0.28033372  0.88608417  0.34319724  1
  H+  H93  1  0.63960352  0.76298596  0.50428437  1
  H+  H94  1  0.10987225  0.22911198  0.00163941  1
  H+  H95  1  0.35918299  0.72480519  0.49767364  1
  H+  H96  1  0.72388234  0.61339276  0.50480107  1
  H+  H97  1  0.08007144  0.64906074  0.09565307  1
  H+  H98  1  0.65601337  0.37712168  0.65748862  1
  H+  H99  1  0.51788203  0.12797101  0.83031957  1
  H+  H100  1  0.38849560  0.07347228  0.09035201  1
  H+  H101  1  0.88279306  1.02265077  0.16469037  1
  H+  H102  1  0.22548456  0.36454254  0.17093460  1
  H+  H103  1  0.64981686  0.78222534  0.83743713  1
  H+  H104  1  0.11517721  0.47774456  0.00343311  1
  H+  H105  1  0.61313453  0.71351574  0.33902309  1
  H+  H106  1  0.08146523  0.13479351  0.62744131  1
  H+  H107  1  0.65318116  0.60837261  0.97667756  1
  H+  H108  1  0.10553526  0.13792751  0.15458765  1
  H+  H109  1  0.39319850  0.37661542  -0.00098372  1
  H+  H110  1  0.35525533  0.14669709  0.16177782  1
  H+  H111  1  0.59548566  0.39448123  0.05022305  1
  H+  H112  1  -0.04427797  0.36265847  -0.00530713  1
  H+  H113  1  0.63739916  0.64265705  0.82744134  1
  H+  H114  1  0.89451999  0.02423917  0.99018653  1
  H+  H115  1  0.22164464  0.60857325  0.83537809  1
  H+  H116  1  0.56273889  0.65143451  -0.06332602  1
  H+  H117  1  0.97090080  0.35005143  0.50501643  1
  H+  H118  1  0.46892455  0.61382477  0.18820873  1
  H+  H119  1  0.87780583  0.12191183  1.00645239  1
  H+  H120  1  0.39797486  0.57030506  0.60879331  1
  H+  H121  1  0.37600619  0.86877276  0.33617286  1
  H+  H122  1  0.61223498  0.86687779  0.50305014  1
  H+  H123  1  0.97235111  0.34349643  0.16856509  1
  H+  H124  1  0.08342797  0.67902226  0.73115358  1
  H+  H125  1  0.10742278  0.62688903  0.34840463  1
  H+  H126  1  0.35832557  0.73256772  0.01072778  1
  H+  H127  1  0.63790506  0.12629975  0.84100504  1
  H+  H128  1  0.23256673  0.85669450  -0.00758274  1
  H+  H129  1  0.85808670  0.62944040  0.49483685  1
  H+  H130  1  0.01891021  0.64047663  0.51346289  1
  H+  H131  1  0.83948730  0.15257498  0.07423953  1
  H+  H132  1  0.95403239  0.47999213  0.44812305  1
  H+  H133  1  0.71964133  0.36668131  0.35108159  1
  H+  H134  1  0.77783047  0.14703554  0.82766019  1
  H+  H135  1  0.11260549  0.22832753  0.65360368  1
  H+  H136  1  0.03896701  0.14073826  0.81778749  1
  H+  H137  1  0.62021076  0.89799864  0.83275885  1
  H+  H138  1  0.36480530  0.88643922  0.67553099  1
  H+  H139  1  0.87803957  0.27074493  0.82667924  1
  H+  H140  1  0.55111745  0.42835293  0.12986564  1
  H+  H141  1  0.42277975  0.63112301  0.85997811  1
  H+  H142  1  0.10735867  0.22732332  0.15527039  1
  H+  H143  1  0.17420572  0.58296103  0.89892434  1
  H+  H144  1  0.90886167  0.63563249  0.98772464  1
  H+  H145  1  0.14949439  0.28791613  0.80755676  1
  H+  H146  1  0.11047280  0.63935561  0.82693442  1
  H+  H147  1  0.02628593  0.88415227  0.17212967  1
  H+  H148  1  0.48035081  0.87442662  0.84680506  1
  H+  H149  1  0.20923923  0.59234265  0.65278014  1
  H+  H150  1  0.50622852  0.90669681  0.35952229  1
  H+  H151  1  0.76388337  0.12433450  0.33802206  1
  H+  H152  1  0.11542706  0.46297579  0.34047992  1
  H+  H153  1  0.27240501  0.87527664  0.16355989  1
  H+  H154  1  0.71235872  0.09940840  0.48452498  1
  H+  H155  1  0.85452675  0.48093835  0.33195423  1
  H+  H156  1  0.37972507  -0.01148957  0.83123821  1
  H+  H157  1  0.35587895  0.06885539  0.97937595  1
  H+  H158  1  0.22081093  0.54001038  0.96022288  1
  H+  H159  1  0.97171349  0.36964836  0.82492914  1
  H+  H160  1  0.38434158  0.62008074  0.18099662  1
  H+  H161  1  0.86406290  0.73139921  1.00672541  1
  H+  H162  1  0.35970651  0.17461479  0.74728244  1
  H+  H163  1  0.38318058  0.62082631  0.01332705  1
  H+  H164  1  0.65754386  0.33156178  0.88017661  1
  H+  H165  1  0.85177999  0.13124693  0.49604131  1
  H+  H166  1  0.60315734  0.38859955  0.17131039  1
  H+  H167  1  0.98649211  0.11632607  0.99201155  1
  H+  H168  1  0.66730139  0.81698964  0.56738415  1
  H+  H169  1  0.63492256  0.52154956  0.66012598  1
  H+  H170  1  0.60143130  0.38677154  0.35340618  1
  H+  H171  1  0.77741106  0.64243384  0.33989187  1
  H+  H172  1  0.40040772  0.39132403  0.66820968  1
  H+  H173  1  0.89015413  0.61317997  0.66626391  1
  H+  H174  1  0.32953899  0.17915367  0.38081631  1
  H+  H175  1  0.09587935  0.92115109  0.22350169  1
  H+  H176  1  0.13645131  0.85056436  0.17540864  1
  H+  H177  1  0.87620669  0.88894999  0.34270083  1
  H+  H178  1  0.38299409  0.61501023  0.50833533  1
  H+  H179  1  0.86019206  0.78942946  0.63805822  1
  H+  H180  1  0.41156604  0.40962344  0.81858662  1
  H+  H181  1  0.89691916  0.85433232  0.49102602  1
  H+  H182  1  0.85050153  0.21923970  0.49259594  1
  H+  H183  1  0.11275729  0.59395740  0.17244243  1
  H+  H184  1  0.85952483  0.12473056  0.15570755  1
  H+  H185  1  0.48561570  0.12292583  1.00783027  1
  H+  H186  1  0.27238385  0.39245770  0.46801992  1
  H+  H187  1  0.87125946  0.12191271  0.66595175  1
  H+  H188  1  0.88520881  0.36278261  0.65979623  1
  H+  H189  1  0.38681209  0.74434307  0.82958749  1
  H+  H190  1  0.64418772  0.12286705  0.66513948  1
  H+  H191  1  0.92715692  0.09266583  0.89389992  1
  H+  H192  1  0.38059833  1.00400445  0.33377903  1
  H+  H193  1  0.37667438  0.14208503  0.82780655  1
  H+  H194  1  0.22058197  0.12256442  0.17458139  1
  H+  H195  1  0.86103239  0.47756239  0.82863054  1
  H+  H196  1  0.97170568  0.36627101  0.32579708  1
  H+  H197  1  0.89644056  0.52966906  0.51020419  1
  H+  H198  1  0.86713936  0.51210194  0.16036620  1
  H+  H199  1  0.36572986  0.15849978  0.03074440  1
  H+  H200  1  0.24693596  0.87405115  0.49648072  1
  H+  H201  1  0.46940721  0.61064779  0.33869473  1
  H+  H202  1  0.21895535  0.35809352  -0.00085203  1
  H+  H203  1  0.63693227  0.28182506  0.50339435  1
  H+  H204  1  0.38951293  0.85867406  0.50480072  1
  H+  H205  1  0.41818888  0.50019999  0.82855149  1
  H+  H206  1  0.29608844  1.03190285  0.50725259  1
  H+  H207  1  0.01276050  0.62046232  0.15189282  1
  H+  H208  1  0.11762192  0.02636428  0.52870933  1
  H+  H209  1  0.13460330  0.03054770  0.17805911  1
  H+  H210  1  -0.01207783  0.86516871  -0.00370660  1
  H+  H211  1  -0.02979999  0.11163737  0.34520419  1
  H+  H212  1  0.86988784  0.88091812  0.64772115  1
  H+  H213  1  0.16554726  0.12396314  0.68122828  1
  H+  H214  1  0.12173981  0.89007037  0.30762952  1
  H+  H215  1  0.85714322  0.88610431  0.00382457  1
  H+  H216  1  0.74094387  0.84055269  0.32690721  1
  H+  H217  1  0.85753619  0.39325201  0.33218633  1
  H+  H218  1  0.13354643  0.75975138  0.16614973  1
  H+  H219  1  0.14286874  0.86471910  0.83857458  1
  H+  H220  1  0.10805132  0.68556496  0.54631520  1
  H+  H221  1  1.03697413  0.89678007  0.30706368  1
  H+  H222  1  0.13703275  -0.01373797  0.68287195  1
  H+  H223  1  0.13519361  0.60193163  0.49906551  1
  H+  H224  1  0.62825613  1.02831926  0.32700121  1
  H+  H225  1  0.39213093  0.28808334  1.00237591  1
  H+  H226  1  0.35836540  0.52064313  0.67245390  1
  H+  H227  1  0.08886352  0.45368504  0.16356596  1
  H+  H228  1  0.85730431  0.21484695  0.15304214  1
  H+  H229  1  0.67515198  0.12715858  1.03323080  1
  H+  H230  1  0.35119755  0.15420046  0.47468856  1
  H+  H231  1  0.11402433  0.73001158  0.82798634  1
  H+  H232  1  0.60203202  0.62287908  0.34509562  1
  H+  H233  1  0.13530425  0.91618094  0.49327526  1
  H+  H234  1  0.63387566  0.11721917  0.32039136  1
  H+  H235  1  0.63278682  0.77220663  0.17483584  1
  H+  H236  1  0.34698301  0.62987554  0.67265583  1
  H+  H237  1  0.29195745  0.68127571  0.16080365  1
  H+  H238  1  0.03725200  0.89130352  0.82386841  1
  H+  H239  1  0.10942458  0.23300113  0.49754015  1
  H+  H240  1  0.11200131  0.37215685  0.33638831  1
  H+  H241  1  0.78531459  0.12878093  1.00778881  1
  H+  H242  1  0.14964670  0.79716661  0.49829886  1
  H+  H243  1  0.63294225  0.61140090  0.50417540  1
  H+  H244  1  0.68609558  0.81611637  0.26560648  1
  H+  H245  1  0.10814673  0.46475604  0.48682389  1
  H+  H246  1  0.37962894  0.27938081  0.20106486  1
  H+  H247  1  0.22020652  0.60963734  0.33264251  1
  H+  H248  1  0.60087622  0.62679938  0.67653190  1
  H+  H249  1  0.37668388  0.76778880  0.66108143  1
  H+  H250  1  0.61651634  0.48089342  0.49606479  1
  H+  H251  1  0.88613181  0.76912992  0.82724717  1
  H+  H252  1  0.41080912  0.34876864  0.28813111  1
  H+  H253  1  0.39073627  0.86929121  0.99565340  1
  H+  H254  1  0.96511685  0.91956623  0.95358962  1
  H+  H255  1  0.34363143  0.12711042  0.32901249  1
  H+  H256  1  0.98634513  0.62605681  0.66565925  1
  H+  H257  1  0.15325834  0.12947243  0.99181688  1
  H+  H258  1  0.33095698  0.66926068  0.43564786  1
  H+  H259  1  0.63451427  0.76168499  0.65942695  1
  H+  H260  1  0.61567649  0.38935630  0.49477569  1
  H+  H261  1  0.61363065  0.98565929  0.16039051  1
  H+  H262  1  0.71526962  0.38569334  0.15675984  1
  H+  H263  1  0.78400402  0.63738892  1.00144361  1
  H+  H264  1  0.88338154  0.85891183  0.16723613  1
  H+  H265  1  0.35785701  0.47898545  1.02002024  1
  H+  H266  1  0.63806133  0.78538988  0.97828966  1
  H+  H267  1  0.12929768  0.35618752  0.65338911  1
  H+  H268  1  0.87461232  0.36699791  0.82992078  1
  H+  H269  1  0.96231144  0.12251672  0.66057057  1
  H+  H270  1  0.64390821  0.90904079  0.31156585  1
  H+  H271  1  0.35936300  0.97631124  0.01719075  1
  H+  H272  1  0.97396344  0.61656545  0.83278859  1
  H+  H273  1  0.89627033  0.12160502  0.83524290  1
  H+  H274  1  0.88260511  0.02590888  0.51751484  1
  H+  H275  1  0.85079336  0.89600875  0.55024417  1
  H+  H276  1  0.28455637  0.89482845  0.82769220  1
  H+  H277  1  0.36504004  0.97128395  0.48434159  1
  H+  H278  1  0.63950874  0.52561801  0.33392362  1
  H+  H279  1  0.39705278  0.26779178  0.83882392  1
  H+  H280  1  0.65713496  0.32791069  0.40566319  1
  H+  H281  1  0.35958203  0.47910065  0.17102648  1
  H+  H282  1  0.42635565  0.25881104  0.65486668  1
  H+  H283  1  0.65365937  0.52121118  0.98541826  1
  H+  H284  1  0.35553722  0.73113133  0.34349496  1
  H+  H285  1  0.61315585  0.63416524  0.17759335  1
  H+  H286  1  0.77148843  0.88429617  0.15742671  1
  H+  H287  1  0.22662596  0.60617000  0.49724861  1
  H+  H288  1  0.83269667  0.92550458  0.73277494  1
  H+  H289  1  0.07667822  0.39943035  0.43062410  1
  H+  H290  1  0.11926338  0.62445019  0.00014062  1
  H+  H291  1  0.90347782  0.08951022  0.57337864  1
  H+  H292  1  0.84585862  0.91210461  0.40529107  1
  H+  H293  1  0.57382984  0.65766829  0.43393055  1
  H+  H294  1  0.13474111  0.76617294  0.32722972  1
  H+  H295  1  0.83878803  0.66834503  0.39708510  1
  H+  H296  1  0.83488309  0.66981404  0.75941143  1
  H+  H297  1  0.53594383  0.63763077  0.00272046  1
  H+  H298  1  0.57636231  0.92560790  0.73998889  1
  H+  H299  1  0.91278866  0.33240364  0.26745482  1
  H+  H300  1  0.33074232  0.41381729  0.07493141  1
  H+  H301  1  0.42774602  0.07772955  0.89329650  1
  H+  H302  1  0.91364392  0.58070540  0.57508957  1
  H+  H303  1  0.40097608  0.78796574  0.16454534  1
  H+  H304  1  0.86525641  0.72087707  0.48886116  1
  H+  H305  1  0.76776929  0.38830522  0.82341778  1
  H+  H306  1  0.92868412  0.60136251  0.92559277  1
  H+  H307  1  0.07917803  0.16687734  0.06027410  1
  H+  H308  1  0.57325224  0.65097850  0.11908674  1
  H+  H309  1  0.06161836  0.15783242  0.41267046  1
  H+  H310  1  0.67074010  0.58724386  0.27508744  1
  H+  H311  1  0.41940867  0.83951875  0.27991453  1
  H+  H312  1  0.17110451  0.83116101  0.89717358  1
  H+  H313  1  0.38889398  0.87147393  0.84196036  1
  H+  H314  1  0.64096873  0.03217488  1.00872578  1
  H+  H315  1  0.87209533  0.89091000  0.82350231  1
  H+  H316  1  0.60132781  0.21997597  0.34384056  1
  H+  H317  1  0.36385536  0.24741878  0.47640541  1
  H+  H318  1  0.10163475  0.92222754  0.76741344  1
  H+  H319  1  0.68473888  0.58996781  0.88103273  1
  H+  H320  1  0.59051361  0.67093070  0.77448393  1
  H+  H321  1  0.77179387  0.87627848  0.50946139  1
  H+  H322  1  0.57486854  0.16970020  0.09013160  1
  H+  H323  1  0.58315103  0.92377450  0.09998992  1
  H+  H324  1  0.81799156  0.44217494  0.05707020  1
  H+  H325  1  1.01278594  0.37211653  0.66842740  1
  H+  H326  1  0.40173568  0.57568352  0.28440514  1
  H+  H327  1  0.16137837  0.03181823  0.84275503  1
  H+  H328  1  0.08053729  0.66574436  0.40371859  1
  H+  H329  1  0.90637203  0.32637577  0.59914664  1
  H+  H330  1  0.92456549  0.83296117  0.55068591  1
  H+  H331  1  0.67221915  0.85246388  0.92508767  1
  H+  H332  1  0.19451403  0.10421729  0.93715957  1
  H+  H333  1  0.13087984  0.36482095  0.81408085  1
  H+  H334  1  0.07708003  0.41447149  0.06060718  1
  H+  H335  1  0.59377256  0.42626657  0.72845704  1
  H+  H336  1  0.65551199  0.58087171  0.59994797  1
  H+  H337  1  0.83095247  0.66372220  0.10099519  1
  H+  H338  1  0.17488178  0.09157479  0.61689802  1
  H+  H339  1  0.91203398  0.83447033  0.26355681  1
  H+  H340  1  0.84068615  0.42072602  0.73493818  1
  H+  H341  1  0.13112743  0.35891326  0.99368738  1
  H+  H342  1  0.33168589  0.19464521  0.11365218  1
  H+  H343  1  0.17010900  0.81681976  0.26498703  1
  H+  H344  1  0.58135283  0.17037513  0.43246773  1
  H+  H345  1  0.42193711  0.33428060  0.89784928  1
  H+  H346  1  0.18377011  0.84832986  0.59699178  1
  H+  H347  1  0.15918460  0.55745692  0.59020959  1
  H+  H348  1  0.67401551  0.34624355  0.55942285  1
  H+  H349  1  0.57912183  0.42519393  0.41077169  1
  H+  H350  1  0.91876151  0.82460295  0.88800618  1
  H+  H351  1  0.66192984  0.08467767  0.22851221  1
  H+  H352  1  0.15337630  0.57314083  0.27655503  1
  H+  H353  1  0.60697656  0.95394586  0.50194493  1
  H+  H354  1  0.17586856  0.26785122  0.30993168  1
  H+  H355  1  0.56953140  0.91859133  0.41340027  1
  H+  H356  1  0.37325597  0.07009781  0.55368202  1
  H+  H357  1  0.67608569  0.10572122  0.90116215  1
  H+  H358  1  0.09025182  0.90026865  0.06924073  1
  H+  H359  1  0.16425212  0.13449956  0.26293381  1
  H+  H360  1  0.42362252  0.70434140  0.78395627  1
  H+  H361  1  0.72771775  0.61512360  0.17764863  1
  H+  H362  1  0.16977112  0.33310552  0.23060821  1
  H+  H363  1  0.82846894  0.91385370  0.09698371  1
  H+  H364  1  0.08822464  0.15743834  0.75596720  1
  H+  H365  1  0.88642702  0.61772258  0.32100739  1
  H+  H366  1  0.42049812  0.83878928  0.93652231  1
  H+  H367  1  0.73714794  0.87338350  0.83568349  1
  H+  H368  1  0.91100290  0.57330090  0.22084565  1
  H+  H369  1  0.11356207  0.73848687  0.67121441  1
  H+  H370  1  0.09927341  0.47641794  0.82003749  1
  H+  H371  1  0.44053110  0.31717235  0.59562259  1
  H+  H372  1  0.53408223  0.40229129  0.82307852  1
  H+  H373  1  0.18254341  0.34504842  0.55680181  1
  H+  H374  1  0.41164458  0.82828564  0.60307867  1
  H+  H375  1  0.82051053  0.15340014  0.39998994  1
  H+  H376  1  0.40978993  0.06465791  0.27348047  1
  H+  H377  1  0.59204782  0.17416605  0.73153861  1
  H+  H378  1  0.06934650  0.41713304  0.75860395  1
  H+  H379  1  0.34254768  0.91181907  0.42388213  1
  H+  H380  1  0.32867455  0.90021203  0.06606380  1
  H+  H381  1  0.83049136  0.17095708  0.76425881  1
  H+  H382  1  0.33914577  0.92176965  0.73416159  1
  H+  H383  1  0.31418510  0.65956987  0.72953114  1
  O2-  O384  1  0.07524417  0.16806055  0.13848077  1
  O2-  O385  1  0.07462717  0.17070552  0.48776902  1
  O2-  O386  1  0.09718752  0.16840164  0.79974386  1
  O2-  O387  1  0.06832864  0.39731595  0.14360373  1
  O2-  O388  1  0.07594340  0.40221904  0.47616094  1
  O2-  O389  1  0.06338045  0.41690499  0.80433875  1
  O2-  O390  1  0.07598652  0.64897382  0.14109576  1
  O2-  O391  1  0.08312494  0.67051370  0.50559232  1
  O2-  O392  1  0.08051794  0.66931467  0.81181368  1
  O2-  O393  1  0.09001781  0.91506581  0.17662582  1
  O2-  O394  1  0.10242934  0.94493723  0.48266584  1
  O2-  O395  1  0.09896159  0.92027806  0.81388906  1
  O2-  O396  1  0.33059106  0.18503593  0.15904302  1
  O2-  O397  1  0.33126421  0.19102717  0.45586491  1
  O2-  O398  1  0.35666674  0.18054982  0.81145736  1
  O2-  O399  1  0.33288823  0.41906088  0.15569670  1
  O2-  O400  1  0.33405384  0.42746836  0.45308764  1
  O2-  O401  1  0.41384479  0.45970532  0.79703615  1
  O2-  O402  1  0.34619792  0.69281138  0.14281344  1
  O2-  O403  1  0.32992264  0.66404148  0.48106625  1
  O2-  O404  1  0.37456345  0.68754307  0.81077609  1
  O2-  O405  1  0.33395830  0.90657256  0.14917964  1
  O2-  O406  1  0.34342530  0.91062332  0.47177396  1
  O2-  O407  1  0.34525392  0.92243204  0.81443237  1
  O2-  O408  1  0.57339886  0.17135653  0.13549818  1
  O2-  O409  1  0.58984005  0.18265834  0.47660286  1
  O2-  O410  1  0.58338944  0.16314837  0.81465862  1
  O2-  O411  1  0.56581582  0.42386866  0.17177091  1
  O2-  O412  1  0.58522656  0.42130499  0.47887088  1
  O2-  O413  1  0.59252294  0.43263863  0.80448228  1
  O2-  O414  1  0.57670262  0.65954170  0.16293344  1
  O2-  O415  1  0.57778377  0.65853080  0.47951084  1
  O2-  O416  1  0.60194610  0.67657849  0.81906385  1
  O2-  O417  1  0.58049511  0.92314773  0.14590078  1
  O2-  O418  1  0.57549158  0.89201013  0.49095938  1
  O2-  O419  1  0.58541857  0.92570031  0.82377861  1
  O2-  O420  1  0.82620100  0.15417735  0.13789920  1
  O2-  O421  1  0.82111219  0.15903585  0.47714711  1
  O2-  O422  1  0.83761975  0.17678648  0.81070085  1
  O2-  O423  1  0.79946997  0.42886296  0.13487479  1
  O2-  O424  1  0.89409297  0.45216952  0.46074159  1
  O2-  O425  1  0.83225371  0.41709108  0.81300609  1
  O2-  O426  1  0.82909534  0.66193310  0.14628905  1
  O2-  O427  1  0.82890763  0.65897156  0.47677814  1
  O2-  O428  1  0.83317563  0.66876218  0.80371906  1
  O2-  O429  1  0.83184067  0.91323529  0.14213784  1
  O2-  O430  1  0.83749091  0.91012249  0.50967427  1
  O2-  O431  1  0.84153372  0.92230025  0.81124017  1
  O2-  O432  1  0.15836228  0.09294141  0.18525420  1
  O2-  O433  1  0.12286999  0.07487629  0.55452745  1
  O2-  O434  1  0.18463449  0.08834990  0.86258041  1
  O2-  O435  1  0.16455685  0.33322502  0.18550395  1
  O2-  O436  1  0.17983173  0.34326689  0.51142369  1
  O2-  O437  1  0.17697993  0.35118648  0.80852509  1
  O2-  O438  1  0.13571605  0.55900451  0.19423373  1
  O2-  O439  1  0.16396020  0.56888684  0.50834222  1
  O2-  O440  1  0.16424091  0.58164639  0.85307867  1
  O2-  O441  1  0.16842306  0.81889852  0.18283053  1
  O2-  O442  1  0.18746257  0.85524255  0.51391883  1
  O2-  O443  1  0.17061185  0.83049325  0.85196605  1
  O2-  O444  1  0.39674459  0.07401685  0.13581629  1
  O2-  O445  1  0.35850716  0.06343679  0.50799829  1
  O2-  O446  1  0.42943334  0.07523966  0.84927422  1
  O2-  O447  1  0.40784726  0.33915744  0.21815637  1
  O2-  O448  1  0.41950309  0.34815991  0.51435017  1
  O2-  O449  1  0.42723783  0.33303822  0.85341938  1
  O2-  O450  1  0.40706623  0.58551394  0.19969415  1
  O2-  O451  1  0.41119792  0.58238141  0.52350943  1
  O2-  O452  1  0.45637997  0.60667853  0.87754397  1
  O2-  O453  1  0.43005978  0.84976274  0.18132764  1
  O2-  O454  1  0.41115076  0.82268852  0.52453738  1
  O2-  O455  1  0.41862300  0.83974506  0.85929964  1
  O2-  O456  1  0.66088418  0.08361939  0.18253510  1
  O2-  O457  1  0.64824797  0.06421469  0.48623005  1
  O2-  O458  1  0.67387311  0.09951610  0.85696924  1
  O2-  O459  1  0.64997986  0.35086036  0.17484576  1
  O2-  O460  1  0.66618027  0.34443687  0.51432479  1
  O2-  O461  1  0.66942948  0.34142693  0.83484230  1
  O2-  O462  1  0.66972826  0.59078316  0.19740672  1
  O2-  O463  1  0.66406499  0.58264804  0.52104458  1
  O2-  O464  1  0.68041908  0.59632882  0.83706279  1
  O2-  O465  1  0.66809738  0.83388095  0.18582305  1
  O2-  O466  1  0.67109567  0.82267514  0.52071748  1
  O2-  O467  1  0.67653571  0.84393839  0.85088734  1
  O2-  O468  1  0.90835039  0.08406388  0.17610112  1
  O2-  O469  1  0.90802663  0.08772899  0.52764139  1
  O2-  O470  1  0.92697102  0.09134303  0.84873893  1
  O2-  O471  1  0.91116368  0.31386970  0.18480537  1
  O2-  O472  1  0.91003643  0.32428485  0.51905211  1
  O2-  O473  1  0.90840427  0.33512228  0.83984493  1
  O2-  O474  1  0.91125551  0.57472546  0.17588386  1
  O2-  O475  1  0.91578418  0.58669057  0.52934318  1
  O2-  O476  1  0.91345154  0.58530780  0.84835973  1
  O2-  O477  1  0.91336252  0.82977572  0.18480825  1
  O2-  O478  1  0.92775803  0.82523473  0.50600734  1
  O2-  O479  1  0.91872328  0.83009145  0.84353133  1
  O2-  O480  1  0.18014143  0.16565255  0.30214179  1
  O2-  O481  1  0.19262201  0.09528299  0.66094876  1
  O2-  O482  1  0.19440852  0.10972407  0.98265842  1
  O2-  O483  1  0.18394830  0.32675291  0.30888888  1
  O2-  O484  1  0.16637956  0.33292719  0.63780793  1
  O2-  O485  1  0.16018979  0.32619973  0.98238162  1
  O2-  O486  1  0.15767058  0.57353931  0.32148926  1
  O2-  O487  1  0.15234485  0.55275458  0.63483590  1
  O2-  O488  1  0.19676934  0.57626951  0.97138519  1
  O2-  O489  1  0.16807582  0.82439558  0.30954050  1
  O2-  O490  1  0.17738371  0.83952139  0.64160629  1
  O2-  O491  1  0.17189844  0.82475637  0.97724858  1
  O2-  O492  1  0.41034804  0.06849066  0.31756192  1
  O2-  O493  1  0.39145273  0.07114592  0.62271110  1
  O2-  O494  1  0.39077510  0.07214949  1.01422614  1
  O2-  O495  1  0.42174917  0.36056190  0.33422274  1
  O2-  O496  1  0.47016954  0.30652892  0.62878813  1
  O2-  O497  1  0.42496116  0.34756256  0.98476992  1
  O2-  O498  1  0.40577575  0.57932638  0.32940535  1
  O2-  O499  1  0.39820983  0.57739977  0.65352405  1
  O2-  O500  1  0.41349541  0.58859968  1.00264723  1
  O2-  O501  1  0.40882401  0.83246376  0.32356088  1
  O2-  O502  1  0.41113432  0.82881999  0.64849056  1
  O2-  O503  1  0.42266917  0.83921617  0.98235352  1
  O2-  O504  1  0.66220421  0.08445636  0.30536752  1
  O2-  O505  1  0.67445123  0.09030705  0.65267212  1
  O2-  O506  1  0.67924457  0.09500639  0.99892274  1
  O2-  O507  1  0.65667435  0.33392981  0.36143702  1
  O2-  O508  1  0.68338906  0.34570374  0.63934290  1
  O2-  O509  1  0.63739998  0.31351505  0.94964266  1
  O2-  O510  1  0.67037566  0.58667499  0.32061407  1
  O2-  O511  1  0.65939010  0.58365490  0.64523221  1
  O2-  O512  1  0.68833989  0.58105084  0.97007988  1
  O2-  O513  1  0.69202182  0.79373826  0.30506619  1
  O2-  O514  1  0.66639515  0.81631863  0.63665367  1
  O2-  O515  1  0.66709977  0.84817971  0.97109618  1
  O2-  O516  1  0.90593357  0.07754100  0.32597743  1
  O2-  O517  1  0.90117908  0.09077917  0.64822011  1
  O2-  O518  1  0.92350356  0.08520701  0.97630760  1
  O2-  O519  1  0.91470851  0.35138801  0.30972714  1
  O2-  O520  1  0.90933572  0.32666588  0.64437956  1
  O2-  O521  1  0.89295917  0.32827859  0.99176690  1
  O2-  O522  1  0.91267975  0.58343922  0.30596080  1
  O2-  O523  1  0.92309552  0.58686171  0.65093581  1
  O2-  O524  1  0.93964777  0.60758826  0.97043661  1
  O2-  O525  1  0.91916738  0.83920249  0.30885394  1
  O2-  O526  1  0.88503760  0.84670759  0.61923001  1
  O2-  O527  1  0.93772299  0.86293578  0.97250237  1
  O2-  O528  1  0.07880786  0.16593262  0.01481762  1
  O2-  O529  1  0.05209348  0.15503481  0.36765406  1
  O2-  O530  1  0.07793016  0.16492004  0.66356832  1
  O2-  O531  1  0.07878049  0.41629839  0.01570310  1
  O2-  O532  1  0.08262907  0.40157168  0.35322469  1
  O2-  O533  1  0.07329950  0.40112663  0.68398374  1
  O2-  O534  1  0.09395325  0.65733087  0.01698489  1
  O2-  O535  1  0.07722593  0.65919659  0.35956156  1
  O2-  O536  1  0.07744900  0.67847001  0.68620065  1
  O2-  O537  1  0.07059426  0.87725056  0.02835978  1
  O2-  O538  1  0.09778215  0.92657655  0.29412374  1
  O2-  O539  1  0.10271703  0.92538067  0.69580315  1
  O2-  O540  1  0.33843541  0.19389682  0.03793016  1
  O2-  O541  1  0.32374267  0.16838356  0.33576311  1
  O2-  O542  1  0.36100328  0.17260851  0.69778655  1
  O2-  O543  1  0.33083037  0.41670813  0.02982124  1
  O2-  O544  1  0.32985607  0.42462461  0.38606345  1
  O2-  O545  1  0.29112419  0.43224901  0.71920362  1
  O2-  O546  1  0.32726310  0.67499255  0.03040591  1
  O2-  O547  1  0.32277224  0.66914747  0.35798631  1
  O2-  O548  1  0.31350169  0.65871036  0.68485524  1
  O2-  O549  1  0.33367747  0.91018022  0.02167305  1
  O2-  O550  1  0.34079316  0.91574111  0.35626445  1
  O2-  O551  1  0.33407992  0.91693788  0.68878838  1
  O2-  O552  1  0.55300350  0.15797881  0.01125740  1
  O2-  O553  1  0.57680998  0.15773389  0.35084752  1
  O2-  O554  1  0.59952135  0.17548502  0.68688944  1
  O2-  O555  1  0.58609363  0.41714315  0.01272957  1
  O2-  O556  1  0.57447111  0.42262888  0.36347690  1
  O2-  O557  1  0.60172365  0.42839057  0.68309014  1
  O2-  O558  1  0.58855271  0.66508186  -0.02248658  1
  O2-  O559  1  0.57236204  0.65512938  0.35714551  1
  O2-  O560  1  0.57354461  0.65860935  0.69413049  1
  O2-  O561  1  0.58360893  0.92653737  0.02374838  1
  O2-  O562  1  0.56276936  0.94849671  0.37774895  1
  O2-  O563  1  0.57921517  0.92854203  0.69520885  1
  O2-  O564  1  0.84358727  0.14950275  0.02595560  1
  O2-  O565  1  0.82285224  0.14750730  0.35496359  1
  O2-  O566  1  0.82284042  0.16521598  0.69320620  1
  O2-  O567  1  0.83084707  0.43902875  0.01324216  1
  O2-  O568  1  0.82726297  0.42235841  0.35090839  1
  O2-  O569  1  0.84571776  0.42191679  0.68961769  1
  O2-  O570  1  0.84255196  0.67276415  0.02080632  1
  O2-  O571  1  0.83950936  0.67268261  0.35181703  1
  O2-  O572  1  0.82587990  0.67306611  0.65697201  1
  O2-  O573  1  0.82961581  0.91922988  0.01723717  1
  O2-  O574  1  0.84356047  0.91616756  0.36112792  1
  O2-  O575  1  0.82648222  0.92678301  0.68779531  1
