# generated using pymatgen
data_H2O
_symmetry_space_group_name_H-M   'P 1'
_cell_length_a   17.99782230
_cell_length_b   17.99639223
_cell_length_c   22.00127115
_cell_angle_alpha   90.01582932
_cell_angle_beta   89.98628216
_cell_angle_gamma   120.00695157
_symmetry_Int_Tables_number   1
_chemical_formula_structural   H2O
_chemical_formula_sum   'H384 O192'
_cell_volume   6170.96905984
_cell_formula_units_Z   192
loop_
 _symmetry_equiv_pos_site_id
 _symmetry_equiv_pos_as_xyz
  1  'x, y, z'
loop_
 _atom_type_symbol
 _atom_type_oxidation_number
  H+  1.0
  O2-  -2.0
loop_
 _atom_site_type_symbol
 _atom_site_label
 _atom_site_symmetry_multiplicity
 _atom_site_fract_x
 _atom_site_fract_y
 _atom_site_fract_z
 _atom_site_occupancy
  H+  H0  1  0.21692823  0.11062980  0.32774629  1
  H+  H1  1  0.51100978  0.08025034  0.17892508  1
  H+  H2  1  0.91781937  0.87407854  0.46901866  1
  H+  H3  1  0.11281167  0.71859103  0.01083098  1
  H+  H4  1  0.72910133  0.36936827  0.66441344  1
  H+  H5  1  0.34637587  0.84761591  0.14877029  1
  H+  H6  1  0.98285018  0.11741046  0.31898049  1
  H+  H7  1  0.88906730  0.61366165  0.84230539  1
  H+  H8  1  0.72698720  0.88074978  0.50337496  1
  H+  H9  1  0.11239490  0.13253529  0.15903698  1
  H+  H10  1  0.38536548  1.02973981  0.65274115  1
  H+  H11  1  0.43942134  0.90787073  0.84830030  1
  H+  H12  1  0.18970528  0.03673081  0.19561576  1
  H+  H13  1  0.27629273  0.66931551  0.83407385  1
  H+  H14  1  0.21212335  0.10812413  0.99603425  1
  H+  H15  1  0.19867933  0.34173836  0.89944817  1
  H+  H16  1  0.52691067  0.63077618  0.99635660  1
  H+  H17  1  0.14357014  0.78753235  0.49956786  1
  H+  H18  1  0.08269278  0.67703658  0.43153571  1
  H+  H19  1  0.20698751  0.60168726  1.08783207  1
  H+  H20  1  0.12911270  0.14435288  0.83521360  1
  H+  H21  1  0.66802060  0.08996016  0.59755403  1
  H+  H22  1  0.36602191  0.63231676  0.48797895  1
  H+  H23  1  -0.02498477  0.85290623  0.31967441  1
  H+  H24  1  0.85559111  0.87632998  0.83188643  1
  H+  H25  1  0.86472184  0.02249330  0.49913087  1
  H+  H26  1  0.96864079  0.84862852  0.16232410  1
  H+  H27  1  0.86805640  0.14686372  0.16517035  1
  H+  H28  1  0.12965067  0.76996192  0.17159272  1
  H+  H29  1  0.16141124  0.83240030  0.26362493  1
  H+  H30  1  0.09259326  0.48974445  0.75393426  1
  H+  H31  1  0.12478124  0.86112645  0.67514695  1
  H+  H32  1  0.35207193  0.72340192  0.33631739  1
  H+  H33  1  0.33003245  0.86391049  0.80979350  1
  H+  H34  1  0.64109535  0.37361754  0.33037626  1
  H+  H35  1  0.65132359  0.12014106  0.17562436  1
  H+  H36  1  0.88773934  0.86932716  0.98871588  1
  H+  H37  1  0.72551686  0.36282730  0.99657733  1
  H+  H38  1  0.77290301  0.97068065  0.44185062  1
  H+  H39  1  0.88763932  0.52098815  0.99745591  1
  H+  H40  1  0.49766338  0.61004836  0.83833492  1
  H+  H41  1  0.11139637  0.38229672  0.45512564  1
  H+  H42  1  0.13240326  0.86076764  0.32474816  1
  H+  H43  1  0.02323001  0.88659337  0.83392123  1
  H+  H44  1  0.26304215  0.63384282  0.33591531  1
  H+  H45  1  0.84732948  0.34926207  0.47010029  1
  H+  H46  1  0.88890921  0.88892842  0.37266552  1
  H+  H47  1  0.12213556  0.89185112  0.49058943  1
  H+  H48  1  0.97336059  0.11374354  0.99462010  1
  H+  H49  1  0.86469078  0.48441925  0.67065584  1
  H+  H50  1  0.22657734  0.36349757  0.99738742  1
  H+  H51  1  0.11137330  0.13600038  0.67769244  1
  H+  H52  1  0.87492897  0.22616816  0.33624860  1
  H+  H53  1  0.86626165  0.97924300  0.66214178  1
  H+  H54  1  0.42530929  0.75700507  0.80465103  1
  H+  H55  1  0.23350092  0.87495385  0.49865259  1
  H+  H56  1  0.76741261  0.88543000  0.66175373  1
  H+  H57  1  0.34372580  -0.03382475  0.32950501  1
  H+  H58  1  0.14317192  0.54297274  0.65611713  1
  H+  H59  1  0.77731338  0.39535982  0.16724649  1
  H+  H60  1  0.71343076  0.85310916  0.16951388  1
  H+  H61  1  0.62655842  0.63436814  0.84529359  1
  H+  H62  1  0.52360636  0.87920848  1.01102520  1
  H+  H63  1  0.85227638  0.22296235  0.00920870  1
  H+  H64  1  0.47607985  0.11850962  0.65473326  1
  H+  H65  1  0.13569500  0.36454681  0.32464000  1
  H+  H66  1  0.65387238  0.29156691  0.17873591  1
  H+  H67  1  0.89279100  0.34244387  0.34133159  1
  H+  H68  1  0.36203658  0.72049228  0.14970673  1
  H+  H69  1  0.86303059  0.88038952  0.67214598  1
  H+  H70  1  0.76630838  0.61885021  0.01636545  1
  H+  H71  1  0.22834091  0.36520727  0.67511969  1
  H+  H72  1  0.29674394  0.63814674  0.71755477  1
  H+  H73  1  0.77895412  0.62595352  0.16342251  1
  H+  H74  1  0.90080805  0.37883999  0.65692144  1
  H+  H75  1  0.18591405  0.10434554  0.47778159  1
  H+  H76  1  0.64132904  0.53096164  0.66648205  1
  H+  H77  1  0.85578369  0.41195916  0.31469958  1
  H+  H78  1  0.01966500  0.63600482  0.16423143  1
  H+  H79  1  0.64017628  0.27087867  -0.00719776  1
  H+  H80  1  0.86778241  0.47401973  0.82808733  1
  H+  H81  1  0.64323051  0.62776053  0.51346825  1
  H+  H82  1  0.62714981  0.85387672  0.50851756  1
  H+  H83  1  0.84060227  0.85564619  0.15313717  1
  H+  H84  1  0.78014674  0.63186363  0.83496951  1
  H+  H85  1  0.62540994  0.74174259  0.50098250  1
  H+  H86  1  0.67126077  0.84015076  0.59524557  1
  H+  H87  1  1.01221265  0.37601954  0.32555914  1
  H+  H88  1  0.36640897  0.48894253  0.67142784  1
  H+  H89  1  0.74050108  0.38865655  0.32728983  1
  H+  H90  1  0.60189445  0.88090977  0.33575133  1
  H+  H91  1  0.38074526  0.85639265  0.50481386  1
  H+  H92  1  0.60908599  0.38137673  0.00909707  1
  H+  H93  1  0.72455051  0.85594610  0.83872868  1
  H+  H94  1  0.38980507  0.28627801  0.66054416  1
  H+  H95  1  0.63804983  0.61835091  0.65920091  1
  H+  H96  1  0.36211422  0.22518682  0.82969638  1
  H+  H97  1  0.28586288  0.39642528  0.82684400  1
  H+  H98  1  0.09530440  0.96800577  0.14500020  1
  H+  H99  1  0.35503764  0.88650007  0.66505298  1
  H+  H100  1  0.85634936  0.63435300  0.34139563  1
  H+  H101  1  0.37641145  -0.01694934  0.48681406  1
  H+  H102  1  0.84052876  0.20627423  0.82625183  1
  H+  H103  1  0.76286188  0.11122448  0.67184272  1
  H+  H104  1  0.36456439  0.14351635  0.66906246  1
  H+  H105  1  0.17311317  0.27945583  0.83942782  1
  H+  H106  1  -0.02584110  0.35867074  0.49884347  1
  H+  H107  1  0.09351031  0.13105766  0.50050149  1
  H+  H108  1  0.37895963  0.62289600  0.31041517  1
  H+  H109  1  0.23472230  0.59243384  0.50410917  1
  H+  H110  1  0.42300024  0.34907192  0.60276036  1
  H+  H111  1  0.89434266  0.11426194  0.32074241  1
  H+  H112  1  0.89022032  0.51935988  0.17800195  1
  H+  H113  1  0.64577013  0.51643109  0.85319916  1
  H+  H114  1  0.76553423  0.63242298  0.34096627  1
  H+  H115  1  0.77072579  0.64534514  0.49507302  1
  H+  H116  1  0.65821994  0.60874622  0.17454519  1
  H+  H117  1  0.38175056  0.14319317  0.49330815  1
  H+  H118  1  0.61641314  0.23758152  0.50481731  1
  H+  H119  1  0.38025168  0.27269406  0.99869917  1
  H+  H120  1  0.33079837  0.10824274  0.15259378  1
  H+  H121  1  0.11465879  0.64472932  0.67873384  1
  H+  H122  1  0.61546426  0.37850304  0.83408690  1
  H+  H123  1  0.36656483  0.38852058  1.01062407  1
  H+  H124  1  0.52845068  0.12797307  0.01547569  1
  H+  H125  1  0.67288017  0.34714129  0.24154866  1
  H+  H126  1  0.32516380  0.23630474  0.15407518  1
  H+  H127  1  0.07641011  0.66466913  0.07250991  1
  H+  H128  1  0.71907961  0.24011721  0.12200166  1
  H+  H129  1  0.51914516  0.38556701  0.34063992  1
  H+  H130  1  0.49748261  0.11823590  0.37039335  1
  H+  H131  1  0.10696483  0.97138105  0.33870444  1
  H+  H132  1  0.62654830  0.02279885  0.65350650  1
  H+  H133  1  0.62626085  0.89476121  0.82154014  1
  H+  H134  1  0.12586016  0.26487493  0.52018459  1
  H+  H135  1  0.37603808  0.60990552  0.15263441  1
  H+  H136  1  0.12854440  0.86543927  0.84458988  1
  H+  H137  1  0.33282177  0.17003606  0.72920670  1
  H+  H138  1  0.97743537  0.12775257  0.16606743  1
  H+  H139  1  0.37296973  0.76799340  0.66298736  1
  H+  H140  1  0.08404618  0.89925879  -0.03588597  1
  H+  H141  1  0.10936235  0.22316070  0.68417952  1
  H+  H142  1  0.60732626  0.97267168  0.34183038  1
  H+  H143  1  0.39699734  0.29203607  0.51107176  1
  H+  H144  1  0.63622581  0.76793274  0.99085598  1
  H+  H145  1  0.86703817  0.13814840  0.49422566  1
  H+  H146  1  0.28610193  0.63958002  0.01157290  1
  H+  H147  1  0.61082689  0.12965257  0.81281593  1
  H+  H148  1  0.74809242  0.12114779  0.82096412  1
  H+  H149  1  0.52068103  0.40607785  0.49216637  1
  H+  H150  1  0.21251150  0.85971673  0.66295244  1
  H+  H151  1  0.38355482  0.50026128  0.82136210  1
  H+  H152  1  0.40428194  0.33417869  0.27392283  1
  H+  H153  1  0.40340793  0.82555648  0.60279152  1
  H+  H154  1  0.10675441  0.72395759  0.33425131  1
  H+  H155  1  1.01069255  0.37787388  0.17013918  1
  H+  H156  1  0.00592398  0.13305583  0.49715243  1
  H+  H157  1  0.61599037  0.77766027  0.16760434  1
  H+  H158  1  0.76942128  0.12856972  0.01417212  1
  H+  H159  1  0.95494650  0.32099634  0.84874856  1
  H+  H160  1  0.37158098  0.88424181  0.99559473  1
  H+  H161  1  0.67006433  0.32470540  0.89839048  1
  H+  H162  1  0.33144392  0.16506463  0.40102309  1
  H+  H163  1  0.97788298  0.87230570  0.99247353  1
  H+  H164  1  0.61663848  0.39152634  0.16634865  1
  H+  H165  1  0.63640357  0.51746590  0.00636676  1
  H+  H166  1  0.72595045  0.34916388  0.50310866  1
  H+  H167  1  0.50424377  0.16164280  0.36168593  1
  H+  H168  1  0.88483355  0.11374769  1.00001302  1
  H+  H169  1  0.59005142  0.65394006  0.15672162  1
  H+  H170  1  0.02583784  0.65756217  0.49043640  1
  H+  H171  1  0.42044557  0.62672689  0.82193983  1
  H+  H172  1  0.38961117  0.51649220  0.50214530  1
  H+  H173  1  0.88405799  0.76701107  0.32094251  1
  H+  H174  1  0.28015758  0.38380416  0.35306397  1
  H+  H175  1  0.63356549  0.85521193  0.99759655  1
  H+  H176  1  0.64213876  0.51171505  0.17362959  1
  H+  H177  1  0.97551966  0.62011447  0.65752441  1
  H+  H178  1  0.13805419  0.27651156  0.33108859  1
  H+  H179  1  0.47640073  0.61258761  0.50736435  1
  H+  H180  1  0.62750066  0.51359021  0.33036069  1
  H+  H181  1  0.13672254  0.55163510  0.81012732  1
  H+  H182  1  0.36054085  0.13585189  0.82634042  1
  H+  H183  1  0.11409837  -0.02254632  0.83743513  1
  H+  H184  1  0.68558070  0.05061231  0.94372354  1
  H+  H185  1  0.09297821  0.36681451  0.00912453  1
  H+  H186  1  0.85903579  0.09195125  0.84067908  1
  H+  H187  1  0.22467917  0.36156976  0.18022803  1
  H+  H188  1  0.63900101  0.28031033  0.66058391  1
  H+  H189  1  0.66774161  0.13261553  0.33803696  1
  H+  H190  1  0.10078491  0.37946386  0.16769257  1
  H+  H191  1  0.37577077  0.61319909  0.65599762  1
  H+  H192  1  0.66539373  0.26198585  0.35203006  1
  H+  H193  1  0.23344120  0.85657062  -0.00947367  1
  H+  H194  1  0.08491368  0.16917666  0.06239067  1
  H+  H195  1  0.37484086  0.76383469  0.50600858  1
  H+  H196  1  0.12153681  0.40661469  0.68272407  1
  H+  H197  1  0.15185604  0.61260646  1.03678859  1
  H+  H198  1  0.86330306  0.62083023  0.01231819  1
  H+  H199  1  0.86249042  0.38644818  0.16867927  1
  H+  H200  1  0.77326941  0.63974491  0.67923035  1
  H+  H201  1  0.88371911  0.34981061  0.84025558  1
  H+  H202  1  0.37971242  0.85976311  0.32274492  1
  H+  H203  1  0.06932893  0.40680789  0.81728175  1
  H+  H204  1  0.27285012  0.62674591  0.82669919  1
  H+  H205  1  0.61716932  0.76542624  0.32506424  1
  H+  H206  1  0.88862214  0.60729387  0.17560432  1
  H+  H207  1  0.61178826  0.89060928  0.16471453  1
  H+  H208  1  0.12731939  0.52100195  0.31923915  1
  H+  H209  1  0.39143064  0.52157138  0.98530425  1
  H+  H210  1  0.61912564  0.72058436  0.83758939  1
  H+  H211  1  0.29160851  0.39566484  0.49968895  1
  H+  H212  1  0.84785427  0.96098617  0.83159121  1
  H+  H213  1  0.47375596  0.85710180  0.17366008  1
  H+  H214  1  0.29672542  0.14374028  0.50830957  1
  H+  H215  1  0.60035099  0.61647210  0.34116588  1
  H+  H216  1  0.78508400  0.13485266  0.33992062  1
  H+  H217  1  0.49288428  0.63633061  0.14906421  1
  H+  H218  1  0.63296453  1.00056473  0.00236623  1
  H+  H219  1  0.26276099  0.87516215  0.33678799  1
  H+  H220  1  0.37529782  0.01236575  0.83689058  1
  H+  H221  1  0.12043825  0.46789577  0.48753614  1
  H+  H222  1  0.12001861  0.22477249  0.16118774  1
  H+  H223  1  0.34842155  0.13685627  0.01780045  1
  H+  H224  1  0.12779725  0.61076611  0.32444886  1
  H+  H225  1  0.52450050  0.13723102  0.81720951  1
  H+  H226  1  0.14684354  0.86064146  0.99883087  1
  H+  H227  1  0.61132345  0.49302637  0.48981184  1
  H+  H228  1  0.37213884  0.63686928  -0.01026779  1
  H+  H229  1  0.13102506  0.35392259  0.53542231  1
  H+  H230  1  0.37935513  0.35853958  0.33846334  1
  H+  H231  1  0.25258065  0.87884484  0.82467114  1
  H+  H232  1  0.14056539  0.27268765  0.98997911  1
  H+  H233  1  0.86752402  0.72031950  0.15938019  1
  H+  H234  1  0.11014736  0.73526025  0.68217957  1
  H+  H235  1  0.11329839  0.13853131  0.34400304  1
  H+  H236  1  0.10681072  0.63283134  0.16188113  1
  H+  H237  1  0.51620942  0.88179269  0.67018146  1
  H+  H238  1  0.37194676  0.40050376  0.67446957  1
  H+  H239  1  0.10605430  0.13246060  1.00302152  1
  H+  H240  1  0.95672327  0.34636326  0.99725292  1
  H+  H241  1  0.90993491  0.07750164  0.56360014  1
  H+  H242  1  0.34806803  0.09849339  0.31570651  1
  H+  H243  1  0.51105593  0.88414658  0.83267184  1
  H+  H244  1  0.09511290  0.33918408  0.83940302  1
  H+  H245  1  0.61592961  0.39246185  0.68067647  1
  H+  H246  1  0.87755026  0.27496249  0.18251514  1
  H+  H247  1  0.11604380  0.51511866  0.17333464  1
  H+  H248  1  0.09881258  0.17514080  0.77676938  1
  H+  H249  1  0.63948419  0.86753001  0.65587318  1
  H+  H250  1  0.63801098  0.08154524  0.87804006  1
  H+  H251  1  0.40468792  0.07759495  1.06957434  1
  H+  H252  1  0.46708010  0.07075169  0.16869104  1
  H+  H253  1  -0.02272539  0.61145988  -0.00021417  1
  H+  H254  1  0.34344711  0.42607918  0.06786520  1
  H+  H255  1  0.61017957  0.13909262  0.66427614  1
  H+  H256  1  0.66316983  0.57427790  0.27118220  1
  H+  H257  1  0.73626014  0.12847642  0.50807436  1
  H+  H258  1  0.61423160  0.12408694  -0.00109237  1
  H+  H259  1  0.10468570  0.73625431  0.82523873  1
  H+  H260  1  0.77166391  0.88589972  0.00043481  1
  H+  H261  1  0.64011378  0.26743035  0.83686171  1
  H+  H262  1  0.77895400  0.38550426  0.82562070  1
  H+  H263  1  0.12622179  1.01088581  -0.00591092  1
  H+  H264  1  0.64804335  0.13032932  0.51092426  1
  H+  H265  1  0.86245007  0.64015961  0.67575737  1
  H+  H266  1  0.89510539  0.78558309  0.49966730  1
  H+  H267  1  0.64128699  0.61026880  1.00360444  1
  H+  H268  1  0.61182466  0.72703282  0.66054519  1
  H+  H269  1  0.23582486  0.13776968  0.16102430  1
  H+  H270  1  0.89480003  0.77296510  0.84331069  1
  H+  H271  1  0.85697966  0.38347623  0.00861050  1
  H+  H272  1  0.85955495  0.97638459  1.00616944  1
  H+  H273  1  0.87758782  0.09559362  0.66233882  1
  H+  H274  1  0.11260951  -0.01774351  0.67985871  1
  H+  H275  1  0.50827215  0.86353307  0.49321105  1
  H+  H276  1  0.22821322  0.11766276  0.65721170  1
  H+  H277  1  0.48078329  0.36010269  0.84596363  1
  H+  H278  1  0.87749976  0.52456872  0.33276700  1
  H+  H279  1  0.88465657  0.77731707  0.67895860  1
  H+  H280  1  0.88849277  0.26822993  0.50451997  1
  H+  H281  1  0.13264043  0.85976216  0.16557922  1
  H+  H282  1  0.23091475  0.63178681  0.65034154  1
  H+  H283  1  0.88592470  0.54341726  0.50053746  1
  H+  H284  1  1.01601954  0.63682967  0.33946948  1
  H+  H285  1  0.62228764  0.98762549  0.81797831  1
  H+  H286  1  0.38969776  0.38106617  0.50869749  1
  H+  H287  1  0.35646714  0.22464261  0.34161716  1
  H+  H288  1  0.34472710  0.43156520  0.75768477  1
  H+  H289  1  0.16617929  0.57293587  0.92104828  1
  H+  H290  1  0.30873317  0.17290486  0.06743658  1
  H+  H291  1  0.66202675  0.83256875  0.89658354  1
  H+  H292  1  0.58484011  0.41881665  0.10669972  1
  H+  H293  1  0.83496917  0.66198504  0.77257634  1
  H+  H294  1  0.34101011  0.41086088  0.41423088  1
  H+  H295  1  0.52055696  0.38299369  0.01108380  1
  H+  H296  1  0.97216326  0.10382880  0.66301044  1
  H+  H297  1  0.15399398  0.58065454  0.22903487  1
  H+  H298  1  0.41040032  0.82125685  0.23113805  1
  H+  H299  1  0.73335596  0.11224927  0.17938085  1
  H+  H300  1  0.07780481  0.67221677  0.75496480  1
  H+  H301  1  0.91530419  0.82001730  0.22586307  1
  H+  H302  1  0.67958300  0.34126809  0.56827265  1
  H+  H303  1  0.67166372  0.08902283  0.27466978  1
  H+  H304  1  0.02648114  0.88599391  0.49057241  1
  H+  H305  1  0.42209305  0.57728060  0.92289274  1
  H+  H306  1  0.40884971  0.58672748  0.21358606  1
  H+  H307  1  0.07476487  0.42055882  0.38283008  1
  H+  H308  1  0.51292896  0.59024371  0.37441929  1
  H+  H309  1  0.33104055  0.66091080  0.42983732  1
  H+  H310  1  0.46922699  0.86004983  0.32506450  1
  H+  H311  1  0.39619421  0.36639178  0.84026957  1
  H+  H312  1  0.16689022  0.32787585  0.61844331  1
  H+  H313  1  0.16081370  0.82910522  0.90172509  1
  H+  H314  1  0.60529338  0.18640827  0.44320969  1
  H+  H315  1  0.34048347  0.92066793  0.42855353  1
  H+  H316  1  0.89618417  0.31973858  0.93699408  1
  H+  H317  1  0.92299485  0.58598868  0.90124698  1
  H+  H318  1  0.38720302  0.01525338  1.01554850  1
  H+  H319  1  0.67874277  0.57605014  0.91276323  1
  H+  H320  1  0.92995906  0.34735427  0.59904602  1
  H+  H321  1  0.16258585  0.07838592  0.90807539  1
  H+  H322  1  0.90857896  0.33036808  0.24559716  1
  H+  H323  1  0.63045969  0.19059816  0.08815799  1
  H+  H324  1  0.92335568  0.09887633  0.22794806  1
  H+  H325  1  0.58256062  0.91599707  0.72597039  1
  H+  H326  1  0.84008568  0.42459010  0.73016014  1
  H+  H327  1  0.43958114  0.84184315  0.92823475  1
  H+  H328  1  0.41148135  0.07204481  0.89494993  1
  H+  H329  1  0.83282162  0.41711480  0.06919570  1
  H+  H330  1  0.92186964  0.83540318  0.90231936  1
  H+  H331  1  0.22544240  0.10861229  0.84830755  1
  H+  H332  1  0.91311522  0.58717508  0.27389483  1
  H+  H333  1  0.81756172  0.13433165  0.73326300  1
  H+  H334  1  0.39785267  0.77374192  0.98321213  1
  H+  H335  1  -0.02756722  0.86938280  0.67920158  1
  H+  H336  1  0.16969552  0.56961146  0.56034295  1
  H+  H337  1  0.57749346  0.42432986  0.40118066  1
  H+  H338  1  0.16162973  0.61192621  0.91657666  1
  H+  H339  1  0.87991890  0.62877896  0.50285210  1
  H+  H340  1  0.05987694  0.38997891  0.06976443  1
  H+  H341  1  0.40543730  0.57988648  0.59646203  1
  H+  H342  1  0.42402527  0.09429304  0.28443852  1
  H+  H343  1  0.42439217  0.08877864  0.55947688  1
  H+  H344  1  0.48945352  0.12288453  0.50215647  1
  H+  H345  1  0.83304254  0.65087382  0.07971919  1
  H+  H346  1  0.40278642  0.70286826  0.74325547  1
  H+  H347  1  0.81564928  0.89225982  0.09526785  1
  H+  H348  1  0.16636923  0.33061452  0.23901425  1
  H+  H349  1  0.57438542  0.66565366  0.05998377  1
  H+  H350  1  0.41440924  0.33291176  0.93981689  1
  H+  H351  1  0.52818612  0.39471970  0.68123905  1
  H+  H352  1  0.08057166  0.16847591  0.40264852  1
  H+  H353  1  0.58122871  0.16919552  0.72381829  1
  H+  H354  1  0.08633129  0.92740940  0.74230169  1
  H+  H355  1  0.83037194  0.17193604  0.10709825  1
  H+  H356  1  0.85923290  0.93022348  0.42744499  1
  H+  H357  1  0.52201461  0.63894874  0.65974637  1
  H+  H358  1  0.32822391  0.89170747  0.05740458  1
  H+  H359  1  0.56663870  0.89296599  0.43316528  1
  H+  H360  1  0.35312485  0.67736466  0.08472066  1
  H+  H361  1  0.82657381  0.67036922  0.43281470  1
  H+  H362  1  0.59584877  0.67894636  0.44249832  1
  H+  H363  1  0.61173955  0.97994141  0.16446067  1
  H+  H364  1  0.12531629  0.00888647  0.50075729  1
  H+  H365  1  0.33884826  0.04837178  0.20032887  1
  H+  H366  1  0.26236868  0.85849122  0.14731339  1
  H+  H367  1  0.72260776  0.25819274  0.40369054  1
  H+  H368  1  0.32390333  0.92067822  0.72066243  1
  H+  H369  1  0.07566033  0.90959988  0.08596076  1
  H+  H370  1  0.84239836  0.16857433  0.43192629  1
  H+  H371  1  0.47098641  0.63235997  0.30462852  1
  H+  H372  1  0.57984997  0.91029573  0.07414091  1
  H+  H373  1  0.15790971  0.08133048  0.26740350  1
  H+  H374  1  0.89512358  0.06950665  0.89991070  1
  H+  H375  1  0.01542206  0.64008427  0.82625849  1
  H+  H376  1  0.81978965  0.38817823  0.41131611  1
  H+  H377  1  0.58621971  0.41434742  0.77765080  1
  H+  H378  1  0.08099749  0.91250426  0.39798228  1
  H+  H379  1  0.16463384  0.08325247  0.60018891  1
  H+  H380  1  0.91655348  0.59504307  0.59763695  1
  H+  H381  1  0.03416740  0.40801971  0.67001582  1
  H+  H382  1  0.67296201  0.59183725  0.57017360  1
  H+  H383  1  0.64997370  0.82424650  0.26631171  1
  O2-  O384  1  0.08952460  0.16734873  0.14124595  1
  O2-  O385  1  0.07001838  0.16702167  0.48574354  1
  O2-  O386  1  0.11508186  0.18801048  0.82017013  1
  O2-  O387  1  0.06911324  0.40692495  0.15111886  1
  O2-  O388  1  0.07901985  0.41032797  0.46592483  1
  O2-  O389  1  0.04770603  0.34433983  0.82210167  1
  O2-  O390  1  0.07919527  0.66757787  0.14713702  1
  O2-  O391  1  0.08578662  0.68445565  0.47641526  1
  O2-  O392  1  0.07513673  0.67611207  0.80730963  1
  O2-  O393  1  0.07094053  0.90766414  0.13111983  1
  O2-  O394  1  0.08893531  0.92077716  0.47516811  1
  O2-  O395  1  0.08579433  0.91723322  0.82036935  1
  O2-  O396  1  0.29557970  0.17841197  0.13681850  1
  O2-  O397  1  0.34757533  0.17276288  0.48246744  1
  O2-  O398  1  0.33000784  0.16588025  0.81262538  1
  O2-  O399  1  0.34744034  0.39905502  0.15689657  1
  O2-  O400  1  0.34997270  0.42477567  0.48338109  1
  O2-  O401  1  0.34851441  0.43328955  0.80598140  1
  O2-  O402  1  0.33603861  0.66450914  0.12800549  1
  O2-  O403  1  0.33302065  0.66133903  0.47524507  1
  O2-  O404  1  0.42984920  0.71107135  0.78427051  1
  O2-  O405  1  0.30976593  0.86143512  0.12268558  1
  O2-  O406  1  0.34439931  0.92176081  0.47374545  1
  O2-  O407  1  0.31279846  0.90736369  0.80672316  1
  O2-  O408  1  0.65739730  0.20968229  0.12938530  1
  O2-  O409  1  0.58698509  0.17658019  0.48660335  1
  O2-  O410  1  0.58383302  0.16853855  0.80203002  1
  O2-  O411  1  0.58884791  0.42446552  0.15166258  1
  O2-  O412  1  0.57592703  0.43686854  0.46952212  1
  O2-  O413  1  0.58483416  0.41050616  0.82325346  1
  O2-  O414  1  0.55985559  0.67701196  0.13409550  1
  O2-  O415  1  0.59356582  0.67873433  0.48720838  1
  O2-  O416  1  0.59002169  0.65723470  0.83046547  1
  O2-  O417  1  0.58003483  0.91976279  0.14853508  1
  O2-  O418  1  0.56735931  0.88529163  0.47762746  1
  O2-  O419  1  0.59527899  0.92337290  0.80411871  1
  O2-  O420  1  0.82957763  0.17240648  0.15242330  1
  O2-  O421  1  0.83981998  0.17122218  0.47748780  1
  O2-  O422  1  0.81130912  0.14670756  0.81012377  1
  O2-  O423  1  0.83579831  0.41866054  0.14884043  1
  O2-  O424  1  0.79871226  0.34912845  0.44832764  1
  O2-  O425  1  0.83911273  0.41566966  0.81004225  1
  O2-  O426  1  0.83769655  0.65725236  0.14428689  1
  O2-  O427  1  0.83085420  0.67292543  0.47829274  1
  O2-  O428  1  0.83986269  0.66244555  0.81822437  1
  O2-  O429  1  0.80200588  0.87605746  0.13879034  1
  O2-  O430  1  0.80067391  0.94921527  0.46896235  1
  O2-  O431  1  0.81900763  0.89942907  0.81784193  1
  O2-  O432  1  0.16358552  0.07274175  0.19139362  1
  O2-  O433  1  0.15516573  0.07384033  0.51430047  1
  O2-  O434  1  0.16463326  0.07689967  0.86169946  1
  O2-  O435  1  0.16443700  0.32994242  0.19298948  1
  O2-  O436  1  0.16250593  0.32306724  0.53938655  1
  O2-  O437  1  0.20558453  0.34298749  0.85406683  1
  O2-  O438  1  0.14541604  0.57713366  0.18407854  1
  O2-  O439  1  0.17915975  0.54722970  0.52187712  1
  O2-  O440  1  0.08240509  0.50463051  0.79579725  1
  O2-  O441  1  0.16197917  0.83169318  0.18503919  1
  O2-  O442  1  0.17362384  0.84891604  0.51321903  1
  O2-  O443  1  0.15760045  0.83068566  0.85596538  1
  O2-  O444  1  0.34062602  0.05874034  0.15638044  1
  O2-  O445  1  0.42606813  0.08922498  0.51409024  1
  O2-  O446  1  0.40933885  0.07319156  0.85070503  1
  O2-  O447  1  0.38266209  0.35659761  0.17393496  1
  O2-  O448  1  0.42231923  0.34997268  0.52858909  1
  O2-  O449  1  0.41862265  0.33158846  0.85860525  1
  O2-  O450  1  0.41045949  0.58300490  0.16806033  1
  O2-  O451  1  0.41448473  0.58029997  0.51733208  1
  O2-  O452  1  0.43029616  0.58254642  0.84342733  1
  O2-  O453  1  0.41256303  0.81982405  0.18569689  1
  O2-  O454  1  0.40493137  0.82278719  0.52399958  1
  O2-  O455  1  0.44842018  0.85891809  0.85097920  1
  O2-  O456  1  0.67124104  0.08290753  0.19380311  1
  O2-  O457  1  0.67827472  0.10097088  0.52678032  1
  O2-  O458  1  0.64819516  0.07751874  0.83518565  1
  O2-  O459  1  0.67476709  0.34987282  0.19489019  1
  O2-  O460  1  0.67084410  0.33236932  0.52387696  1
  O2-  O461  1  0.67149294  0.32770608  0.85316021  1
  O2-  O462  1  0.68107443  0.57448525  0.19150155  1
  O2-  O463  1  0.67333114  0.59534515  0.52477976  1
  O2-  O464  1  0.68010932  0.57704364  0.86755980  1
  O2-  O465  1  0.65418899  0.83416844  0.18721195  1
  O2-  O466  1  0.66882875  0.83591942  0.52433674  1
  O2-  O467  1  0.66121408  0.82980699  0.85144801  1
  O2-  O468  1  0.91894481  0.10488088  0.18243261  1
  O2-  O469  1  0.91120661  0.08362612  0.51873221  1
  O2-  O470  1  0.88848977  0.06099934  0.85548130  1
  O2-  O471  1  0.90667837  0.33515257  0.19832447  1
  O2-  O472  1  0.91592427  0.33081821  0.51678374  1
  O2-  O473  1  0.89578300  0.30853989  0.86170017  1
  O2-  O474  1  0.91973136  0.57991185  0.19373966  1
  O2-  O475  1  0.91281068  0.59991346  0.51936253  1
  O2-  O476  1  0.92329269  0.58559802  0.85596822  1
  O2-  O477  1  0.90996493  0.81329577  0.18014646  1
  O2-  O478  1  0.93097693  0.84819333  0.50546083  1
  O2-  O479  1  0.92489420  0.83413438  0.85581861  1
  O2-  O480  1  0.15631513  0.08011986  0.31370162  1
  O2-  O481  1  0.16632555  0.08534816  0.64502388  1
  O2-  O482  1  0.15256420  0.07603620  0.98002087  1
  O2-  O483  1  0.16987933  0.33618670  0.31424604  1
  O2-  O484  1  0.16662398  0.33311238  0.66361331  1
  O2-  O485  1  0.17122201  0.33369340  0.97526741  1
  O2-  O486  1  0.16048218  0.58348495  0.30800849  1
  O2-  O487  1  0.16738676  0.60334172  0.64088687  1
  O2-  O488  1  0.19192216  0.59124169  1.04454111  1
  O2-  O489  1  0.16178050  0.82947385  0.30908845  1
  O2-  O490  1  0.14907882  0.82370410  0.66416130  1
  O2-  O491  1  0.17070436  0.82628606  0.97948731  1
  O2-  O492  1  0.36225569  0.06042454  0.29041793  1
  O2-  O493  1  0.41524784  0.09096094  0.63933261  1
  O2-  O494  1  0.41598759  0.07880700  1.02560304  1
  O2-  O495  1  0.40905872  0.32759664  0.31758789  1
  O2-  O496  1  0.42204639  0.34796095  0.64910925  1
  O2-  O497  1  0.41527494  0.33429247  0.98509377  1
  O2-  O498  1  0.41285385  0.60150488  0.28800796  1
  O2-  O499  1  0.40598812  0.58058474  0.64204558  1
  O2-  O500  1  0.42367040  0.58084416  0.96820026  1
  O2-  O501  1  0.40892199  0.82795031  0.30876873  1
  O2-  O502  1  0.40345283  0.82972492  0.64823845  1
  O2-  O503  1  0.43096191  0.83713975  0.97325181  1
  O2-  O504  1  0.67440539  0.08551240  0.31972410  1
  O2-  O505  1  0.65956470  0.08500810  0.64366614  1
  O2-  O506  1  0.66549601  0.06032823  0.98250237  1
  O2-  O507  1  0.67569647  0.34927000  0.31306538  1
  O2-  O508  1  0.66844868  0.34264775  0.64985362  1
  O2-  O509  1  0.66580289  0.33158030  0.97950063  1
  O2-  O510  1  0.65792909  0.57612923  0.31598681  1
  O2-  O511  1  0.67325208  0.58986723  0.64924710  1
  O2-  O512  1  0.67328074  0.57907991  0.99332079  1
  O2-  O513  1  0.64686205  0.82508755  0.31152133  1
  O2-  O514  1  0.67276934  0.83991204  0.64182042  1
  O2-  O515  1  0.66449022  0.82901602  0.97731543  1
  O2-  O516  1  0.92525010  0.08822504  0.30026453  1
  O2-  O517  1  0.91408355  0.07114139  0.64435658  1
  O2-  O518  1  0.91139116  0.08122621  0.98298955  1
  O2-  O519  1  0.91939551  0.32117573  0.31300199  1
  O2-  O520  1  0.93917260  0.35736280  0.64343436  1
  O2-  O521  1  0.89520355  0.32275141  0.98275963  1
  O2-  O522  1  0.91130685  0.58964611  0.31899952  1
  O2-  O523  1  0.91534460  0.59101899  0.64309047  1
  O2-  O524  1  0.91624684  0.58257821  0.98368040  1
  O2-  O525  1  0.91633983  0.82491557  0.30177785  1
  O2-  O526  1  0.91122200  0.83841338  0.66619159  1
  O2-  O527  1  0.91969857  0.84087412  0.97368541  1
  O2-  O528  1  0.08143982  0.16894160  0.01700580  1
  O2-  O529  1  0.08719555  0.17346725  0.35776206  1
  O2-  O530  1  0.07821710  0.16120646  0.69573346  1
  O2-  O531  1  0.04968861  0.37972679  0.02543144  1
  O2-  O532  1  0.07742015  0.41573230  0.33825963  1
  O2-  O533  1  0.09521781  0.44331198  0.68645653  1
  O2-  O534  1  0.07753780  0.65911922  0.02675095  1
  O2-  O535  1  0.07829407  0.66441394  0.35098494  1
  O2-  O536  1  0.08066370  0.67040759  0.69698475  1
  O2-  O537  1  0.09077595  0.91875927  0.00612971  1
  O2-  O538  1  0.08089298  0.91047602  0.35218914  1
  O2-  O539  1  0.08163034  0.92310390  0.69700481  1
  O2-  O540  1  0.31881383  0.17022372  0.02184170  1
  O2-  O541  1  0.32442774  0.16325980  0.35606218  1
  O2-  O542  1  0.33338279  0.17315723  0.68406453  1
  O2-  O543  1  0.33887081  0.42265088  0.02331859  1
  O2-  O544  1  0.33915285  0.40430119  0.36743645  1
  O2-  O545  1  0.34108941  0.42953670  0.69185570  1
  O2-  O546  1  0.35024599  0.67458063  0.00470272  1
  O2-  O547  1  0.32392439  0.66269172  0.35077757  1
  O2-  O548  1  0.33060093  0.66504128  0.68128515  1
  O2-  O549  1  0.33740488  0.90954220  0.01218142  1
  O2-  O550  1  0.32486746  0.90970260  0.34911805  1
  O2-  O551  1  0.32689152  0.92137576  0.67594289  1
  O2-  O552  1  0.59268471  0.16087849  0.01589253  1
  O2-  O553  1  0.67161167  0.21968801  0.37827015  1
  O2-  O554  1  0.57974416  0.17050647  0.67831296  1
  O2-  O555  1  0.58143731  0.41330594  0.02570832  1
  O2-  O556  1  0.57978667  0.41856196  0.35464617  1
  O2-  O557  1  0.58704721  0.42259271  0.69904487  1
  O2-  O558  1  0.58517947  0.66079153  0.01566223  1
  O2-  O559  1  0.56478374  0.64041064  0.35944155  1
  O2-  O560  1  0.58322066  0.66528914  0.67124411  1
  O2-  O561  1  0.58343764  0.90805954  0.02833297  1
  O2-  O562  1  0.57103414  0.91076272  0.35171965  1
  O2-  O563  1  0.57842526  0.91371890  0.68059467  1
  O2-  O564  1  0.82945941  0.16440410  0.02813218  1
  O2-  O565  1  0.84525991  0.16536309  0.35489132  1
  O2-  O566  1  0.82008729  0.12655141  0.68853754  1
  O2-  O567  1  0.83014834  0.41790655  0.02375162  1
  O2-  O568  1  0.83067266  0.43200013  0.34526420  1
  O2-  O569  1  0.83624841  0.42373853  0.68489463  1
  O2-  O570  1  0.82891993  0.64680087  0.03147227  1
  O2-  O571  1  0.82598861  0.66591448  0.35542312  1
  O2-  O572  1  0.83309312  0.66781431  0.69645567  1
  O2-  O573  1  0.83067694  0.91428069  0.01784263  1
  O2-  O574  1  0.90774038  0.92255684  0.41005091  1
  O2-  O575  1  0.83023105  0.91571767  0.67668428  1
