# generated using pymatgen
data_H2O
_symmetry_space_group_name_H-M   'P 1'
_cell_length_a   17.98806898
_cell_length_b   17.98758504
_cell_length_c   22.00525203
_cell_angle_alpha   90.00217703
_cell_angle_beta   90.01527174
_cell_angle_gamma   120.01092383
_symmetry_Int_Tables_number   1
_chemical_formula_structural   H2O
_chemical_formula_sum   'H384 O192'
_cell_volume   6165.47503317
_cell_formula_units_Z   192
loop_
 _symmetry_equiv_pos_site_id
 _symmetry_equiv_pos_as_xyz
  1  'x, y, z'
loop_
 _atom_type_symbol
 _atom_type_oxidation_number
  H+  1.0
  O2-  -2.0
loop_
 _atom_site_type_symbol
 _atom_site_label
 _atom_site_symmetry_multiplicity
 _atom_site_fract_x
 _atom_site_fract_y
 _atom_site_fract_z
 _atom_site_occupancy
  H+  H0  1  0.76203249  0.38807318  0.34278997  1
  H+  H1  1  0.11085280  0.22080454  -0.01247702  1
  H+  H2  1  0.78129405  0.15180388  0.20402597  1
  H+  H3  1  0.24298235  0.87417619  -0.00906461  1
  H+  H4  1  0.88230074  0.10725050  0.83421204  1
  H+  H5  1  0.10927480  0.48015048  0.49183109  1
  H+  H6  1  0.35686177  0.24372180  0.15422302  1
  H+  H7  1  0.47449351  0.35866865  0.98976124  1
  H+  H8  1  0.76178801  0.13836491  0.49627193  1
  H+  H9  1  0.21526057  0.30845436  0.49413689  1
  H+  H10  1  0.13605440  0.51846962  0.65569889  1
  H+  H11  1  0.25751391  0.84109479  0.99082838  1
  H+  H12  1  0.63828695  0.11568898  0.83268983  1
  H+  H13  1  0.88390506  0.50547554  0.50254320  1
  H+  H14  1  0.75944907  0.14026369  -0.01506464  1
  H+  H15  1  0.36751576  0.13684412  0.67505922  1
  H+  H16  1  0.27734837  0.38880343  0.66524943  1
  H+  H17  1  0.64802191  0.36773395  0.66312287  1
  H+  H18  1  0.02594056  0.38165679  0.65851496  1
  H+  H19  1  0.38467616  0.35904312  0.99577588  1
  H+  H20  1  0.38616059  1.02412837  0.66491525  1
  H+  H21  1  0.39179918  0.82443347  0.59651390  1
  H+  H22  1  0.61419272  0.63368450  0.33603578  1
  H+  H23  1  0.62074129  0.15915124  0.99898903  1
  H+  H24  1  0.99324385  0.11414022  0.51412845  1
  H+  H25  1  0.17013026  0.32176365  0.58832601  1
  H+  H26  1  0.22246076  0.09801152  0.83556979  1
  H+  H27  1  0.34762183  0.38318855  0.82752811  1
  H+  H28  1  0.86069188  0.97100166  0.34807283  1
  H+  H29  1  0.88862487  0.47433167  0.67591381  1
  H+  H30  1  0.64310795  0.12579258  0.17901642  1
  H+  H31  1  0.01617610  0.88807678  0.82105461  1
  H+  H32  1  0.43889028  0.34120873  0.84021354  1
  H+  H33  1  0.10965118  0.46784747  0.00339624  1
  H+  H34  1  0.11514037  0.37739872  0.34108065  1
  H+  H35  1  -0.02262989  0.61462605  -0.00680322  1
  H+  H36  1  0.72288948  0.87203802  0.50943773  1
  H+  H37  1  0.86297288  0.88827357  0.00875198  1
  H+  H38  1  0.23765979  0.14482838  0.32929488  1
  H+  H39  1  0.10495520  0.36561632  0.80271366  1
  H+  H40  1  0.23115877  0.11232231  0.66852108  1
  H+  H41  1  0.58633756  0.40824939  0.39115117  1
  H+  H42  1  0.56076962  0.50545673  0.54249528  1
  H+  H43  1  0.38126290  0.35203940  0.33462665  1
  H+  H44  1  0.64329777  0.37983050  -0.00004066  1
  H+  H45  1  0.88162701  0.52632731  0.32450942  1
  H+  H46  1  0.66605437  0.81330524  0.16219925  1
  H+  H47  1  0.12647983  0.90691544  0.05441107  1
  H+  H48  1  0.85810008  -0.02889000  0.82501585  1
  H+  H49  1  0.89568183  0.28720729  0.18077407  1
  H+  H50  1  0.52584199  0.13522170  0.82290582  1
  H+  H51  1  0.13458225  0.35342747  0.00089437  1
  H+  H52  1  0.08206828  0.16241539  0.90388477  1
  H+  H53  1  0.75895131  0.87226205  0.33931378  1
  H+  H54  1  0.11797877  0.49387785  0.83516360  1
  H+  H55  1  0.61773064  0.22337658  0.82156777  1
  H+  H56  1  0.53879462  0.41676215  0.15050808  1
  H+  H57  1  0.97087611  0.08817003  0.34953496  1
  H+  H58  1  0.61408277  0.71860081  0.00837703  1
  H+  H59  1  0.88581099  0.77086471  0.99826195  1
  H+  H60  1  0.74162687  0.38128713  0.99714951  1
  H+  H61  1  0.52029786  0.13595434  0.33756151  1
  H+  H62  1  0.10920411  0.83785185  0.18003978  1
  H+  H63  1  0.82297567  0.63652212  0.06141843  1
  H+  H64  1  0.62650783  0.02148841  0.50857000  1
  H+  H65  1  0.13680093  0.52277901  0.32679288  1
  H+  H66  1  0.34323430  0.21320165  0.82926322  1
  H+  H67  1  0.39187033  0.13113579  0.17673974  1
  H+  H68  1  0.86665419  0.13700416  0.67069256  1
  H+  H69  1  0.74656644  0.63990795  0.17998465  1
  H+  H70  1  0.92364912  0.83798568  0.90039354  1
  H+  H71  1  0.37369264  0.38606388  0.49803803  1
  H+  H72  1  -0.02395071  0.61371184  0.84239916  1
  H+  H73  1  0.14635601  0.27597588  0.65202146  1
  H+  H74  1  0.82405235  0.16772382  0.04017621  1
  H+  H75  1  1.02858917  0.13654316  0.17402365  1
  H+  H76  1  0.87273917  0.10645906  -0.01744159  1
  H+  H77  1  0.36640117  0.46662252  0.34257708  1
  H+  H78  1  0.63391504  0.74288383  0.49404097  1
  H+  H79  1  0.35694211  0.47621720  0.82499942  1
  H+  H80  1  0.37090378  0.82202876  0.47482440  1
  H+  H81  1  0.36103767  0.61858851  0.16085243  1
  H+  H82  1  0.01923459  0.89419082  0.66975463  1
  H+  H83  1  1.01850875  0.13054353  0.98585041  1
  H+  H84  1  0.89206973  0.03495628  0.18466639  1
  H+  H85  1  0.88363848  0.52335357  0.17250395  1
  H+  H86  1  -0.01760120  0.11738118  0.66575819  1
  H+  H87  1  0.62794057  0.97893241  0.67240840  1
  H+  H88  1  0.02458827  0.37033985  0.33642811  1
  H+  H89  1  0.72924328  0.85698316  0.83979216  1
  H+  H90  1  0.57276032  0.16047727  0.43355204  1
  H+  H91  1  0.35012484  -0.00169701  0.50137604  1
  H+  H92  1  0.40250331  0.86088758  0.18146690  1
  H+  H93  1  0.61501611  0.22584334  0.67065046  1
  H+  H94  1  0.61613750  0.47968493  0.99948516  1
  H+  H95  1  0.75138967  0.89846020  0.17206944  1
  H+  H96  1  0.85226120  0.39780793  0.36206072  1
  H+  H97  1  0.03508062  0.39266699  0.15380660  1
  H+  H98  1  0.65026654  0.62316617  0.67002912  1
  H+  H99  1  0.41801274  0.79524285  0.82222969  1
  H+  H100  1  0.11096937  0.97491324  0.82143868  1
  H+  H101  1  0.11527995  0.12416020  0.35318646  1
  H+  H102  1  0.39576566  0.32214633  0.90562295  1
  H+  H103  1  0.23476125  0.61368761  0.50473706  1
  H+  H104  1  0.64874870  0.49979997  0.82388882  1
  H+  H105  1  0.86669763  0.89717352  0.15918633  1
  H+  H106  1  0.78837612  0.65299814  0.82070282  1
  H+  H107  1  0.13967700  1.01472064  -0.00719136  1
  H+  H108  1  0.27212450  0.13396330  0.00646028  1
  H+  H109  1  0.11304576  0.62942501  0.16242244  1
  H+  H110  1  0.50141987  0.38631595  0.50865864  1
  H+  H111  1  0.87149598  0.89049957  0.67236687  1
  H+  H112  1  0.27261914  0.62100755  1.00336073  1
  H+  H113  1  0.14328881  0.35862813  0.17104053  1
  H+  H114  1  0.12551072  0.14691992  0.68185680  1
  H+  H115  1  0.87125210  0.64676982  0.50271588  1
  H+  H116  1  0.12441240  0.47943559  0.15918178  1
  H+  H117  1  0.85157877  0.22783832  0.49189432  1
  H+  H118  1  0.60110959  0.97127695  0.34922163  1
  H+  H119  1  0.39822670  0.36778193  0.66348550  1
  H+  H120  1  0.01194308  0.62499313  0.66742081  1
  H+  H121  1  0.10063661  0.61654105  0.82084149  1
  H+  H122  1  0.53018749  0.89247468  0.16345112  1
  H+  H123  1  0.86281737  0.19628766  0.35146355  1
  H+  H124  1  0.72474712  0.36983101  0.16859687  1
  H+  H125  1  0.72099270  0.10114849  0.33699744  1
  H+  H126  1  0.47940906  0.61071675  0.84007832  1
  H+  H127  1  0.46768876  0.86066273  0.49932100  1
  H+  H128  1  0.36277352  0.14244837  0.50572696  1
  H+  H129  1  0.48741838  0.36805358  0.66683626  1
  H+  H130  1  0.13591091  0.77895338  0.50821222  1
  H+  H131  1  0.33678282  0.65365405  0.10224487  1
  H+  H132  1  0.36423689  0.21338286  0.35771329  1
  H+  H133  1  0.12038989  0.84473683  0.82654503  1
  H+  H134  1  0.59788675  0.88523700  0.49872394  1
  H+  H135  1  0.86336751  0.88500135  0.82797379  1
  H+  H136  1  0.88220694  0.09376117  0.34770236  1
  H+  H137  1  0.58467712  0.66827475  0.76723375  1
  H+  H138  1  0.97964181  0.35296411  0.83308983  1
  H+  H139  1  0.87014675  0.14799321  0.20665249  1
  H+  H140  1  0.33480267  0.40510689  0.40266342  1
  H+  H141  1  0.61009324  0.13615420  0.34011335  1
  H+  H142  1  0.89126464  0.37539119  0.50696223  1
  H+  H143  1  0.63409588  0.51634439  0.32582980  1
  H+  H144  1  0.73296882  0.34354566  0.83165103  1
  H+  H145  1  0.36363420  0.82169292  0.96901330  1
  H+  H146  1  -0.02333650  0.36854225  0.50206418  1
  H+  H147  1  0.37512144  0.71300410  0.48744559  1
  H+  H148  1  0.62560248  0.91009725  0.15544374  1
  H+  H149  1  0.46346526  0.96711019  0.03731901  1
  H+  H150  1  0.85861734  0.71852362  0.33329831  1
  H+  H151  1  0.15244201  0.26644391  0.32228609  1
  H+  H152  1  0.64188954  0.03668154  0.17648086  1
  H+  H153  1  0.61375893  0.72416323  0.82817689  1
  H+  H154  1  0.77554153  0.13690811  0.82402094  1
  H+  H155  1  0.50483818  0.89030721  1.00625993  1
  H+  H156  1  0.97342647  0.86649563  0.50606690  1
  H+  H157  1  0.10539578  0.18308340  0.45017801  1
  H+  H158  1  0.38222704  0.75763826  0.32933583  1
  H+  H159  1  0.13873648  0.61666435  0.33292222  1
  H+  H160  1  0.26523521  0.62240373  0.34004894  1
  H+  H161  1  0.11621810  0.98857755  0.67534001  1
  H+  H162  1  0.13377449  0.60724496  0.65965396  1
  H+  H163  1  0.26974707  0.88840373  0.68048046  1
  H+  H164  1  0.27077977  0.87668113  0.31603023  1
  H+  H165  1  0.62009028  0.63002925  0.16431301  1
  H+  H166  1  0.42564918  0.09678910  0.89979133  1
  H+  H167  1  0.37846910  0.97595666  0.18643884  1
  H+  H168  1  0.61718403  0.23666952  0.16064709  1
  H+  H169  1  0.61993625  0.03856781  0.98710524  1
  H+  H170  1  0.33856839  0.44895655  0.49671654  1
  H+  H171  1  0.37502857  0.51525286  0.66304589  1
  H+  H172  1  0.46220121  0.58551974  0.51324500  1
  H+  H173  1  0.86740623  0.63083123  1.00157074  1
  H+  H174  1  0.64484133  0.28474882  0.99945763  1
  H+  H175  1  0.41906292  0.57853670  0.89997433  1
  H+  H176  1  0.16882983  0.73187009  0.02933065  1
  H+  H177  1  0.09904710  0.97767898  0.17586062  1
  H+  H178  1  0.87603899  0.38130592  0.66325541  1
  H+  H179  1  0.15128128  0.12179821  0.52337363  1
  H+  H180  1  0.05346722  0.05607527  0.40202258  1
  H+  H181  1  0.36958725  0.76634442  0.65474858  1
  H+  H182  1  0.53613310  0.16789532  1.00321192  1
  H+  H183  1  0.86282236  0.36799768  0.82072688  1
  H+  H184  1  0.39936146  0.76931117  0.17381367  1
  H+  H185  1  -0.02699743  0.85925420  0.00262587  1
  H+  H186  1  0.46576822  0.58399616  0.17271163  1
  H+  H187  1  0.64689288  0.62160330  0.83364204  1
  H+  H188  1  0.37650039  0.63795301  0.82879021  1
  H+  H189  1  0.36473098  0.46144066  0.01076143  1
  H+  H190  1  0.47650022  0.11915526  0.50739639  1
  H+  H191  1  0.38322856  0.01861429  0.32102783  1
  H+  H192  1  0.17247241  0.97406894  0.35622760  1
  H+  H193  1  0.64844819  0.77059208  0.32125072  1
  H+  H194  1  0.88240188  0.27975336  0.98270133  1
  H+  H195  1  0.35239305  0.91368742  0.50272069  1
  H+  H196  1  0.86450170  0.54601644  0.63705461  1
  H+  H197  1  0.48012840  0.12975166  0.17629589  1
  H+  H198  1  0.51565082  0.87936917  0.34833067  1
  H+  H199  1  0.36160973  0.88185547  0.32180310  1
  H+  H200  1  0.52280816  0.37958303  0.33386236  1
  H+  H201  1  0.40810016  0.88079377  0.83233856  1
  H+  H202  1  0.89970160  0.06912379  0.92705883  1
  H+  H203  1  0.64654787  0.86921000  0.66282340  1
  H+  H204  1  0.42167597  0.06109576  1.00094314  1
  H+  H205  1  0.13800018  0.74936275  0.32851659  1
  H+  H206  1  0.76903958  0.62219450  0.33451816  1
  H+  H207  1  0.11795837  0.22154864  0.16548894  1
  H+  H208  1  0.56058335  0.93434625  0.06834136  1
  H+  H209  1  0.14715503  0.80847766  0.23465509  1
  H+  H210  1  0.13140221  0.11099641  0.17918471  1
  H+  H211  1  0.85828814  0.97590044  0.00314729  1
  H+  H212  1  0.12423308  0.65021190  0.49078774  1
  H+  H213  1  0.97458563  0.36529510  0.99257853  1
  H+  H214  1  0.73112199  0.86044487  -0.00139916  1
  H+  H215  1  0.77887250  0.63291761  0.51473021  1
  H+  H216  1  0.72983721  0.11697773  0.65811222  1
  H+  H217  1  0.38348949  0.98308136  0.82992380  1
  H+  H218  1  0.17619236  0.59027692  0.56415538  1
  H+  H219  1  0.38172555  0.59964396  0.50475850  1
  H+  H220  1  0.85928897  0.88433875  0.49423525  1
  H+  H221  1  0.36343949  0.70680379  -0.00035584  1
  H+  H222  1  0.47740323  0.11288088  0.66390361  1
  H+  H223  1  0.10743156  0.88748679  0.50309413  1
  H+  H224  1  0.35609357  0.12214844  0.34824633  1
  H+  H225  1  -0.00502308  0.63574405  0.50519492  1
  H+  H226  1  0.20566297  0.57794214  0.83163446  1
  H+  H227  1  0.23020563  0.61031942  0.17700100  1
  H+  H228  1  0.62788211  0.38497114  0.48735079  1
  H+  H229  1  0.26124296  0.62140054  0.67267020  1
  H+  H230  1  0.88639678  0.65193732  0.66764018  1
  H+  H231  1  0.62077131  0.73666443  0.67277186  1
  H+  H232  1  0.41588205  0.09317235  0.27178951  1
  H+  H233  1  0.79715594  0.65625850  0.67431027  1
  H+  H234  1  0.89485457  1.02636394  0.66502464  1
  H+  H235  1  0.31890411  0.68174873  0.84160190  1
  H+  H236  1  0.21939644  0.10870965  0.17821505  1
  H+  H237  1  0.87422707  0.84399003  0.33324576  1
  H+  H238  1  0.61898072  0.40050795  0.15808493  1
  H+  H239  1  0.38800706  0.11360448  0.83894884  1
  H+  H240  1  0.09780623  0.66692079  0.07480902  1
  H+  H241  1  0.13468041  0.10125189  0.98251812  1
  H+  H242  1  0.57044119  0.41032251  0.83912263  1
  H+  H243  1  0.96065512  0.85610879  0.18085705  1
  H+  H244  1  0.73308269  0.86334587  0.65866005  1
  H+  H245  1  0.73485207  0.36359397  0.65986629  1
  H+  H246  1  0.47267823  0.60275548  0.32235273  1
  H+  H247  1  0.90207653  0.78146433  0.65987521  1
  H+  H248  1  0.14241508  0.60880763  0.99323372  1
  H+  H249  1  0.08562142  0.85947296  0.99208363  1
  H+  H250  1  0.58101488  0.69066947  0.17610326  1
  H+  H251  1  0.62173804  0.46941883  0.47824367  1
  H+  H252  1  0.23595273  0.11473004  0.51855271  1
  H+  H253  1  0.86065385  0.39054436  0.15141671  1
  H+  H254  1  0.11870315  0.75519497  0.82989142  1
  H+  H255  1  0.11281054  0.97881730  0.50245622  1
  H+  H256  1  0.74468315  0.39054469  0.51363855  1
  H+  H257  1  0.89393440  0.77945600  0.83958541  1
  H+  H258  1  0.64059069  0.85576495  0.99555439  1
  H+  H259  1  0.23340353  0.35763981  0.33072328  1
  H+  H260  1  0.86459937  0.39239446  0.99791910  1
  H+  H261  1  0.13799556  0.84102686  0.32897779  1
  H+  H262  1  0.63615959  0.26960457  0.32314127  1
  H+  H263  1  0.53206016  0.64685296  0.67192546  1
  H+  H264  1  0.38546072  0.59664763  -0.00590089  1
  H+  H265  1  0.13008111  0.85473866  0.66627790  1
  H+  H266  1  0.86840181  0.62414341  0.32642578  1
  H+  H267  1  0.62982425  0.89399454  0.83076395  1
  H+  H268  1  0.91502288  0.58297502  0.26173545  1
  H+  H269  1  0.35827421  0.22683439  0.00701909  1
  H+  H270  1  -0.02417169  0.60668915  0.17381769  1
  H+  H271  1  0.88388677  0.77550711  0.51108807  1
  H+  H272  1  0.35331585  0.61809374  0.33678290  1
  H+  H273  1  0.21825168  0.87346588  0.51538163  1
  H+  H274  1  0.54416116  0.89976993  0.82667720  1
  H+  H275  1  0.86488278  0.30611848  0.31273431  1
  H+  H276  1  0.65271200  0.35585274  0.83365855  1
  H+  H277  1  0.21203516  0.34285328  0.80313129  1
  H+  H278  1  0.86759048  0.22205117  0.82548036  1
  H+  H279  1  0.39617995  0.13411168  0.99504113  1
  H+  H280  1  0.16018000  0.57027013  0.93195570  1
  H+  H281  1  0.12807858  0.25580777  0.82456697  1
  H+  H282  1  0.22173779  0.35001447  1.00524739  1
  H+  H283  1  0.15965044  0.82771619  0.60649540  1
  H+  H284  1  0.63964800  0.61104992  0.98957271  1
  H+  H285  1  0.08010989  0.74432856  0.97764783  1
  H+  H286  1  0.86736072  0.48410028  -0.00120179  1
  H+  H287  1  0.89622822  0.62950479  0.84506851  1
  H+  H288  1  0.38674164  0.49060524  0.17251361  1
  H+  H289  1  0.92437972  0.33362460  0.89515138  1
  H+  H290  1  0.91925400  0.32953548  0.59144336  1
  H+  H291  1  0.10275274  0.71165287  0.67251116  1
  H+  H292  1  0.92598841  0.84196585  0.59915987  1
  H+  H293  1  0.58446672  0.16523057  0.72967292  1
  H+  H294  1  0.16758979  0.06416435  0.89769722  1
  H+  H295  1  0.66528526  0.54228648  0.17007348  1
  H+  H296  1  0.42425000  0.82362990  0.91721227  1
  H+  H297  1  0.10436665  0.91995298  0.40563991  1
  H+  H298  1  0.32961165  0.16209301  0.76633287  1
  H+  H299  1  0.93910594  0.36915726  0.22031149  1
  H+  H300  1  0.67036272  0.58217991  0.26930723  1
  H+  H301  1  0.83626616  0.91427969  0.73198679  1
  H+  H302  1  0.36419752  0.61012340  0.66474083  1
  H+  H303  1  0.63887874  0.11388207  0.66026755  1
  H+  H304  1  0.38679381  0.29223233  0.28325603  1
  H+  H305  1  0.04163738  0.63319315  0.34413052  1
  H+  H306  1  0.68795355  0.84244378  0.26626772  1
  H+  H307  1  0.58372219  0.65624214  0.06594302  1
  H+  H308  1  0.83862571  0.44473939  0.44536122  1
  H+  H309  1  0.83691550  0.16834732  0.72887424  1
  H+  H310  1  0.82431402  0.14766627  0.41460426  1
  H+  H311  1  0.17115453  0.33076012  0.23120746  1
  H+  H312  1  0.40938578  0.56027265  0.26550266  1
  H+  H313  1  0.57108121  0.91507870  0.43711679  1
  H+  H314  1  0.36287668  0.92773350  0.02537795  1
  H+  H315  1  0.82448026  0.90941787  0.41061341  1
  H+  H316  1  0.60123197  0.12982335  0.49285538  1
  H+  H317  1  0.60741362  0.92476167  0.73344847  1
  H+  H318  1  0.92263458  0.59299240  0.92936846  1
  H+  H319  1  0.97036820  0.10452969  0.84704097  1
  H+  H320  1  0.09770271  0.67407384  0.42673146  1
  H+  H321  1  0.45161525  0.37064060  0.57329140  1
  H+  H322  1  0.89205442  0.26973882  0.65265147  1
  H+  H323  1  0.66519352  0.08197653  0.27593453  1
  H+  H324  1  0.86333635  0.75313731  0.11908084  1
  H+  H325  1  0.07516078  0.92219907  0.74210503  1
  H+  H326  1  0.34959328  0.40129663  0.07030300  1
  H+  H327  1  0.09685697  0.79418064  0.91356795  1
  H+  H328  1  0.17127997  0.08425629  0.60902998  1
  H+  H329  1  0.07620215  0.40911840  0.75359904  1
  H+  H330  1  0.33118729  0.41981900  0.72877255  1
  H+  H331  1  0.58777782  0.67199773  0.39158282  1
  H+  H332  1  0.42196070  0.81765682  0.27081792  1
  H+  H333  1  0.35555209  0.88534115  0.67396829  1
  H+  H334  1  0.66549152  0.83629291  0.56941126  1
  H+  H335  1  0.84459110  0.93381208  0.09926892  1
  H+  H336  1  0.59922294  0.42361728  0.73394491  1
  H+  H337  1  0.16960231  0.58174565  0.23627720  1
  H+  H338  1  0.59069047  0.17750374  0.10208543  1
  H+  H339  1  0.08340446  0.41408940  0.06482549  1
  H+  H340  1  0.33823527  0.65082063  0.42849890  1
  H+  H341  1  0.11159606  0.20620686  0.73072479  1
  H+  H342  1  0.67513369  0.34673971  0.56646397  1
  H+  H343  1  0.08042346  0.41712279  0.43521313  1
  H+  H344  1  0.63477630  0.35836773  0.32165245  1
  H+  H345  1  0.93706995  0.61021937  0.56831017  1
  H+  H346  1  0.67117415  0.82714455  0.90016151  1
  H+  H347  1  0.92023786  0.07685951  0.25116421  1
  H+  H348  1  0.05714959  0.92463867  0.11587314  1
  H+  H349  1  0.89467662  0.17632621  0.10258698  1
  H+  H350  1  0.88438113  0.24838430  0.26909513  1
  H+  H351  1  0.67947520  0.59452828  0.89311788  1
  H+  H352  1  0.40264882  0.57659499  0.60065269  1
  H+  H353  1  0.38377846  0.94753557  0.12113947  1
  H+  H354  1  0.83010258  0.42112511  0.09347875  1
  H+  H355  1  0.34907981  0.92274365  0.77084545  1
  H+  H356  1  0.47616708  0.60037516  -0.00596280  1
  H+  H357  1  0.59133793  0.42740905  0.06238534  1
  H+  H358  1  0.36882202  0.22698876  0.67402863  1
  H+  H359  1  0.65776466  0.09148681  0.92360791  1
  H+  H360  1  0.66051560  0.08262002  0.56695753  1
  H+  H361  1  0.89515508  0.81631476  0.26982709  1
  H+  H362  1  0.92898908  0.07608635  0.56934141  1
  H+  H363  1  0.66694469  0.58421453  0.61123248  1
  H+  H364  1  0.32974826  0.17466290  0.10235009  1
  H+  H365  1  0.66757417  0.33917061  0.22958104  1
  H+  H366  1  0.17733983  0.11933645  0.26988074  1
  H+  H367  1  0.32959032  0.65559334  0.73085498  1
  H+  H368  1  0.85483144  0.13248803  0.10497945  1
  H+  H369  1  0.64630419  0.02977698  0.83786081  1
  H+  H370  1  0.32253666  0.15689349  0.44626120  1
  H+  H371  1  0.42261325  0.37969990  0.20629065  1
  H+  H372  1  0.42116980  0.09295715  0.57075941  1
  H+  H373  1  0.10845202  0.12492498  0.84868805  1
  H+  H374  1  0.11737683  0.38573043  0.65863633  1
  H+  H375  1  0.10440953  0.71554253  0.16262432  1
  H+  H376  1  0.83304048  0.39659487  0.76154287  1
  H+  H377  1  0.68548220  0.70641995  0.46053519  1
  H+  H378  1  0.86979456  0.97757680  0.49361578  1
  H+  H379  1  0.85422627  0.68464349  0.76382747  1
  H+  H380  1  0.72838089  0.60976822  0.98807485  1
  H+  H381  1  0.07124063  0.64558694  0.76053713  1
  H+  H382  1  0.62577424  0.48381583  0.67618531  1
  H+  H383  1  0.61610387  0.60167787  0.51734686  1
  O2-  O384  1  0.08564581  0.15844453  0.15535796  1
  O2-  O385  1  0.11267610  0.19032006  0.49527618  1
  O2-  O386  1  0.07928283  0.15835454  0.85782004  1
  O2-  O387  1  0.09582802  0.42043443  0.14066075  1
  O2-  O388  1  0.07566785  0.41893440  0.47991678  1
  O2-  O389  1  0.07739556  0.40232116  0.79869034  1
  O2-  O390  1  0.08049508  0.65529919  0.14372638  1
  O2-  O391  1  0.09544387  0.68047840  0.47398094  1
  O2-  O392  1  0.07334988  0.64912212  0.80614565  1
  O2-  O393  1  0.05991064  0.91709810  0.15961609  1
  O2-  O394  1  0.07993675  0.91958311  0.48534770  1
  O2-  O395  1  0.07475147  0.91635892  0.80075941  1
  O2-  O396  1  0.33201697  0.18143155  0.14753297  1
  O2-  O397  1  0.32519686  0.16542004  0.49094939  1
  O2-  O398  1  0.32337366  0.15524502  0.81182469  1
  O2-  O399  1  0.36906198  0.40537943  0.14095323  1
  O2-  O400  1  0.32554653  0.39246300  0.48055550  1
  O2-  O401  1  0.32683530  0.41800391  0.80597285  1
  O2-  O402  1  0.33853364  0.65639385  0.14732624  1
  O2-  O403  1  0.34375839  0.65171914  0.47468712  1
  O2-  O404  1  0.34824128  0.66929354  0.80934192  1
  O2-  O405  1  0.36620592  0.92478766  0.16260666  1
  O2-  O406  1  0.31583119  0.93586228  0.48903326  1
  O2-  O407  1  0.36121257  0.92326929  0.81518244  1
  O2-  O408  1  0.58914392  0.17524787  0.14714244  1
  O2-  O409  1  0.56709512  0.15592662  0.47825699  1
  O2-  O410  1  0.58493243  0.16119333  0.80579212  1
  O2-  O411  1  0.60029144  0.44001865  0.14003894  1
  O2-  O412  1  0.59294646  0.40908276  0.46521286  1
  O2-  O413  1  0.61898187  0.43703635  0.81154974  1
  O2-  O414  1  0.58061343  0.64961954  0.14704895  1
  O2-  O415  1  0.62668409  0.68925754  0.47233166  1
  O2-  O416  1  0.58323030  0.66349221  0.81263377  1
  O2-  O417  1  0.58720905  0.93215749  0.14322167  1
  O2-  O418  1  0.56671015  0.91414876  0.48397758  1
  O2-  O419  1  0.60594300  0.92939032  0.81426949  1
  O2-  O420  1  0.84464735  0.18651439  0.21150621  1
  O2-  O421  1  0.82154858  0.16650963  0.47976031  1
  O2-  O422  1  0.83571036  0.16203757  0.80852045  1
  O2-  O423  1  0.82646690  0.41754323  0.13873179  1
  O2-  O424  1  0.84946517  0.44324034  0.48910740  1
  O2-  O425  1  0.82803192  0.39328353  0.80626997  1
  O2-  O426  1  0.85795674  0.74016575  0.16275591  1
  O2-  O427  1  0.83258056  0.67111387  0.49418202  1
  O2-  O428  1  0.85043575  0.68475417  0.80959324  1
  O2-  O429  1  0.84645964  0.93665629  0.14493532  1
  O2-  O430  1  0.83094140  0.91672985  0.47809876  1
  O2-  O431  1  0.82895129  0.90969078  0.81080914  1
  O2-  O432  1  0.16091850  0.07851308  0.19593186  1
  O2-  O433  1  0.17369690  0.08393951  0.53589477  1
  O2-  O434  1  0.16222527  0.06510621  0.85220350  1
  O2-  O435  1  0.16805805  0.32416940  0.18667354  1
  O2-  O436  1  0.15401928  0.28323299  0.50723340  1
  O2-  O437  1  0.15025813  0.30407981  0.79450249  1
  O2-  O438  1  0.16913786  0.58012805  0.19025129  1
  O2-  O439  1  0.17502199  0.59098552  0.51907352  1
  O2-  O440  1  0.14993257  0.55485631  0.85152324  1
  O2-  O441  1  0.13954958  0.80669421  0.18890448  1
  O2-  O442  1  0.15740955  0.83518035  0.53011026  1
  O2-  O443  1  0.14027742  0.81175930  0.85034251  1
  O2-  O444  1  0.42146204  0.10177134  0.19383428  1
  O2-  O445  1  0.41639004  0.09474383  0.52584768  1
  O2-  O446  1  0.42290908  0.08889815  0.85482603  1
  O2-  O447  1  0.42242321  0.36862695  0.16274401  1
  O2-  O448  1  0.46532686  0.40239656  0.53383898  1
  O2-  O449  1  0.38311056  0.31695070  0.85981431  1
  O2-  O450  1  0.40658435  0.55215321  0.18832156  1
  O2-  O451  1  0.40404525  0.56511939  0.52816831  1
  O2-  O452  1  0.41817010  0.58270454  0.85434753  1
  O2-  O453  1  0.43293256  0.82773287  0.19153693  1
  O2-  O454  1  0.40391346  0.82058171  0.50949184  1
  O2-  O455  1  0.44003079  0.84743992  0.84711692  1
  O2-  O456  1  0.67119937  0.09439294  0.19610139  1
  O2-  O457  1  0.65847845  0.08279808  0.52147073  1
  O2-  O458  1  0.67183663  0.09077326  0.85249024  1
  O2-  O459  1  0.66432272  0.34193363  0.18418093  1
  O2-  O460  1  0.68197618  0.35872264  0.52220894  1
  O2-  O461  1  0.67145442  0.31591345  0.84711481  1
  O2-  O462  1  0.68623250  0.59907551  0.19078811  1
  O2-  O463  1  0.62042646  0.55513596  0.53837632  1
  O2-  O464  1  0.68372885  0.59751993  0.84777481  1
  O2-  O465  1  0.68964118  0.86500835  0.18714737  1
  O2-  O466  1  0.66247890  0.83615277  0.52346881  1
  O2-  O467  1  0.66828673  0.82708899  0.85518060  1
  O2-  O468  1  0.91913578  0.09015822  0.20731894  1
  O2-  O469  1  0.93515857  0.06881779  0.52520926  1
  O2-  O470  1  0.90630689  0.07169597  0.85161804  1
  O2-  O471  1  0.92701460  0.35151833  0.17766195  1
  O2-  O472  1  0.91515151  0.33769721  0.51769944  1
  O2-  O473  1  0.92042775  0.32267799  0.85054245  1
  O2-  O474  1  0.91657914  0.58144361  0.19056228  1
  O2-  O475  1  0.93488112  0.60677473  0.52188530  1
  O2-  O476  1  0.92154278  0.59725390  0.86434316  1
  O2-  O477  1  0.89588770  0.82641884  0.19051584  1
  O2-  O478  1  0.91336134  0.83820330  0.52277654  1
  O2-  O479  1  0.92354011  0.84082128  0.85538545  1
  O2-  O480  1  0.19006974  0.14988567  0.30984780  1
  O2-  O481  1  0.16922720  0.08292015  0.65550028  1
  O2-  O482  1  0.17018591  0.07334014  0.97485002  1
  O2-  O483  1  0.17254052  0.32724075  0.31581943  1
  O2-  O484  1  0.17691095  0.33429319  0.63253246  1
  O2-  O485  1  0.16367729  0.32198598  0.98710147  1
  O2-  O486  1  0.16951928  0.58303442  0.31288310  1
  O2-  O487  1  0.16996042  0.58182933  0.64619914  1
  O2-  O488  1  0.16789713  0.57474500  0.97689810  1
  O2-  O489  1  0.16217041  0.80950742  0.30752909  1
  O2-  O490  1  0.15993845  0.82465424  0.65236128  1
  O2-  O491  1  0.06619224  0.78268743  0.95480425  1
  O2-  O492  1  0.41384118  0.08384850  0.31665925  1
  O2-  O493  1  0.41581551  0.08515692  0.65052878  1
  O2-  O494  1  0.43615940  0.11486323  0.97853144  1
  O2-  O495  1  0.41159933  0.31953011  0.32200560  1
  O2-  O496  1  0.42795769  0.33725711  0.64925017  1
  O2-  O497  1  0.41372592  0.32765344  0.97638780  1
  O2-  O498  1  0.41143056  0.56591444  0.31108080  1
  O2-  O499  1  0.40181355  0.57872932  0.64718566  1
  O2-  O500  1  0.41673026  0.56813104  0.97743916  1
  O2-  O501  1  0.41548452  0.81858496  0.31572810  1
  O2-  O502  1  0.39155840  0.82559829  0.64115392  1
  O2-  O503  1  0.41175937  0.81185160  0.96278137  1
  O2-  O504  1  0.66176661  0.07933255  0.32110230  1
  O2-  O505  1  0.66889144  0.08376316  0.64431048  1
  O2-  O506  1  0.65721821  0.09676367  0.96989554  1
  O2-  O507  1  0.66911281  0.33125866  0.30826546  1
  O2-  O508  1  0.67371802  0.33389744  0.64698868  1
  O2-  O509  1  0.67634532  0.34931001  0.98647824  1
  O2-  O510  1  0.66707733  0.57926927  0.31454491  1
  O2-  O511  1  0.68033936  0.59269885  0.65551268  1
  O2-  O512  1  0.66878288  0.58106905  0.97148741  1
  O2-  O513  1  0.68754379  0.83269748  0.31082038  1
  O2-  O514  1  0.67188379  0.83320486  0.64517393  1
  O2-  O515  1  0.67015866  0.82552494  0.98251923  1
  O2-  O516  1  0.91280353  0.06353660  0.33023185  1
  O2-  O517  1  0.92322759  0.08660048  0.64927146  1
  O2-  O518  1  0.90111134  0.07253695  0.97286738  1
  O2-  O519  1  0.90984656  0.29298341  0.30301020  1
  O2-  O520  1  0.92390769  0.33052193  0.63747147  1
  O2-  O521  1  0.91602746  0.34244747  0.97367586  1
  O2-  O522  1  0.91249354  0.58599782  0.30833771  1
  O2-  O523  1  0.91840144  0.60006006  0.64095577  1
  O2-  O524  1  0.91853986  0.58627871  0.97766110  1
  O2-  O525  1  0.89759665  0.81033918  0.31452102  1
  O2-  O526  1  0.93071222  0.84396899  0.64491896  1
  O2-  O527  1  0.91425981  0.83209864  0.98580089  1
  O2-  O528  1  0.08084306  0.15656041  -0.02194491  1
  O2-  O529  1  0.06687418  0.11121349  0.38438942  1
  O2-  O530  1  0.09648989  0.18102152  0.68968504  1
  O2-  O531  1  0.07593976  0.40829030  0.01943712  1
  O2-  O532  1  0.08268367  0.40671853  0.35259895  1
  O2-  O533  1  0.08665450  0.41475671  0.67463135  1
  O2-  O534  1  0.11320113  0.67888633  0.02887346  1
  O2-  O535  1  0.10128869  0.66227038  0.35797683  1
  O2-  O536  1  0.07299752  0.64963274  0.68358825  1
  O2-  O537  1  0.09100167  0.90814906  0.02128205  1
  O2-  O538  1  0.11669393  0.92267526  0.36138778  1
  O2-  O539  1  0.08003591  0.92549564  0.69038482  1
  O2-  O540  1  0.33141051  0.16709813  0.02374133  1
  O2-  O541  1  0.32534805  0.15162705  0.36580821  1
  O2-  O542  1  0.33627387  0.16718248  0.68998257  1
  O2-  O543  1  0.33723204  0.40087866  0.02472411  1
  O2-  O544  1  0.33610117  0.40544892  0.35715202  1
  O2-  O545  1  0.33653411  0.42407311  0.68314944  1
  O2-  O546  1  0.33305911  0.64934572  0.01894126  1
  O2-  O547  1  0.32717865  0.64994504  0.35540438  1
  O2-  O548  1  0.32512655  0.64902789  0.68577670  1
  O2-  O549  1  0.41344663  0.97707082  0.04284031  1
  O2-  O550  1  0.33349932  0.91694232  0.32214399  1
  O2-  O551  1  0.33125751  0.91979277  0.69254794  1
  O2-  O552  1  0.59690148  0.19320646  0.01893821  1
  O2-  O553  1  0.58203191  0.17036993  0.35055692  1
  O2-  O554  1  0.58308386  0.16456628  0.68394028  1
  O2-  O555  1  0.58837213  0.42003171  0.01706121  1
  O2-  O556  1  0.58468245  0.41226476  0.34525330  1
  O2-  O557  1  0.59381305  0.42207994  0.68886296  1
  O2-  O558  1  0.58434695  0.65709734  0.02084335  1
  O2-  O559  1  0.58566157  0.66773824  0.34664624  1
  O2-  O560  1  0.59017992  0.67523242  0.68902448  1
  O2-  O561  1  0.54325658  0.94521788  0.02734002  1
  O2-  O562  1  0.57363589  0.91299371  0.36726122  1
  O2-  O563  1  0.60584357  0.91980906  0.68853945  1
  O2-  O564  1  0.82271026  0.16922986  -0.00423842  1
  O2-  O565  1  0.82747157  0.13776963  0.36774649  1
  O2-  O566  1  0.83710422  0.16911046  0.68342663  1
  O2-  O567  1  0.83433886  0.42302359  0.01404767  1
  O2-  O568  1  0.82029975  0.42821024  0.36173754  1
  O2-  O569  1  0.84729864  0.41296003  0.68046319  1
  O2-  O570  1  0.83235728  0.65637437  0.01940734  1
  O2-  O571  1  0.83221380  0.65411430  0.34503558  1
  O2-  O572  1  0.85829919  0.68765316  0.68692935  1
  O2-  O573  1  0.83090132  0.91716127  0.02296295  1
  O2-  O574  1  0.82485929  0.90749715  0.36285923  1
  O2-  O575  1  0.83951672  0.91925909  0.68666514  1
