# generated using pymatgen
data_H2O
_symmetry_space_group_name_H-M   'P 1'
_cell_length_a   17.95976896
_cell_length_b   17.97358254
_cell_length_c   21.99379682
_cell_angle_alpha   89.98587518
_cell_angle_beta   90.00542222
_cell_angle_gamma   119.92986953
_symmetry_Int_Tables_number   1
_chemical_formula_structural   H2O
_chemical_formula_sum   'H384 O192'
_cell_volume   6152.79856283
_cell_formula_units_Z   192
loop_
 _symmetry_equiv_pos_site_id
 _symmetry_equiv_pos_as_xyz
  1  'x, y, z'
loop_
 _atom_type_symbol
 _atom_type_oxidation_number
  H+  1.0
  O2-  -2.0
loop_
 _atom_site_type_symbol
 _atom_site_label
 _atom_site_symmetry_multiplicity
 _atom_site_fract_x
 _atom_site_fract_y
 _atom_site_fract_z
 _atom_site_occupancy
  H+  H0  1  0.98532345  0.38241665  0.33782987  1
  H+  H1  1  0.52742612  0.88884222  0.02636780  1
  H+  H2  1  0.23997586  0.87921221  0.17108326  1
  H+  H3  1  0.32925955  0.41434061  0.73816427  1
  H+  H4  1  0.36714667  0.72614356  0.82140532  1
  H+  H5  1  0.92294007  0.58219284  0.60188234  1
  H+  H6  1  0.79342529  0.68825787  0.31227052  1
  H+  H7  1  0.02680198  0.88601284  0.15842050  1
  H+  H8  1  0.37998986  0.51593399  0.66508888  1
  H+  H9  1  0.62865277  0.11140373  -0.00186583  1
  H+  H10  1  0.75140281  0.85045444  0.83984637  1
  H+  H11  1  0.34563115  -0.06357068  0.48746650  1
  H+  H12  1  0.39128841  0.88548118  0.63769972  1
  H+  H13  1  0.73024074  0.37237679  0.98286582  1
  H+  H14  1  0.47214929  0.14361300  0.89578445  1
  H+  H15  1  0.36758769  0.48355090  0.82555084  1
  H+  H16  1  0.14485390  0.62630810  -0.00465965  1
  H+  H17  1  0.16953204  0.86226401  0.79116137  1
  H+  H18  1  0.31798026  0.40253158  0.46897978  1
  H+  H19  1  0.64899553  0.26696016  0.83741477  1
  H+  H20  1  1.01191893  0.40300831  0.81960487  1
  H+  H21  1  0.14950238  0.38745952  0.99978148  1
  H+  H22  1  0.11853328  0.86124111  0.49313119  1
  H+  H23  1  0.86262277  0.63751544  0.49703117  1
  H+  H24  1  0.80799544  -0.05682457  1.01366877  1
  H+  H25  1  0.54141489  0.90892506  0.17215451  1
  H+  H26  1  0.38317517  0.89719294  0.83753951  1
  H+  H27  1  0.16544643  1.05555112  0.86688026  1
  H+  H28  1  0.74015834  0.12621096  0.16661717  1
  H+  H29  1  0.17765413  0.60154067  0.23702438  1
  H+  H30  1  0.58706838  0.66686442  0.39135054  1
  H+  H31  1  0.29074656  0.41360874  0.01043462  1
  H+  H32  1  0.54088413  0.73866796  0.59847507  1
  H+  H33  1  0.29418092  0.14954495  0.83395129  1
  H+  H34  1  0.40575774  0.13410564  0.84295398  1
  H+  H35  1  0.59996160  0.70148306  0.67199848  1
  H+  H36  1  0.24761016  0.86451954  0.47823361  1
  H+  H37  1  0.85682105  0.35892257  0.50739179  1
  H+  H38  1  0.41236438  0.41970051  0.15748001  1
  H+  H39  1  0.76125533  0.61308911  0.66372686  1
  H+  H40  1  0.28010780  0.96706573  0.33352392  1
  H+  H41  1  0.86066201  0.39143474  1.00241350  1
  H+  H42  1  0.87303061  0.14931280  0.34121235  1
  H+  H43  1  0.13540367  0.65723541  0.16513686  1
  H+  H44  1  0.62308662  0.74510680  0.85512151  1
  H+  H45  1  0.61017433  0.88850598  0.33708761  1
  H+  H46  1  0.85982523  0.63130051  0.16090912  1
  H+  H47  1  0.96694966  0.10301180  0.32182327  1
  H+  H48  1  0.86154981  0.48637321  0.34362621  1
  H+  H49  1  0.92577270  0.81204664  0.84992383  1
  H+  H50  1  0.77368112  0.75329309  0.60806788  1
  H+  H51  1  0.61506977  0.48066125  0.14880467  1
  H+  H52  1  0.98338604  0.91790807  0.70798548  1
  H+  H53  1  0.88216111  0.76858248  0.49876977  1
  H+  H54  1  0.91985816  0.07534790  0.86125914  1
  H+  H55  1  0.63700279  0.10749556  0.65183466  1
  H+  H56  1  0.08417905  0.19897334  0.18856857  1
  H+  H57  1  0.38511682  0.87854571  1.01540975  1
  H+  H58  1  0.64012999  0.23265268  0.14973304  1
  H+  H59  1  0.65346275  0.38793151  0.33007052  1
  H+  H60  1  1.02224042  0.17526829  0.87564644  1
  H+  H61  1  0.61204989  0.64542304  0.32257286  1
  H+  H62  1  0.41746338  0.07221330  0.60480888  1
  H+  H63  1  0.10544983  0.63686075  0.49464952  1
  H+  H64  1  0.48616844  0.36903459  0.17185085  1
  H+  H65  1  0.75235662  0.85549889  0.18117729  1
  H+  H66  1  0.36232265  0.66573604  0.50562533  1
  H+  H67  1  0.63936453  0.37128365  -0.01994656  1
  H+  H68  1  0.63847501  0.64067609  1.01531055  1
  H+  H69  1  0.36889790  0.74131873  0.00927365  1
  H+  H70  1  0.41812972  0.29777275  0.32695815  1
  H+  H71  1  0.63701866  0.01835812  0.64700141  1
  H+  H72  1  0.97076386  0.60663159  0.50700478  1
  H+  H73  1  0.85696892  -0.02770651  0.16379042  1
  H+  H74  1  0.03596340  0.29191993  0.22532245  1
  H+  H75  1  0.86753411  0.88966059  0.48908516  1
  H+  H76  1  0.72589330  0.86637531  0.32926255  1
  H+  H77  1  -0.04028850  0.88094793  0.72947678  1
  H+  H78  1  0.36682392  0.39340347  0.82516694  1
  H+  H79  1  0.82550679  0.07713452  0.99918295  1
  H+  H80  1  0.54544618  0.40810162  0.33305719  1
  H+  H81  1  0.25919837  0.08001911  0.32613486  1
  H+  H82  1  0.86747830  0.97988676  0.49103862  1
  H+  H83  1  0.67031549  0.37718870  0.61304126  1
  H+  H84  1  0.24214530  0.43775899  0.18818823  1
  H+  H85  1  0.52234785  0.38738809  0.80806156  1
  H+  H86  1  0.13728259  0.02211170  0.50264259  1
  H+  H87  1  0.64640744  0.63483703  0.15562558  1
  H+  H88  1  0.27796199  0.14008153  0.67263864  1
  H+  H89  1  0.86930630  0.73664305  1.00610215  1
  H+  H90  1  0.75940004  0.39007855  0.50946487  1
  H+  H91  1  0.40995619  0.47063523  0.44506874  1
  H+  H92  1  -0.02532125  0.37208413  -0.00829982  1
  H+  H93  1  0.39869481  0.64008263  0.32995632  1
  H+  H94  1  0.58429893  0.82451260  0.63576272  1
  H+  H95  1  0.14659195  0.87399738  0.16328097  1
  H+  H96  1  0.35293458  0.14781835  0.01126135  1
  H+  H97  1  0.01990505  0.16251879  0.84260965  1
  H+  H98  1  0.84437351  0.87647559  0.01727933  1
  H+  H99  1  0.81708167  0.86112279  0.67200566  1
  H+  H100  1  0.85240546  0.87234008  0.33693109  1
  H+  H101  1  0.77894044  0.64962546  0.01134821  1
  H+  H102  1  0.66866851  0.08441117  0.91193562  1
  H+  H103  1  0.10104411  0.49266761  0.81794293  1
  H+  H104  1  0.85152886  0.50797904  0.17595638  1
  H+  H105  1  0.37660587  0.26715058  0.66777319  1
  H+  H106  1  0.26472375  0.38006000  0.67968363  1
  H+  H107  1  0.02127671  0.12601431  0.67437081  1
  H+  H108  1  0.64733026  0.76165064  0.17433785  1
  H+  H109  1  1.02899780  0.64644207  1.01341758  1
  H+  H110  1  0.38509025  0.87656970  0.32670264  1
  H+  H111  1  0.13208732  0.51873286  0.65968034  1
  H+  H112  1  0.60632502  0.87134124  0.02521428  1
  H+  H113  1  0.17542828  0.34276029  0.90407993  1
  H+  H114  1  0.41805945  0.55262087  0.17448384  1
  H+  H115  1  0.27257749  0.63369385  0.67521522  1
  H+  H116  1  -0.02251349  0.87617960  0.00343318  1
  H+  H117  1  0.42819870  0.61029388  0.26528638  1
  H+  H118  1  0.52033855  0.89109242  0.34266287  1
  H+  H119  1  0.14460014  0.75222862  0.66722349  1
  H+  H120  1  0.37612757  0.90304339  0.17063198  1
  H+  H121  1  0.13606583  0.42898899  0.14657200  1
  H+  H122  1  0.66381303  0.14909270  0.32252447  1
  H+  H123  1  0.28023177  0.64779854  0.34244596  1
  H+  H124  1  0.73554455  0.36802531  0.83531523  1
  H+  H125  1  0.09128448  0.43917409  0.40925554  1
  H+  H126  1  0.39597548  0.38165259  -0.01177119  1
  H+  H127  1  0.14482321  0.54738628  0.17481507  1
  H+  H128  1  0.54270104  0.15205908  0.15775354  1
  H+  H129  1  0.60328128  0.62127637  0.83168660  1
  H+  H130  1  0.59837762  0.40635656  0.71532012  1
  H+  H131  1  0.61410204  0.22733944  -0.00294090  1
  H+  H132  1  0.39334146  0.28545935  0.17901163  1
  H+  H133  1  0.49139710  0.86005559  0.84966818  1
  H+  H134  1  0.40888802  0.04812572  0.32369130  1
  H+  H135  1  0.21981033  0.83996334  0.31901202  1
  H+  H136  1  0.15011089  0.05507440  1.00253090  1
  H+  H137  1  0.67944083  0.82368055  0.24400333  1
  H+  H138  1  0.39635809  0.63102741  0.17437061  1
  H+  H139  1  0.15067928  0.53170978  0.32886354  1
  H+  H140  1  0.53090154  0.13375294  0.67311304  1
  H+  H141  1  0.73444865  0.62775790  0.15749234  1
  H+  H142  1  0.86884138  0.48422254  0.67508908  1
  H+  H143  1  0.07008316  0.92082031  0.43179093  1
  H+  H144  1  0.63888219  0.50798444  0.64528528  1
  H+  H145  1  0.84325972  0.18004630  0.10414622  1
  H+  H146  1  0.51647319  0.62726789  0.82758379  1
  H+  H147  1  0.39444152  0.28265891  0.83525700  1
  H+  H148  1  0.81789695  0.41501382  0.05762395  1
  H+  H149  1  0.10689957  0.12511677  0.49266142  1
  H+  H150  1  0.36954058  0.36081826  0.67046453  1
  H+  H151  1  0.84233828  0.17527492  0.43362143  1
  H+  H152  1  0.10468567  0.70553245  0.33447817  1
  H+  H153  1  0.97584282  0.11612352  0.50903562  1
  H+  H154  1  0.66407403  0.59337180  1.06381309  1
  H+  H155  1  0.11844842  0.39802310  0.35588654  1
  H+  H156  1  0.88122373  0.27519330  0.83859046  1
  H+  H157  1  0.13016212  0.90887157  0.86465777  1
  H+  H158  1  0.18110454  0.14958240  0.84405462  1
  H+  H159  1  0.76910792  0.14771305  0.01471387  1
  H+  H160  1  0.16095473  0.25200234  0.82113742  1
  H+  H161  1  0.64677647  0.12391519  0.16295651  1
  H+  H162  1  0.38671763  0.61654511  0.83562759  1
  H+  H163  1  0.51143934  0.89461361  0.63809942  1
  H+  H164  1  0.11961617  0.64373678  0.83225646  1
  H+  H165  1  0.87409781  0.36196320  0.65984445  1
  H+  H166  1  0.28760904  0.14296221  0.16856191  1
  H+  H167  1  0.83539325  0.69147637  0.81422822  1
  H+  H168  1  0.36085435  0.63316235  0.67687443  1
  H+  H169  1  0.38459317  0.98715655  0.83774350  1
  H+  H170  1  0.49865519  0.63898121  0.32753613  1
  H+  H171  1  0.13992067  0.61347397  0.32846056  1
  H+  H172  1  0.09845380  0.93677749  -0.04112099  1
  H+  H173  1  0.33977180  0.68381076  0.40210104  1
  H+  H174  1  0.27938790  0.16799566  1.02025067  1
  H+  H175  1  0.86418094  0.13658051  0.16097292  1
  H+  H176  1  0.37222287  0.65437486  0.00575113  1
  H+  H177  1  0.86188152  0.48170760  0.82933437  1
  H+  H178  1  0.12028774  0.16096576  0.02029878  1
  H+  H179  1  0.63257458  0.51279947  0.49604816  1
  H+  H180  1  0.87666618  0.36182284  0.83941992  1
  H+  H181  1  0.83816256  -0.01202236  0.84174778  1
  H+  H182  1  0.48711813  0.36461150  0.52408228  1
  H+  H183  1  0.35506420  0.96516791  0.02278722  1
  H+  H184  1  0.16689174  0.59550310  0.57350077  1
  H+  H185  1  0.88698165  0.87437683  0.84564236  1
  H+  H186  1  0.12083521  0.41125681  0.49934582  1
  H+  H187  1  0.88172096  0.10980398  0.66352514  1
  H+  H188  1  0.11239072  -0.04595805  0.33965054  1
  H+  H189  1  0.61316640  0.48194418  0.00459155  1
  H+  H190  1  0.73473294  0.86570161  0.49648161  1
  H+  H191  1  0.11913675  0.73305594  0.82781561  1
  H+  H192  1  0.47309273  0.05135358  0.50953786  1
  H+  H193  1  0.38389071  0.78704976  0.33150884  1
  H+  H194  1  0.24921284  0.86846101  1.01685036  1
  H+  H195  1  0.62629400  0.13444097  0.83184072  1
  H+  H196  1  0.12204422  0.49979334  0.50085971  1
  H+  H197  1  0.34162079  0.92258345  0.10889608  1
  H+  H198  1  0.43199439  0.84800506  0.23696130  1
  H+  H199  1  0.62478657  0.37947964  0.51003204  1
  H+  H200  1  0.63862270  0.02595628  1.00440266  1
  H+  H201  1  0.23071773  0.62000006  0.83767221  1
  H+  H202  1  0.62592022  -0.02125228  0.48409494  1
  H+  H203  1  0.88822387  0.61076212  0.65898635  1
  H+  H204  1  0.40713954  1.04087865  0.17348210  1
  H+  H205  1  0.39047140  0.16255857  0.34154746  1
  H+  H206  1  0.23135266  0.37612836  0.84461155  1
  H+  H207  1  0.12614318  0.35867363  0.66655117  1
  H+  H208  1  0.03557842  0.16774069  0.02206009  1
  H+  H209  1  1.01822074  0.88869541  0.49442690  1
  H+  H210  1  0.41281623  0.38894674  0.52148434  1
  H+  H211  1  0.23402882  0.62637673  -0.00535640  1
  H+  H212  1  0.83386220  0.74142398  0.65325768  1
  H+  H213  1  0.88088736  0.51885406  0.51308246  1
  H+  H214  1  0.77428473  0.63595817  0.48850247  1
  H+  H215  1  0.13652605  0.75391658  0.15833860  1
  H+  H216  1  0.47257869  0.59940438  0.66795184  1
  H+  H217  1  0.88982253  0.77208474  0.16977539  1
  H+  H218  1  0.86646462  0.26503145  0.50606072  1
  H+  H219  1  0.39214549  0.29048642  0.99302912  1
  H+  H220  1  0.62340623  0.72376086  0.47389092  1
  H+  H221  1  0.61106544  0.11528859  0.48458977  1
  H+  H222  1  0.40836846  0.13082402  0.17301239  1
  H+  H223  1  0.49022864  0.64472805  0.99186950  1
  H+  H224  1  0.28354820  0.88057708  0.68434439  1
  H+  H225  1  0.22810562  0.63586314  0.51455870  1
  H+  H226  1  0.58851304  0.69839224  0.08848236  1
  H+  H227  1  0.04068800  0.40167040  0.16508357  1
  H+  H228  1  0.04650912  0.92029828  0.86716031  1
  H+  H229  1  0.84137532  0.12564139  0.82335526  1
  H+  H230  1  0.90345441  0.80968074  0.26268494  1
  H+  H231  1  0.26318232  0.16086437  0.48467399  1
  H+  H232  1  0.14835172  0.10800916  0.19173280  1
  H+  H233  1  0.01264568  0.87972903  0.34054317  1
  H+  H234  1  0.77068092  0.13438640  0.66729212  1
  H+  H235  1  0.40882805  0.79268155  0.17555794  1
  H+  H236  1  0.24488496  0.87725462  0.83383077  1
  H+  H237  1  0.28683445  0.65716353  0.16313032  1
  H+  H238  1  0.63445009  0.77875438  0.32763805  1
  H+  H239  1  0.09535055  0.71953483  0.48592595  1
  H+  H240  1  0.02157835  0.63457647  0.67885668  1
  H+  H241  1  0.71701328  0.59174018  0.84395750  1
  H+  H242  1  0.63034097  0.59276913  0.65467072  1
  H+  H243  1  0.64496050  0.01998928  0.85602757  1
  H+  H244  1  0.63743452  1.01342250  0.16658297  1
  H+  H245  1  0.64737509  0.28925015  0.33411229  1
  H+  H246  1  0.86763384  0.14376440  0.49575517  1
  H+  H247  1  0.86167799  0.23168843  0.00805807  1
  H+  H248  1  0.35265212  0.24948980  0.49314806  1
  H+  H249  1  0.36991981  0.14536047  0.67107337  1
  H+  H250  1  0.34588258  0.18250185  0.10911841  1
  H+  H251  1  0.87588201  0.01815046  0.66442562  1
  H+  H252  1  0.98054368  0.61927170  0.84246953  1
  H+  H253  1  0.89422209  0.62193310  0.99405147  1
  H+  H254  1  0.38539956  0.55424938  0.51307234  1
  H+  H255  1  0.11976473  0.21572121  0.47561466  1
  H+  H256  1  0.14908821  0.02391420  0.17422797  1
  H+  H257  1  0.89191454  0.62969771  0.32156902  1
  H+  H258  1  0.87387272  0.27166750  0.65860563  1
  H+  H259  1  0.13241951  0.60741474  0.66805741  1
  H+  H260  1  0.61843691  0.63185078  0.47491327  1
  H+  H261  1  0.11521304  0.49145157  1.00090381  1
  H+  H262  1  0.69548830  0.81353099  1.01614008  1
  H+  H263  1  0.74701881  0.88780090  0.68114453  1
  H+  H264  1  0.15286145  0.30159585  1.00903249  1
  H+  H265  1  0.52540141  0.39336912  -0.00540965  1
  H+  H266  1  0.65534919  0.30092405  0.54434829  1
  H+  H267  1  0.13969233  0.10502386  0.65864529  1
  H+  H268  1  0.10831267  0.21509819  0.67080829  1
  H+  H269  1  0.14148788  0.87948893  0.63996659  1
  H+  H270  1  0.89190931  0.86252721  0.17379223  1
  H+  H271  1  0.21235021  0.31348047  0.40531311  1
  H+  H272  1  0.62616985  0.88645431  0.48054137  1
  H+  H273  1  0.85625384  0.61647643  0.82604077  1
  H+  H274  1  0.23170875  0.40090467  0.16656770  1
  H+  H275  1  0.91586846  0.27211925  0.18577605  1
  H+  H276  1  0.05413698  0.87810497  0.63163544  1
  H+  H277  1  0.62212784  0.86805877  0.85635043  1
  H+  H278  1  0.27471382  1.00543882  -0.03003652  1
  H+  H279  1  0.57622124  0.18039330  0.49373699  1
  H+  H280  1  0.34469353  0.80885762  0.48236608  1
  H+  H281  1  0.38760746  0.02812004  0.66804173  1
  H+  H282  1  0.97025963  0.61123972  0.32576274  1
  H+  H283  1  0.40455474  0.55087490  0.99235807  1
  H+  H284  1  0.64834227  0.79173763  0.92162214  1
  H+  H285  1  0.01759444  0.38378929  0.66594926  1
  H+  H286  1  0.53177791  0.66414514  0.15468400  1
  H+  H287  1  0.86774595  0.39910861  0.34314751  1
  H+  H288  1  0.35133171  0.92030845  0.73915148  1
  H+  H289  1  0.36533817  0.44695298  0.06203246  1
  H+  H290  1  0.18787979  0.83674308  0.95449397  1
  H+  H291  1  0.40107683  0.59694241  0.57743821  1
  H+  H292  1  0.89640468  0.57050258  0.23172664  1
  H+  H293  1  0.82528952  0.16635359  0.72931914  1
  H+  H294  1  0.66922700  0.07765935  0.55742202  1
  H+  H295  1  0.31162229  0.92932481  0.38887044  1
  H+  H296  1  0.54159334  0.14089254  0.82351672  1
  H+  H297  1  0.16244385  0.81564805  0.26032418  1
  H+  H298  1  0.59970618  0.93047740  0.10999678  1
  H+  H299  1  0.54514851  0.89445630  0.70396873  1
  H+  H300  1  0.58835905  0.91733247  0.41416859  1
  H+  H301  1  0.74710519  0.38252844  0.33498329  1
  H+  H302  1  0.59425470  0.17692346  0.39491194  1
  H+  H303  1  0.84553810  0.67102194  0.09860266  1
  H+  H304  1  0.83393825  0.91280428  0.39573531  1
  H+  H305  1  0.67044534  0.60217923  0.24837037  1
  H+  H306  1  0.94510486  0.33428294  0.24577900  1
  H+  H307  1  0.55595366  0.35304368  0.45272273  1
  H+  H308  1  0.08128727  0.43613526  0.06116791  1
  H+  H309  1  0.41977750  0.59482456  0.89766525  1
  H+  H310  1  0.07126650  0.64955036  0.39603421  1
  H+  H311  1  0.61820172  0.91068639  0.79521499  1
  H+  H312  1  0.41924836  0.81722979  0.90045380  1
  H+  H313  1  0.18470858  0.12173415  0.94706524  1
  H+  H314  1  0.25765860  0.27130460  0.44490694  1
  H+  H315  1  0.12766194  0.18373328  0.76516380  1
  H+  H316  1  0.82063973  0.90576319  0.10545088  1
  H+  H317  1  0.90139492  0.07193419  0.23278960  1
  H+  H318  1  0.65752455  0.56177503  0.90268036  1
  H+  H319  1  0.91436222  0.08375734  0.56780933  1
  H+  H320  1  0.91228762  0.33728755  0.93389648  1
  H+  H321  1  0.81518742  0.63861415  0.72597698  1
  H+  H322  1  0.87579384  0.01957746  0.32335608  1
  H+  H323  1  0.65789646  0.82189643  0.54744151  1
  H+  H324  1  0.89274950  0.53227067  0.99485056  1
  H+  H325  1  0.41481569  0.33879613  0.60851539  1
  H+  H326  1  0.12899056  0.30273700  0.30437523  1
  H+  H327  1  0.69294942  0.11590926  0.26557163  1
  H+  H328  1  0.08154103  0.92809296  0.09835098  1
  H+  H329  1  0.91956715  0.85353053  0.94487920  1
  H+  H330  1  0.76459970  0.14139323  0.82688925  1
  H+  H331  1  0.47823848  0.49635383  0.11819733  1
  H+  H332  1  0.58434481  0.17231102  0.05710423  1
  H+  H333  1  0.59807038  0.16122959  0.72736094  1
  H+  H334  1  0.33245185  0.66506799  0.76229910  1
  H+  H335  1  0.34360142  0.68260924  0.10243236  1
  H+  H336  1  -0.03571832  0.09500822  0.17589316  1
  H+  H337  1  0.81812371  0.41288227  0.44402145  1
  H+  H338  1  0.80108669  0.88476514  0.77444661  1
  H+  H339  1  0.20895953  0.03329253  0.26773478  1
  H+  H340  1  0.54265984  0.16032710  0.33299823  1
  H+  H341  1  0.07980625  0.66303942  0.74079980  1
  H+  H342  1  0.42328109  0.34460086  0.89302979  1
  H+  H343  1  0.65851121  0.57322915  0.55356654  1
  H+  H344  1  0.17183695  0.08426058  0.56138668  1
  H+  H345  1  0.89126677  0.32574666  0.57097218  1
  H+  H346  1  0.44240313  0.10604179  0.26378448  1
  H+  H347  1  0.43747916  -0.02604271  0.55763080  1
  H+  H348  1  0.92179980  0.58965618  0.90251917  1
  H+  H349  1  0.14498753  0.83188692  0.55257320  1
  H+  H350  1  0.44511149  0.35644085  0.26828689  1
  H+  H351  1  0.21308607  0.78958371  0.61434081  1
  H+  H352  1  0.45448101  0.90251361  0.96121374  1
  H+  H353  1  0.34403262  0.17052383  0.76897520  1
  H+  H354  1  0.61188958  0.45334170  0.38953358  1
  H+  H355  1  0.83248423  0.42558213  0.76721357  1
  H+  H356  1  0.12154054  0.91023183  0.74388929  1
  H+  H357  1  0.39942090  0.83531327  0.57788933  1
  H+  H358  1  0.15292833  0.02306674  0.64494812  1
  H+  H359  1  0.79028483  0.16039655  0.34038285  1
  H+  H360  1  0.89914446  0.29094218  0.33633434  1
  H+  H361  1  0.17371893  0.59364316  0.89887046  1
  H+  H362  1  0.11462314  0.17842145  0.33565878  1
  H+  H363  1  0.16154102  0.33371189  0.60900336  1
  H+  H364  1  0.09753666  0.67955303  0.09967041  1
  H+  H365  1  0.67211685  0.33401483  0.90069238  1
  H+  H366  1  0.08355240  0.16590114  0.12111682  1
  H+  H367  1  0.34250164  0.18985264  0.39229658  1
  H+  H368  1  0.11998878  0.73689319  0.01639524  1
  H+  H369  1  0.65472908  0.55144087  0.31073682  1
  H+  H370  1  0.58377703  0.65116370  0.73580849  1
  H+  H371  1  0.13630939  0.33097884  0.21658656  1
  H+  H372  1  0.89695865  0.82341323  0.55867623  1
  H+  H373  1  0.82535557  0.03075132  0.93752990  1
  H+  H374  1  0.61243591  0.46970339  0.80834274  1
  H+  H375  1  0.13015910  0.89965383  0.00973923  1
  H+  H376  1  0.07143006  0.42072588  0.72753005  1
  H+  H377  1  0.06538767  0.13668337  0.39675391  1
  H+  H378  1  0.77288429  0.40663266  0.68105001  1
  H+  H379  1  0.36028304  0.05762349  0.93279625  1
  H+  H380  1  0.58235992  0.41523944  0.09328853  1
  H+  H381  1  0.14968157  0.95829469  0.74667821  1
  H+  H382  1  0.27571147  0.44168142  0.32758437  1
  H+  H383  1  0.73140026  0.11102098  0.49857096  1
  O2-  O384  1  0.07397912  0.14783065  0.16444306  1
  O2-  O385  1  0.07551985  0.15436460  0.47627311  1
  O2-  O386  1  0.16815157  0.20662253  0.79949327  1
  O2-  O387  1  0.09275207  0.44647453  0.14236271  1
  O2-  O388  1  0.09169914  0.44032719  0.48320664  1
  O2-  O389  1  0.06121301  0.44177386  0.79376407  1
  O2-  O390  1  0.10603270  0.68844418  0.14618840  1
  O2-  O391  1  0.06925975  0.65772967  0.47448052  1
  O2-  O392  1  0.08539327  0.67137118  0.81737692  1
  O2-  O393  1  0.08682173  0.92038909  0.14188657  1
  O2-  O394  1  0.07790883  0.91878604  0.47773514  1
  O2-  O395  1  0.10628431  0.94363316  0.88201617  1
  O2-  O396  1  0.34834564  0.17852104  0.15429424  1
  O2-  O397  1  0.30946939  0.21190767  0.46278775  1
  O2-  O398  1  0.35237220  0.17438492  0.81399280  1
  O2-  O399  1  0.41957385  0.47156232  0.13370281  1
  O2-  O400  1  0.37604294  0.45040482  0.48229162  1
  O2-  O401  1  0.33619560  0.42348896  0.80963444  1
  O2-  O402  1  0.34713524  0.68465301  0.14800447  1
  O2-  O403  1  0.33099144  0.69306831  0.48335973  1
  O2-  O404  1  0.33383546  0.66537669  0.80900127  1
  O2-  O405  1  0.34472253  0.93164416  0.15529217  1
  O2-  O406  1  0.30673061  0.88626316  0.46147410  1
  O2-  O407  1  0.35328352  0.92782351  0.82220036  1
  O2-  O408  1  0.59991629  0.17255360  0.13756122  1
  O2-  O409  1  0.56815243  0.13196884  0.46900055  1
  O2-  O410  1  0.60308403  0.16974154  0.81251382  1
  O2-  O411  1  0.57870940  0.41958842  0.13788053  1
  O2-  O412  1  0.58029459  0.39529428  0.48532140  1
  O2-  O413  1  0.57962405  0.41359966  0.78836825  1
  O2-  O414  1  0.59068376  0.69082521  0.13701663  1
  O2-  O415  1  0.59297521  0.66505007  0.45653791  1
  O2-  O416  1  0.57888291  0.65585924  0.81442287  1
  O2-  O417  1  0.60256287  0.94151158  0.15582987  1
  O2-  O418  1  0.59517879  0.91816715  0.46711556  1
  O2-  O419  1  0.60150738  0.90658620  0.83778386  1
  O2-  O420  1  0.84221071  0.17628118  0.14987693  1
  O2-  O421  1  0.83580483  0.17247385  0.47961375  1
  O2-  O422  1  0.82273819  0.16594211  0.80810228  1
  O2-  O423  1  0.77969479  0.39965086  0.13759881  1
  O2-  O424  1  0.82143175  0.41056809  0.48882624  1
  O2-  O425  1  0.82828169  0.42189971  0.81313527  1
  O2-  O426  1  0.83857154  0.67037345  0.14354686  1
  O2-  O427  1  0.83652601  0.67023478  0.47976571  1
  O2-  O428  1  0.81324476  0.63072216  0.80657387  1
  O2-  O429  1  0.83128139  0.90992986  0.15102203  1
  O2-  O430  1  0.83688026  0.92031633  0.47431244  1
  O2-  O431  1  0.80859555  0.88691777  0.81950731  1
  O2-  O432  1  0.18308990  0.07933758  0.19602846  1
  O2-  O433  1  0.16738567  0.08384217  0.51617750  1
  O2-  O434  1  0.20231457  0.11824783  0.87277274  1
  O2-  O435  1  0.08541725  0.28070574  0.23311439  1
  O2-  O436  1  0.23127701  0.30891888  0.44671485  1
  O2-  O437  1  0.17201900  0.33810532  0.85938729  1
  O2-  O438  1  0.17847173  0.60714784  0.19120105  1
  O2-  O439  1  0.16717308  0.60023424  0.52782290  1
  O2-  O440  1  0.17064905  0.59485130  0.85361922  1
  O2-  O441  1  0.17601710  0.84301826  0.17896108  1
  O2-  O442  1  0.14569793  0.82617071  0.50842923  1
  O2-  O443  1  0.18058979  0.85118977  0.83284383  1
  O2-  O444  1  0.44147116  0.10236238  0.18664555  1
  O2-  O445  1  0.42325502  0.01355347  0.53560738  1
  O2-  O446  1  0.43495279  0.10447680  0.86411938  1
  O2-  O447  1  0.42775424  0.34707944  0.19127072  1
  O2-  O448  1  0.42742526  0.34653833  0.53917899  1
  O2-  O449  1  0.42195624  0.34404188  0.84761920  1
  O2-  O450  1  0.43286726  0.60922241  0.19332633  1
  O2-  O451  1  0.39929849  0.60857024  0.53334705  1
  O2-  O452  1  0.41801925  0.58764943  0.85246177  1
  O2-  O453  1  0.43999089  0.85250052  0.19190648  1
  O2-  O454  1  0.37628010  0.78339785  0.50344184  1
  O2-  O455  1  0.42833428  0.83459407  0.85758589  1
  O2-  O456  1  0.67760647  0.09370990  0.18037561  1
  O2-  O457  1  0.66942529  0.07615671  0.51148422  1
  O2-  O458  1  0.66829394  0.08137122  0.86593568  1
  O2-  O459  1  0.74792551  0.32779077  0.16609536  1
  O2-  O460  1  0.68093916  0.36291125  0.54101717  1
  O2-  O461  1  0.67433420  0.32874329  0.85234718  1
  O2-  O462  1  0.67038137  0.59691494  0.16564292  1
  O2-  O463  1  0.65979045  0.57375942  0.50815770  1
  O2-  O464  1  0.65705682  0.56941716  0.85883760  1
  O2-  O465  1  0.69475653  0.80947789  0.20243539  1
  O2-  O466  1  0.67048453  0.83238595  0.50338813  1
  O2-  O467  1  0.65541183  0.80248348  0.87658572  1
  O2-  O468  1  0.90216076  0.07046911  0.18673892  1
  O2-  O469  1  0.91440787  0.08661556  0.52248172  1
  O2-  O470  1  0.85699800  0.04609615  0.85953483  1
  O2-  O471  1  0.96581022  0.32070694  0.20708235  1
  O2-  O472  1  0.88782065  0.32509531  0.52400035  1
  O2-  O473  1  0.90850910  0.33413337  0.85589749  1
  O2-  O474  1  0.89097379  0.56833855  0.18679953  1
  O2-  O475  1  0.91302364  0.57946311  0.52740809  1
  O2-  O476  1  0.91936555  0.58740570  0.85680152  1
  O2-  O477  1  0.92211629  0.83162040  0.18766597  1
  O2-  O478  1  0.91051789  0.83041887  0.51490202  1
  O2-  O479  1  0.93297594  0.86573327  0.86586354  1
  O2-  O480  1  0.22228526  0.02144222  0.30898490  1
  O2-  O481  1  0.17973356  0.08651088  0.64172912  1
  O2-  O482  1  0.17595861  0.11680536  0.99273733  1
  O2-  O483  1  0.16839615  0.33689934  0.33895262  1
  O2-  O484  1  0.15915452  0.32891059  0.65315906  1
  O2-  O485  1  0.18435858  0.35951221  0.99051748  1
  O2-  O486  1  0.17926178  0.59227615  0.31316922  1
  O2-  O487  1  0.16394727  0.58118319  0.64854082  1
  O2-  O488  1  0.17398579  0.59616368  0.97830931  1
  O2-  O489  1  0.16222414  0.79971251  0.30325098  1
  O2-  O490  1  0.18808980  0.80841033  0.64602421  1
  O2-  O491  1  0.18293734  0.84224093  0.99827553  1
  O2-  O492  1  0.44456685  0.10837017  0.30955551  1
  O2-  O493  1  0.41650773  0.08576706  0.64843759  1
  O2-  O494  1  0.33499717  0.04955049  0.97377547  1
  O2-  O495  1  0.45378107  0.35823626  0.31336783  1
  O2-  O496  1  0.40353005  0.33107935  0.65489852  1
  O2-  O497  1  0.42268734  0.34790628  0.97272504  1
  O2-  O498  1  0.43065877  0.61155361  0.31199848  1
  O2-  O499  1  0.41291385  0.57745329  0.65280687  1
  O2-  O500  1  0.42890530  0.61056678  0.97628684  1
  O2-  O501  1  0.41691587  0.84723220  0.31548162  1
  O2-  O502  1  0.42954916  0.88660334  0.60440199  1
  O2-  O503  1  0.42939256  0.86006133  0.99364166  1
  O2-  O504  1  0.69749637  0.12168666  0.31006324  1
  O2-  O505  1  0.66910568  0.07902019  0.63374009  1
  O2-  O506  1  0.66450649  0.08417145  0.98664263  1
  O2-  O507  1  0.68207632  0.35231255  0.31944984  1
  O2-  O508  1  0.66703072  0.37800422  0.65942550  1
  O2-  O509  1  0.67043354  0.34117333  0.96499205  1
  O2-  O510  1  0.67405119  0.60941398  0.29341467  1
  O2-  O511  1  0.66362482  0.57005170  0.63295880  1
  O2-  O512  1  0.66544606  0.60246921  1.01969319  1
  O2-  O513  1  0.66556917  0.83930330  0.31201550  1
  O2-  O514  1  0.59563692  0.78015331  0.61718968  1
  O2-  O515  1  0.63511419  0.78771558  0.99961340  1
  O2-  O516  1  0.90582437  0.07943359  0.30773323  1
  O2-  O517  1  0.91020284  0.07731498  0.64876291  1
  O2-  O518  1  0.80703998  0.02037047  0.98059292  1
  O2-  O519  1  0.92594706  0.35121242  0.32018850  1
  O2-  O520  1  0.90149140  0.33098355  0.64070953  1
  O2-  O521  1  0.91289426  0.33914078  0.97949221  1
  O2-  O522  1  0.90836754  0.58582746  0.31313329  1
  O2-  O523  1  0.92349991  0.58385224  0.64793190  1
  O2-  O524  1  0.92698285  0.59319805  0.98066483  1
  O2-  O525  1  0.89615136  0.80560474  0.30856129  1
  O2-  O526  1  0.82738461  0.78668552  0.63043807  1
  O2-  O527  1  0.91688598  0.84570864  0.98977205  1
  O2-  O528  1  0.09269934  0.19191489  0.03990290  1
  O2-  O529  1  0.06170461  0.13127034  0.35161290  1
  O2-  O530  1  0.08343901  0.15475330  0.68468493  1
  O2-  O531  1  0.08297755  0.43085710  0.01636780  1
  O2-  O532  1  0.09101982  0.43341221  0.36335793  1
  O2-  O533  1  0.07704969  0.41191007  0.68191813  1
  O2-  O534  1  0.08921051  0.67505629  0.02995008  1
  O2-  O535  1  0.07133599  0.64508647  0.35064265  1
  O2-  O536  1  0.08203807  0.66249232  0.69519117  1
  O2-  O537  1  0.09965475  0.93337852  0.00449051  1
  O2-  O538  1  0.05786556  0.92932417  0.36253901  1
  O2-  O539  1  0.11567729  0.91330937  0.62478297  1
  O2-  O540  1  0.34155001  0.19131232  0.03004786  1
  O2-  O541  1  0.34986852  0.18414245  0.34803055  1
  O2-  O542  1  0.33886977  0.17408767  0.68829668  1
  O2-  O543  1  0.35449225  0.44359320  0.01750991  1
  O2-  O544  1  0.24782602  0.38941402  0.30288955  1
  O2-  O545  1  0.32663066  0.40894401  0.69168056  1
  O2-  O546  1  0.33894399  0.68104698  0.02319942  1
  O2-  O547  1  0.34183805  0.68153548  0.35681155  1
  O2-  O548  1  0.33246825  0.66550944  0.69086056  1
  O2-  O549  1  0.33178123  0.90656643  0.03857189  1
  O2-  O550  1  0.31870106  0.94390326  0.34448510  1
  O2-  O551  1  0.34514720  0.91974054  0.69424353  1
  O2-  O552  1  0.58162978  0.16767859  0.01203415  1
  O2-  O553  1  0.60239518  0.19391769  0.35127266  1
  O2-  O554  1  0.59205060  0.15491722  0.68279384  1
  O2-  O555  1  0.58664059  0.41916577  0.00909976  1
  O2-  O556  1  0.61070667  0.44439800  0.34553174  1
  O2-  O557  1  0.60604030  0.40862398  0.66948523  1
  O2-  O558  1  0.58855962  0.69751103  0.02301436  1
  O2-  O559  1  0.58073459  0.67199131  0.34359863  1
  O2-  O560  1  0.58125840  0.64470779  0.69040462  1
  O2-  O561  1  0.58910479  0.91324898  0.03883387  1
  O2-  O562  1  0.58099947  0.91702915  0.35737892  1
  O2-  O563  1  0.56386190  0.90271606  0.66169244  1
  O2-  O564  1  0.83044962  0.17399289  0.02772020  1
  O2-  O565  1  0.84997002  0.18480182  0.35908626  1
  O2-  O566  1  0.83045920  0.16725204  0.68390326  1
  O2-  O567  1  0.82880079  0.42256555  0.01318032  1
  O2-  O568  1  0.83262334  0.42494448  0.35833742  1
  O2-  O569  1  0.83317642  0.42424932  0.69205255  1
  O2-  O570  1  0.84181331  0.67494654  0.01797646  1
  O2-  O571  1  0.85527948  0.71310002  0.32271222  1
  O2-  O572  1  0.82085153  0.64837036  0.68135968  1
  O2-  O573  1  0.80005893  0.88855416  0.03404683  1
  O2-  O574  1  0.82754578  0.90807765  0.35045021  1
  O2-  O575  1  0.80432956  0.90203885  0.69479572  1
