# generated using pymatgen
data_H2O
_symmetry_space_group_name_H-M   'P 1'
_cell_length_a   17.98509938
_cell_length_b   17.99685294
_cell_length_c   21.98891541
_cell_angle_alpha   89.99756959
_cell_angle_beta   90.00294698
_cell_angle_gamma   119.98586729
_symmetry_Int_Tables_number   1
_chemical_formula_structural   H2O
_chemical_formula_sum   'H384 O192'
_cell_volume   6164.61104236
_cell_formula_units_Z   192
loop_
 _symmetry_equiv_pos_site_id
 _symmetry_equiv_pos_as_xyz
  1  'x, y, z'
loop_
 _atom_type_symbol
 _atom_type_oxidation_number
  H+  1.0
  O2-  -2.0
loop_
 _atom_site_type_symbol
 _atom_site_label
 _atom_site_symmetry_multiplicity
 _atom_site_fract_x
 _atom_site_fract_y
 _atom_site_fract_z
 _atom_site_occupancy
  H+  H0  1  0.16504956  0.84028190  1.04688782  1
  H+  H1  1  0.39551180  0.35995819  0.84335807  1
  H+  H2  1  0.61877615  0.20604887  0.32431209  1
  H+  H3  1  0.35948933  0.63960202  0.84332048  1
  H+  H4  1  0.26061907  0.60334515  0.68211466  1
  H+  H5  1  0.32598833  0.64384231  0.73910147  1
  H+  H6  1  0.27462689  0.64419392  0.82717862  1
  H+  H7  1  0.41071531  0.56909240  0.13202404  1
  H+  H8  1  0.23182803  0.36305060  0.50526940  1
  H+  H9  1  -0.02197629  0.86145256  0.33069650  1
  H+  H10  1  0.61034169  0.88290561  0.49677039  1
  H+  H11  1  0.13570038  0.53379069  0.82184577  1
  H+  H12  1  0.63884707  0.11144038  0.50248922  1
  H+  H13  1  0.10659688  0.34915320  0.18401733  1
  H+  H14  1  0.29975572  0.64586564  -0.00538515  1
  H+  H15  1  0.28574154  0.38423201  0.33403514  1
  H+  H16  1  0.60612068  0.37730231  0.16747351  1
  H+  H17  1  0.39643844  0.78797082  0.83357444  1
  H+  H18  1  0.09654558  0.68043494  0.26106006  1
  H+  H19  1  0.36821630  0.72697418  0.34024393  1
  H+  H20  1  0.67174978  0.58116140  0.92444950  1
  H+  H21  1  0.60668854  0.70995463  0.67991731  1
  H+  H22  1  1.02888960  0.14039330  0.50043124  1
  H+  H23  1  0.73851622  0.12701087  0.87264228  1
  H+  H24  1  0.58254850  0.93315207  0.67180622  1
  H+  H25  1  0.86338876  0.21016189  0.16060501  1
  H+  H26  1  0.14160367  0.11667395  0.33114845  1
  H+  H27  1  0.37049220  0.22199599  0.82464907  1
  H+  H28  1  0.61945814  0.83670762  0.66236887  1
  H+  H29  1  0.61431620  0.63484353  0.00372072  1
  H+  H30  1  0.48660220  0.86821582  0.49468552  1
  H+  H31  1  0.84618691  0.37293167  0.15255240  1
  H+  H32  1  0.89152904  0.26068855  0.50116503  1
  H+  H33  1  0.09615922  0.66355759  0.00699127  1
  H+  H34  1  0.24021651  0.60499909  0.32895091  1
  H+  H35  1  0.74603895  0.85084994  0.66976487  1
  H+  H36  1  0.85039626  0.63157507  0.36004744  1
  H+  H37  1  0.30492465  0.92353060  0.01839376  1
  H+  H38  1  0.39717365  1.00310299  0.01308354  1
  H+  H39  1  -0.00753672  0.35686491  0.50475813  1
  H+  H40  1  0.07467286  0.44820101  -0.00173780  1
  H+  H41  1  0.86160713  0.62544219  0.81744461  1
  H+  H42  1  0.75975517  0.66916811  0.01446235  1
  H+  H43  1  0.51629465  0.39041039  0.33376467  1
  H+  H44  1  0.89228242  1.02667305  0.32597096  1
  H+  H45  1  0.55727855  0.27075800  0.64535380  1
  H+  H46  1  0.37803898  0.98684260  0.33711960  1
  H+  H47  1  0.60873244  0.64415924  0.15826105  1
  H+  H48  1  0.81920621  0.98361675  0.79707679  1
  H+  H49  1  0.27989645  0.13923616  0.34015004  1
  H+  H50  1  0.45013512  0.82840626  0.66797106  1
  H+  H51  1  0.64865002  0.62263151  0.49782309  1
  H+  H52  1  0.84450312  0.01849447  0.81989203  1
  H+  H53  1  0.11609148  0.89217425  0.49265231  1
  H+  H54  1  0.35692772  0.50276368  0.51048553  1
  H+  H55  1  0.87667758  0.16963613  0.83689468  1
  H+  H56  1  0.38878759  0.65194104  -0.00448445  1
  H+  H57  1  0.77798416  0.13924854  0.49162831  1
  H+  H58  1  0.37148544  -0.01947790  0.49419958  1
  H+  H59  1  0.71331034  0.55233880  0.97481762  1
  H+  H60  1  0.02749339  0.13645295  0.34246549  1
  H+  H61  1  0.18930663  0.52885989  0.95711538  1
  H+  H62  1  0.88870048  0.77439273  0.34103479  1
  H+  H63  1  0.28303631  0.89038152  0.16294217  1
  H+  H64  1  0.63935655  0.77338450  0.32485427  1
  H+  H65  1  0.03546141  0.15944841  0.66767202  1
  H+  H66  1  0.65878678  0.07939311  0.66235199  1
  H+  H67  1  0.39350808  0.02758418  0.17611293  1
  H+  H68  1  0.27172689  0.64359115  0.49545887  1
  H+  H69  1  0.34257830  0.86260826  0.67312917  1
  H+  H70  1  0.13891081  0.02488257  0.17838754  1
  H+  H71  1  0.72664106  0.67824629  0.20303901  1
  H+  H72  1  0.38478715  0.87044323  0.98803696  1
  H+  H73  1  0.85322936  0.21302556  0.00494958  1
  H+  H74  1  0.97756775  0.61547476  0.81461183  1
  H+  H75  1  0.88694055  0.76142287  0.17649254  1
  H+  H76  1  0.40371689  0.90672742  0.82632016  1
  H+  H77  1  0.61899562  0.87429469  0.82200305  1
  H+  H78  1  0.13824962  0.51947457  0.50900855  1
  H+  H79  1  0.49402870  0.13144615  0.98664017  1
  H+  H80  1  0.89698134  0.29117436  0.84615607  1
  H+  H81  1  0.38347137  0.59416787  0.67070655  1
  H+  H82  1  0.86995258  0.89380355  0.33495510  1
  H+  H83  1  0.23783393  0.11355256  0.84178473  1
  H+  H84  1  0.63458252  0.77263131  0.16977221  1
  H+  H85  1  0.27785833  0.13741277  1.00698247  1
  H+  H86  1  0.85600947  0.89375204  0.50832529  1
  H+  H87  1  0.18776651  0.46888540  0.81160900  1
  H+  H88  1  0.22605286  0.37149483  0.99404719  1
  H+  H89  1  0.39775901  0.11856760  0.83649776  1
  H+  H90  1  0.82964295  0.37231386  0.66590021  1
  H+  H91  1  0.62676723  0.15576754  -0.01632413  1
  H+  H92  1  0.98661509  0.28669787  0.21391014  1
  H+  H93  1  0.11493912  0.72723834  0.52699854  1
  H+  H94  1  0.87991444  0.79576431  0.00428824  1
  H+  H95  1  0.01862608  0.38245601  0.35093319  1
  H+  H96  1  0.22782841  0.86359976  0.50324310  1
  H+  H97  1  0.59092854  0.38567803  0.68093971  1
  H+  H98  1  0.35161197  0.92750843  0.10754943  1
  H+  H99  1  0.35060167  0.95492909  0.66936803  1
  H+  H100  1  0.11473038  0.13766204  0.16354289  1
  H+  H101  1  0.88721272  0.88621807  0.99893326  1
  H+  H102  1  0.99580936  0.14935283  0.84513769  1
  H+  H103  1  0.12152306  0.13615552  0.82497745  1
  H+  H104  1  0.54058199  0.89117888  0.82561596  1
  H+  H105  1  0.64560894  0.52444661  0.83935867  1
  H+  H106  1  0.89072213  0.51360669  0.17143709  1
  H+  H107  1  0.76748335  0.38803609  0.49042063  1
  H+  H108  1  0.41213038  0.07708947  0.56594879  1
  H+  H109  1  0.87295495  0.84294991  0.65549493  1
  H+  H110  1  0.63342598  0.34793253  0.53521509  1
  H+  H111  1  1.02096908  0.88215796  0.16990017  1
  H+  H112  1  0.72603511  0.86629100  0.99239642  1
  H+  H113  1  0.16189441  0.59324585  0.98780411  1
  H+  H114  1  0.85921775  0.87751861  0.16166767  1
  H+  H115  1  0.36697615  0.47141862  0.84194324  1
  H+  H116  1  0.64132820  0.02400113  0.50635050  1
  H+  H117  1  0.52659271  0.88235637  0.34114345  1
  H+  H118  1  0.61041406  0.63974312  0.34029730  1
  H+  H119  1  0.39991745  0.12334428  -0.00894217  1
  H+  H120  1  0.64056812  0.86228577  0.32539467  1
  H+  H121  1  0.97363496  0.87210920  0.50228671  1
  H+  H122  1  0.11644233  0.38258645  0.49847027  1
  H+  H123  1  0.85556051  0.47364153  0.34114447  1
  H+  H124  1  0.19169035  0.71206033  0.03115793  1
  H+  H125  1  0.63824346  0.61103191  0.83813675  1
  H+  H126  1  0.10841870  0.98689082  0.64986747  1
  H+  H127  1  0.21923549  0.85708705  0.65551842  1
  H+  H128  1  0.13703593  0.11760512  0.65312642  1
  H+  H129  1  0.38116436  0.64512091  0.15827664  1
  H+  H130  1  0.16889030  0.86841690  0.83517829  1
  H+  H131  1  0.68591697  0.10811520  0.59393849  1
  H+  H132  1  0.61693473  0.17437726  0.65251685  1
  H+  H133  1  0.17307562  0.09331171  0.93750455  1
  H+  H134  1  0.13484048  0.03994661  0.99972912  1
  H+  H135  1  0.09206556  0.25344043  0.18572895  1
  H+  H136  1  0.98315426  0.35690124  0.17921288  1
  H+  H137  1  0.16723114  0.31839744  0.26987433  1
  H+  H138  1  0.85886931  0.12096454  0.15685963  1
  H+  H139  1  0.35626615  0.46752447  0.16317918  1
  H+  H140  1  0.63819581  0.77973800  0.50497569  1
  H+  H141  1  0.73567896  0.11330852  0.97416909  1
  H+  H142  1  0.12584504  0.22646119  0.82563237  1
  H+  H143  1  0.70970933  0.81651562  0.83702112  1
  H+  H144  1  0.95922827  0.61401290  0.32471846  1
  H+  H145  1  0.12044295  0.15070632  0.00852769  1
  H+  H146  1  0.36962100  0.23010919  0.49215897  1
  H+  H147  1  0.39362846  0.86588708  0.32823702  1
  H+  H148  1  0.78230454  0.89394339  0.33224375  1
  H+  H149  1  0.86777114  0.72446006  0.67231638  1
  H+  H150  1  0.84828182  0.60692243  0.97756460  1
  H+  H151  1  0.86347249  -0.01289960  1.00894882  1
  H+  H152  1  0.15040254  0.79437296  0.33115281  1
  H+  H153  1  0.12914284  0.49130531  0.66664852  1
  H+  H154  1  0.61735862  0.97015169  0.33985172  1
  H+  H155  1  0.63646203  0.30990159  0.35865156  1
  H+  H156  1  0.61029459  0.40065148  0.33564769  1
  H+  H157  1  0.38672314  0.77552131  0.49729717  1
  H+  H158  1  0.86050901  0.22069496  0.34163261  1
  H+  H159  1  0.39198564  0.77096374  0.17262718  1
  H+  H160  1  0.82953649  0.93630102  0.69175002  1
  H+  H161  1  1.12471753  0.48872968  0.15859876  1
  H+  H162  1  0.63728550  0.26850538  0.50925730  1
  H+  H163  1  0.96304992  0.38244838  0.65172862  1
  H+  H164  1  0.91525960  0.07242590  0.66313192  1
  H+  H165  1  0.62845963  0.52650954  0.33260491  1
  H+  H166  1  0.16103799  0.26132667  0.32581804  1
  H+  H167  1  -0.04286200  0.33802422  0.00222614  1
  H+  H168  1  0.24662885  0.62316301  0.17163681  1
  H+  H169  1  0.40386763  1.00961459  0.82939388  1
  H+  H170  1  0.52077182  0.62010860  0.68091687  1
  H+  H171  1  0.39481827  0.11979365  0.32542388  1
  H+  H172  1  0.07680743  0.65906927  0.62373136  1
  H+  H173  1  0.80128066  0.16426105  0.67225197  1
  H+  H174  1  0.15039500  0.60100777  0.31900427  1
  H+  H175  1  0.11832603  0.22876272  0.49715271  1
  H+  H176  1  0.10547579  0.37860668  0.00495530  1
  H+  H177  1  0.15731762  0.27727217  0.65978790  1
  H+  H178  1  0.88060710  0.35895031  0.33081185  1
  H+  H179  1  0.32294265  0.91715680  0.79647501  1
  H+  H180  1  0.54194928  0.14852205  0.81653546  1
  H+  H181  1  0.92715975  0.86032442  0.91609201  1
  H+  H182  1  0.77123887  0.63120262  0.81777718  1
  H+  H183  1  0.85999378  0.62815593  0.66928848  1
  H+  H184  1  0.38667890  0.27433712  0.32560177  1
  H+  H185  1  0.03810118  0.34299473  0.70176731  1
  H+  H186  1  0.30306555  0.52817999  0.55270520  1
  H+  H187  1  0.63893797  0.21949725  0.81058389  1
  H+  H188  1  0.47720272  0.60856523  0.86549022  1
  H+  H189  1  0.71820841  0.61387781  0.34310466  1
  H+  H190  1  0.13499757  0.86638856  0.64795332  1
  H+  H191  1  0.84889721  0.36497004  1.00344601  1
  H+  H192  1  0.36733304  0.13644472  0.15976005  1
  H+  H193  1  0.11784422  0.89979912  0.33944734  1
  H+  H194  1  0.35969851  0.21350651  0.66606771  1
  H+  H195  1  0.03576490  0.88634764  0.85456380  1
  H+  H196  1  0.22880325  0.11270598  0.17355275  1
  H+  H197  1  0.28824185  0.90006970  0.33878428  1
  H+  H198  1  0.63663141  0.60883287  0.65942895  1
  H+  H199  1  0.36537280  0.38447377  0.49380099  1
  H+  H200  1  0.37730315  0.46616977  0.68675298  1
  H+  H201  1  0.61104338  0.47864110  0.49223267  1
  H+  H202  1  0.36447687  0.38530296  0.15397698  1
  H+  H203  1  0.86719382  0.62112599  0.15649565  1
  H+  H204  1  0.10866617  0.91514591  0.01708606  1
  H+  H205  1  0.77238932  0.88183522  0.16193338  1
  H+  H206  1  0.14216216  0.35921981  0.84231335  1
  H+  H207  1  0.72036683  0.37201860  0.17567403  1
  H+  H208  1  0.96885001  0.85788932  0.64973468  1
  H+  H209  1  0.17533431  0.84426010  0.26773334  1
  H+  H210  1  0.88097360  0.64992428  -0.03556509  1
  H+  H211  1  0.51933771  0.64774028  0.15512080  1
  H+  H212  1  0.18919270  0.58285526  0.23285131  1
  H+  H213  1  0.17202012  0.08943070  0.27026049  1
  H+  H214  1  0.94871781  0.58496849  0.64915615  1
  H+  H215  1  0.39410544  0.33376722  0.65780239  1
  H+  H216  1  0.01448665  0.90553635  0.01544298  1
  H+  H217  1  0.94625703  0.92913892  0.86471897  1
  H+  H218  1  0.77213021  0.38696941  -0.00219356  1
  H+  H219  1  0.99178245  0.36909215  0.85471942  1
  H+  H220  1  0.61455311  0.90172650  1.00136511  1
  H+  H221  1  0.52143748  0.12955156  0.49326389  1
  H+  H222  1  0.46894262  0.36177498  0.51052337  1
  H+  H223  1  0.50719718  0.37859690  0.01115431  1
  H+  H224  1  0.98112179  0.11935638  1.00146653  1
  H+  H225  1  0.43176894  0.09417847  0.89839173  1
  H+  H226  1  0.77633308  0.63812076  0.46160155  1
  H+  H227  1  0.83675494  0.81898384  0.82291001  1
  H+  H228  1  0.52987086  0.63873033  0.49067069  1
  H+  H229  1  0.59331083  0.46955106  0.01450490  1
  H+  H230  1  0.38133289  0.26461271  0.17217505  1
  H+  H231  1  0.89494094  0.16724703  0.67253393  1
  H+  H232  1  0.52386740  0.12854381  0.33229271  1
  H+  H233  1  0.15928559  0.36570867  0.66702415  1
  H+  H234  1  0.48224886  0.11437159  0.16730723  1
  H+  H235  1  0.88855724  0.11389987  0.99750394  1
  H+  H236  1  0.63131890  0.48950966  0.69104353  1
  H+  H237  1  0.11766471  0.73566883  0.78968598  1
  H+  H238  1  0.36206636  0.74316486  0.66619782  1
  H+  H239  1  0.59917285  0.70962159  0.83616218  1
  H+  H240  1  0.98111394  0.60214699  0.17592046  1
  H+  H241  1  0.97557639  0.61818415  0.51944514  1
  H+  H242  1  0.38936067  0.11298516  0.50540605  1
  H+  H243  1  0.73201120  0.37231370  0.33576783  1
  H+  H244  1  0.14460515  1.02988604  0.50297411  1
  H+  H245  1  0.72761560  0.61473134  0.65670006  1
  H+  H246  1  0.82443372  0.45649397  0.66249780  1
  H+  H247  1  0.51772763  0.87662819  0.17270553  1
  H+  H248  1  0.63043834  0.37142014  0.99366040  1
  H+  H249  1  0.37044058  0.47877730  0.33338228  1
  H+  H250  1  0.48483685  0.35990496  0.84399100  1
  H+  H251  1  0.36555365  0.22594139  0.00686585  1
  H+  H252  1  0.66278117  0.82213906  0.89887188  1
  H+  H253  1  0.56672394  0.64712351  0.77849657  1
  H+  H254  1  0.35597476  0.63879823  0.49736204  1
  H+  H255  1  0.88664099  0.01620459  0.17344502  1
  H+  H256  1  0.69708391  0.39946712  0.82400267  1
  H+  H257  1  0.85553561  0.47826437  0.48753041  1
  H+  H258  1  0.11295894  0.63674984  0.53030915  1
  H+  H259  1  0.12024400  0.57541115  0.65832764  1
  H+  H260  1  0.17133220  0.09079859  0.59323050  1
  H+  H261  1  0.03944104  0.58433276  0.27199127  1
  H+  H262  1  0.89828209  0.12228561  0.51215622  1
  H+  H263  1  0.60765996  0.12000042  0.14846526  1
  H+  H264  1  0.15091789  1.02377964  0.84842472  1
  H+  H265  1  0.39074160  0.87396896  0.49381371  1
  H+  H266  1  0.86669600  0.13419792  0.33899657  1
  H+  H267  1  -0.05056276  0.59216753  -0.02474544  1
  H+  H268  1  0.61423950  0.98657462  -0.00891411  1
  H+  H269  1  0.89156098  0.28131451  0.65840215  1
  H+  H270  1  0.61471913  0.87510057  0.17152384  1
  H+  H271  1  0.91344364  0.49490132  0.97265915  1
  H+  H272  1  0.72486757  0.09785817  0.16950664  1
  H+  H273  1  -0.02488136  0.10628685  0.17105716  1
  H+  H274  1  0.36591937  0.47818228  -0.00522071  1
  H+  H275  1  0.50124882  0.36596751  0.16641952  1
  H+  H276  1  0.83112882  0.92288745  0.06720800  1
  H+  H277  1  0.11359051  0.46345049  0.34717783  1
  H+  H278  1  0.39156015  0.61445048  0.31419427  1
  H+  H279  1  0.83379217  0.65854802  0.74825623  1
  H+  H280  1  0.62378761  0.24254196  -0.00834759  1
  H+  H281  1  0.61567487  0.97204082  0.16892582  1
  H+  H282  1  0.63853264  0.09877734  0.32449907  1
  H+  H283  1  0.48492362  0.61278719  0.96268721  1
  H+  H284  1  0.11535725  0.23670208  1.01092222  1
  H+  H285  1  0.60395549  0.42526394  0.77113700  1
  H+  H286  1  0.14093993  0.77554426  0.17637720  1
  H+  H287  1  0.73012405  0.10343308  0.32579365  1
  H+  H288  1  0.10988283  0.64521065  0.79689646  1
  H+  H289  1  0.18024712  0.33826194  0.56875812  1
  H+  H290  1  0.14456127  0.11926929  0.50287851  1
  H+  H291  1  0.63825333  0.77624556  0.99225290  1
  H+  H292  1  0.08493431  0.16386358  0.40360250  1
  H+  H293  1  0.91294859  0.32365145  0.93686702  1
  H+  H294  1  0.58054497  0.15807570  0.43337790  1
  H+  H295  1  0.79605776  0.82998268  0.76158671  1
  H+  H296  1  0.57490800  0.88978881  0.73753750  1
  H+  H297  1  0.66573954  0.34644153  0.23770136  1
  H+  H298  1  0.82599458  0.40939438  0.09307893  1
  H+  H299  1  0.58047522  0.17907862  0.71683309  1
  H+  H300  1  0.57301695  0.41706358  0.43628514  1
  H+  H301  1  0.72523063  0.87168058  0.51799312  1
  H+  H302  1  0.16008913  0.59834898  0.87676497  1
  H+  H303  1  0.16653987  0.83885476  0.97598243  1
  H+  H304  1  0.42011141  0.83076945  0.26981821  1
  H+  H305  1  0.23106191  0.35872499  0.84656408  1
  H+  H306  1  0.34535168  0.92555345  0.43160544  1
  H+  H307  1  0.38211037  0.36068621  0.99019038  1
  H+  H308  1  0.81926971  0.68583286  0.07258889  1
  H+  H309  1  0.09865531  0.66206862  0.11401274  1
  H+  H310  1  0.34575107  0.67854398  0.10077366  1
  H+  H311  1  0.93192597  0.57051731  0.87700045  1
  H+  H312  1  0.91957900  0.32663550  0.56449621  1
  H+  H313  1  0.66789528  0.07180372  0.23050184  1
  H+  H314  1  0.34285725  0.41576174  0.77907664  1
  H+  H315  1  0.11340219  0.98565157  0.33916610  1
  H+  H316  1  0.13110998  0.63754560  0.17228994  1
  H+  H317  1  0.07248494  0.65676697  0.69848801  1
  H+  H318  1  0.37547994  0.09671715  0.65947078  1
  H+  H319  1  0.58095037  0.67019023  0.42821233  1
  H+  H320  1  0.41361627  0.84075965  0.89545316  1
  H+  H321  1  0.17053168  0.56661321  0.57246810  1
  H+  H322  1  0.08545752  0.42405896  0.10114211  1
  H+  H323  1  0.33727962  0.16077414  0.76484447  1
  H+  H324  1  0.91905470  0.32673074  0.27628731  1
  H+  H325  1  0.40211345  0.31517044  0.56792643  1
  H+  H326  1  0.58477820  0.15750755  0.09054021  1
  H+  H327  1  0.08654924  0.92429573  0.43446337  1
  H+  H328  1  0.17042482  0.84084328  0.56440664  1
  H+  H329  1  0.65217213  0.81587367  0.59969872  1
  H+  H330  1  0.33586816  0.16445725  0.09998170  1
  H+  H331  1  0.83721110  0.16514578  0.43154129  1
  H+  H332  1  0.34181650  0.17024195  0.39860725  1
  H+  H333  1  0.08181940  0.41029532  0.43835505  1
  H+  H334  1  0.83652767  0.18587248  0.77739314  1
  H+  H335  1  0.06353989  0.64937923  0.41632174  1
  H+  H336  1  0.78633828  0.40750691  0.75421224  1
  H+  H337  1  0.13651134  0.86342391  0.17508444  1
  H+  H338  1  0.09620972  0.17337481  0.72691268  1
  H+  H339  1  0.65619515  0.36046104  0.92689523  1
  H+  H340  1  0.42436191  0.09139550  0.26406768  1
  H+  H341  1  0.66635599  0.82907640  0.23298230  1
  H+  H342  1  0.41781812  0.32937195  0.93391659  1
  H+  H343  1  0.41027137  0.32671583  0.23223095  1
  H+  H344  1  0.08158254  0.89430331  0.79337820  1
  H+  H345  1  0.91142567  0.81886746  0.23719722  1
  H+  H346  1  0.41075717  0.56596602  0.61032086  1
  H+  H347  1  0.34070714  0.41892864  0.43221222  1
  H+  H348  1  0.16558116  0.33491445  0.93507873  1
  H+  H349  1  0.28218727  0.14058874  0.49062217  1
  H+  H350  1  0.07797850  0.93070601  0.70834430  1
  H+  H351  1  0.33987430  0.42623140  0.05874482  1
  H+  H352  1  0.68239069  0.59337692  0.55435470  1
  H+  H353  1  0.38162862  0.77980860  0.98386256  1
  H+  H354  1  0.03544686  0.66897893  0.41229295  1
  H+  H355  1  0.46635691  1.10293549  0.65465109  1
  H+  H356  1  0.82701131  0.41604882  0.40264079  1
  H+  H357  1  0.92251892  0.08789813  0.26783797  1
  H+  H358  1  0.88887571  0.57362285  0.59267670  1
  H+  H359  1  0.83200143  0.47224564  0.80944372  1
  H+  H360  1  0.77675782  0.61782751  0.16152093  1
  H+  H361  1  0.93999677  0.12322138  0.90673042  1
  H+  H362  1  0.33945060  0.66653997  0.39888788  1
  H+  H363  1  0.85905064  -0.01636298  0.51848313  1
  H+  H364  1  0.26991198  0.12367851  0.67705765  1
  H+  H365  1  0.42065319  0.58798700  0.25276965  1
  H+  H366  1  0.93560842  0.11205235  0.57677418  1
  H+  H367  1  0.21716721  0.82206374  0.86079092  1
  H+  H368  1  0.49016909  0.30624587  0.63299325  1
  H+  H369  1  0.38720933  0.36481639  0.32452497  1
  H+  H370  1  0.07675450  0.92241289  0.11007285  1
  H+  H371  1  0.89377560  0.62025183  0.49103670  1
  H+  H372  1  0.39453864  0.86280966  0.17611644  1
  H+  H373  1  0.28913286  0.37999491  0.68515150  1
  H+  H374  1  0.10542721  0.41413283  0.75423449  1
  H+  H375  1  0.67266527  0.59844641  0.24296236  1
  H+  H376  1  0.56645447  0.40227182  0.10355384  1
  H+  H377  1  0.58558670  0.91345455  0.43390356  1
  H+  H378  1  0.89554665  0.58029618  0.27060821  1
  H+  H379  1  0.08597262  0.16937345  0.10390523  1
  H+  H380  1  0.91003765  0.82681418  0.55678125  1
  H+  H381  1  0.57754346  0.66260675  0.05918045  1
  H+  H382  1  0.52206431  0.64015030  0.33237672  1
  H+  H383  1  0.82071982  0.15062381  0.06322961  1
  O2-  O384  1  0.07969965  0.16315819  0.14911815  1
  O2-  O385  1  0.08828729  0.16851676  0.48200102  1
  O2-  O386  1  0.09391188  0.16747735  0.80797829  1
  O2-  O387  1  0.08641506  0.42799505  0.14608781  1
  O2-  O388  1  0.08188688  0.40986078  0.48528595  1
  O2-  O389  1  0.12513527  0.43825301  0.81173182  1
  O2-  O390  1  0.09475828  0.66382767  0.15870984  1
  O2-  O391  1  0.08106020  0.66648243  0.54159716  1
  O2-  O392  1  0.07975145  0.67458362  0.77945493  1
  O2-  O393  1  0.08152461  0.91406982  0.15458185  1
  O2-  O394  1  0.08809784  0.92566114  0.47976351  1
  O2-  O395  1  0.09452175  0.90499309  0.83654522  1
  O2-  O396  1  0.33455532  0.16492594  0.14560134  1
  O2-  O397  1  0.34294837  0.16944719  0.47582079  1
  O2-  O398  1  0.33984266  0.16083308  0.81131676  1
  O2-  O399  1  0.33905894  0.41821052  0.13614536  1
  O2-  O400  1  0.33606504  0.41657558  0.47765622  1
  O2-  O401  1  0.33865338  0.41260303  0.82537763  1
  O2-  O402  1  0.34427216  0.67684670  0.14571830  1
  O2-  O403  1  0.33261378  0.67416628  0.47994880  1
  O2-  O404  1  0.33743829  0.67058450  0.81895713  1
  O2-  O405  1  0.34504727  0.91955031  0.15285188  1
  O2-  O406  1  0.34476272  0.92007994  0.47703220  1
  O2-  O407  1  0.38462415  0.94905673  0.80754703  1
  O2-  O408  1  0.57618360  0.14884037  0.13481727  1
  O2-  O409  1  0.58230872  0.15779230  0.47828465  1
  O2-  O410  1  0.59391842  0.16768534  0.79144473  1
  O2-  O411  1  0.56543652  0.39899463  0.14975736  1
  O2-  O412  1  0.57408339  0.41747955  0.48117216  1
  O2-  O413  1  0.59541125  0.42237760  0.82308859  1
  O2-  O414  1  0.58320084  0.67600200  0.13927733  1
  O2-  O415  1  0.58760366  0.67174822  0.47399983  1
  O2-  O416  1  0.56746841  0.64661295  0.82408568  1
  O2-  O417  1  0.58159269  0.90677480  0.15941569  1
  O2-  O418  1  0.57988452  0.91334127  0.47954982  1
  O2-  O419  1  0.59421538  0.90772230  0.80327601  1
  O2-  O420  1  0.82803515  0.15195292  0.14288179  1
  O2-  O421  1  0.83901467  0.17042896  0.47731119  1
  O2-  O422  1  0.83490318  0.18791965  0.82231330  1
  O2-  O423  1  0.82656379  0.41193269  0.13911158  1
  O2-  O424  1  0.82521709  0.41959889  0.47030698  1
  O2-  O425  1  0.78165667  0.41668294  0.79910135  1
  O2-  O426  1  0.83502779  0.65033106  0.14370053  1
  O2-  O427  1  0.83493829  0.66052035  0.44321450  1
  O2-  O428  1  0.83137607  0.65569082  0.80013263  1
  O2-  O429  1  0.83266928  0.91098087  0.14646871  1
  O2-  O430  1  0.82015162  0.92201038  0.50951150  1
  O2-  O431  1  0.78225806  0.80076211  0.80162389  1
  O2-  O432  1  0.16947102  0.08635528  0.19062082  1
  O2-  O433  1  0.17745614  0.09106080  0.51729022  1
  O2-  O434  1  0.17792826  0.08524284  0.85894830  1
  O2-  O435  1  0.09099752  0.29920762  0.21079571  1
  O2-  O436  1  0.17291257  0.33670247  0.52331290  1
  O2-  O437  1  0.16953973  0.32681249  0.85987262  1
  O2-  O438  1  0.18548544  0.59196489  0.18818498  1
  O2-  O439  1  0.17212150  0.57767475  0.52756626  1
  O2-  O440  1  0.16014092  0.59733115  0.83198261  1
  O2-  O441  1  0.17045835  0.83635827  0.19017314  1
  O2-  O442  1  0.16792731  0.83673484  0.51770874  1
  O2-  O443  1  0.20447166  0.84258955  0.82337608  1
  O2-  O444  1  0.42361820  0.08961375  0.18713980  1
  O2-  O445  1  0.41703805  0.07963638  0.52001570  1
  O2-  O446  1  0.43220842  0.09201555  0.85245945  1
  O2-  O447  1  0.41332550  0.32640228  0.18623102  1
  O2-  O448  1  0.40655505  0.32874563  0.52079368  1
  O2-  O449  1  0.42372307  0.32727791  0.85770238  1
  O2-  O450  1  0.42547065  0.60195462  0.16983918  1
  O2-  O451  1  0.36034536  0.55313853  0.53485040  1
  O2-  O452  1  0.41620694  0.58170543  0.88304248  1
  O2-  O453  1  0.42369107  0.83137576  0.19127907  1
  O2-  O454  1  0.42141756  0.83946795  0.50663136  1
  O2-  O455  1  0.42800323  0.84744416  0.84992708  1
  O2-  O456  1  0.66420347  0.06658214  0.18506188  1
  O2-  O457  1  0.67329927  0.08548139  0.51845575  1
  O2-  O458  1  0.68456692  0.07896608  0.89019728  1
  O2-  O459  1  0.66227625  0.34960051  0.19314102  1
  O2-  O460  1  0.67287197  0.32680180  0.52578351  1
  O2-  O461  1  0.63928140  0.37767117  0.84806917  1
  O2-  O462  1  0.68572534  0.61699980  0.19924063  1
  O2-  O463  1  0.68197349  0.59426576  0.50914248  1
  O2-  O464  1  0.67662425  0.58779091  0.85073804  1
  O2-  O465  1  0.66580037  0.83301720  0.18700423  1
  O2-  O466  1  0.65904792  0.83588026  0.52534391  1
  O2-  O467  1  0.65497456  0.81065323  0.85387204  1
  O2-  O468  1  0.91438186  0.07758119  0.18627039  1
  O2-  O469  1  0.93055961  0.09712970  0.53103829  1
  O2-  O470  1  0.94969313  0.15285443  0.86708720  1
  O2-  O471  1  0.94366746  0.30483930  0.20311566  1
  O2-  O472  1  0.92747629  0.32263205  0.51854549  1
  O2-  O473  1  0.93264925  0.34688335  0.86818341  1
  O2-  O474  1  0.92029823  0.57229632  0.18969516  1
  O2-  O475  1  0.91126498  0.58676038  0.51676756  1
  O2-  O476  1  0.92048088  0.58276380  0.83511818  1
  O2-  O477  1  0.91271135  0.82124336  0.19160229  1
  O2-  O478  1  0.91201455  0.84107726  0.51329965  1
  O2-  O479  1  0.93997444  0.87247164  0.87038974  1
  O2-  O480  1  0.17310148  0.08714520  0.31562810  1
  O2-  O481  1  0.16335391  0.08280558  0.63853005  1
  O2-  O482  1  0.17327307  0.09853902  0.98284477  1
  O2-  O483  1  0.20223984  0.31269097  0.30231334  1
  O2-  O484  1  0.19047594  0.33961781  0.64664965  1
  O2-  O485  1  0.16466074  0.34091214  0.98076247  1
  O2-  O486  1  0.18126408  0.56985594  0.31061977  1
  O2-  O487  1  0.15856339  0.55099844  0.64971836  1
  O2-  O488  1  0.19575459  0.58594350  0.95527129  1
  O2-  O489  1  0.18039692  0.85154276  0.31320650  1
  O2-  O490  1  0.16106724  0.83205317  0.63515014  1
  O2-  O491  1  0.18600266  0.87713067  1.01106141  1
  O2-  O492  1  0.42479788  0.08899143  0.30983996  1
  O2-  O493  1  0.40516321  0.06686083  0.64156315  1
  O2-  O494  1  0.43178904  0.09544570  0.97433790  1
  O2-  O495  1  0.41596297  0.33331813  0.30730497  1
  O2-  O496  1  0.39912197  0.29147690  0.63291221  1
  O2-  O497  1  0.41356222  0.32970164  0.97971827  1
  O2-  O498  1  0.42229253  0.58562271  0.29798346  1
  O2-  O499  1  0.41904170  0.56937418  0.65491518  1
  O2-  O500  1  0.42241873  0.58349162  0.95071189  1
  O2-  O501  1  0.42090318  0.83168130  0.31537455  1
  O2-  O502  1  0.39071258  0.80376603  0.65284264  1
  O2-  O503  1  0.37336395  0.82223092  0.96058989  1
  O2-  O504  1  0.66998419  0.07001677  0.30911403  1
  O2-  O505  1  0.69505281  0.12900772  0.63723414  1
  O2-  O506  1  0.68031179  0.10093705  0.95369186  1
  O2-  O507  1  0.66809942  0.34208503  0.32276308  1
  O2-  O508  1  0.55408909  0.32160042  0.63270967  1
  O2-  O509  1  0.66430698  0.35103096  0.97045261  1
  O2-  O510  1  0.66343297  0.58891034  0.32010857  1
  O2-  O511  1  0.66866693  0.58276041  0.64017260  1
  O2-  O512  1  0.67267396  0.57306449  0.97039016  1
  O2-  O513  1  0.66995965  0.83273838  0.30741640  1
  O2-  O514  1  0.65212752  0.80940432  0.64537106  1
  O2-  O515  1  0.66718912  0.83463044  0.97466393  1
  O2-  O516  1  0.92304336  0.08958212  0.31306016  1
  O2-  O517  1  0.94409212  0.13044219  0.64690927  1
  O2-  O518  1  0.92234422  0.08630335  0.98355368  1
  O2-  O519  1  0.91222427  0.32791009  0.32119212  1
  O2-  O520  1  0.90935401  0.33783860  0.63419248  1
  O2-  O521  1  0.89992706  0.31248642  0.98263337  1
  O2-  O522  1  0.89732880  0.58375936  0.31570662  1
  O2-  O523  1  0.88831692  0.56883473  0.63822231  1
  O2-  O524  1  0.96012896  0.54999419  0.95530240  1
  O2-  O525  1  0.91756728  0.82643247  0.31550759  1
  O2-  O526  1  0.90698206  0.81631577  0.64124970  1
  O2-  O527  1  0.91890738  0.85469022  0.98628523  1
  O2-  O528  1  0.08718951  0.17646846  0.02619134  1
  O2-  O529  1  0.08747242  0.16198485  0.35822233  1
  O2-  O530  1  0.09775218  0.17752407  0.68172551  1
  O2-  O531  1  0.06742868  0.40018912  0.02294325  1
  O2-  O532  1  0.07746756  0.40830256  0.36815716  1
  O2-  O533  1  0.09248053  0.39657575  0.70410629  1
  O2-  O534  1  0.13597227  0.65968237  0.03547486  1
  O2-  O535  1  0.07172106  0.63854439  0.29404539  1
  O2-  O536  1  0.05666908  0.62210575  0.66066438  1
  O2-  O537  1  0.07481774  0.94031486  0.03265508  1
  O2-  O538  1  0.08256542  0.92429287  0.35395044  1
  O2-  O539  1  0.07552838  0.92358626  0.66452086  1
  O2-  O540  1  0.33878691  0.16528266  0.02147186  1
  O2-  O541  1  0.34174329  0.17004626  0.35270829  1
  O2-  O542  1  0.33037922  0.15293689  0.69082459  1
  O2-  O543  1  0.33452746  0.42044940  0.01323523  1
  O2-  O544  1  0.34484971  0.42158637  0.35308448  1
  O2-  O545  1  0.34658295  0.40803392  0.70538512  1
  O2-  O546  1  0.35637945  0.67677500  0.01466140  1
  O2-  O547  1  0.34058203  0.66561772  0.35367239  1
  O2-  O548  1  0.32242746  0.63486335  0.69440382  1
  O2-  O549  1  0.36440914  0.94382878  0.03134025  1
  O2-  O550  1  0.34847580  0.92658147  0.35351700  1
  O2-  O551  1  0.31431680  0.89608515  0.68555750  1
  O2-  O552  1  0.59673121  0.18163019  0.00515457  1
  O2-  O553  1  0.58511596  0.15294977  0.34738927  1
  O2-  O554  1  0.57031895  0.17927888  0.67198961  1
  O2-  O555  1  0.56700033  0.41021005  0.02999986  1
  O2-  O556  1  0.57601480  0.42582817  0.35091059  1
  O2-  O557  1  0.61703713  0.43595699  0.71306403  1
  O2-  O558  1  0.57827458  0.65986580  0.01355312  1
  O2-  O559  1  0.57958234  0.67089147  0.35289328  1
  O2-  O560  1  0.58042317  0.65122987  0.69800505  1
  O2-  O561  1  0.58976161  0.93564759  0.01719302  1
  O2-  O562  1  0.58665077  0.91052600  0.35724376  1
  O2-  O563  1  0.56240528  0.87759207  0.69081593  1
  O2-  O564  1  0.82391689  0.15093207  0.01788584  1
  O2-  O565  1  0.83132952  0.15934505  0.35522683  1
  O2-  O566  1  0.85958575  0.19599632  0.69002105  1
  O2-  O567  1  0.82980910  0.40679802  0.01597595  1
  O2-  O568  1  0.82713602  0.41317358  0.35494837  1
  O2-  O569  1  0.79663302  0.39858751  0.68086598  1
  O2-  O570  1  0.80547747  0.71399529  0.03928119  1
  O2-  O571  1  0.82294760  0.66373955  0.37709271  1
  O2-  O572  1  0.83620614  0.66359583  0.68961416  1
  O2-  O573  1  0.83064487  0.92500728  0.02188661  1
  O2-  O574  1  0.84269234  0.92798252  0.34565358  1
  O2-  O575  1  0.80618576  0.87476775  0.68806063  1
