# generated using pymatgen
data_H2O
_symmetry_space_group_name_H-M   'P 1'
_cell_length_a   17.99271505
_cell_length_b   17.99630395
_cell_length_c   22.01793929
_cell_angle_alpha   89.98450595
_cell_angle_beta   90.00549929
_cell_angle_gamma   119.99669753
_symmetry_Int_Tables_number   1
_chemical_formula_structural   H2O
_chemical_formula_sum   'H384 O192'
_cell_volume   6174.49948185
_cell_formula_units_Z   192
loop_
 _symmetry_equiv_pos_site_id
 _symmetry_equiv_pos_as_xyz
  1  'x, y, z'
loop_
 _atom_type_symbol
 _atom_type_oxidation_number
  H+  1.0
  O2-  -2.0
loop_
 _atom_site_type_symbol
 _atom_site_label
 _atom_site_symmetry_multiplicity
 _atom_site_fract_x
 _atom_site_fract_y
 _atom_site_fract_z
 _atom_site_occupancy
  H+  H0  1  0.67803520  0.31593736  0.97014661  1
  H+  H1  1  0.89492286  0.54354411  0.99653515  1
  H+  H2  1  0.61887530  0.84653106  0.85810629  1
  H+  H3  1  0.13520938  0.61972263  0.32870299  1
  H+  H4  1  0.37866558  0.10840445  0.99519575  1
  H+  H5  1  1.03853743  0.65098376  1.00812771  1
  H+  H6  1  0.88658221  0.85933363  0.99358939  1
  H+  H7  1  0.39660836  0.28293125  0.99521343  1
  H+  H8  1  0.69908507  0.83158811  0.32665765  1
  H+  H9  1  0.64448404  0.26908498  0.65306974  1
  H+  H10  1  0.88390788  0.52247652  0.84357248  1
  H+  H11  1  0.36756089  0.28218564  0.66160676  1
  H+  H12  1  0.17332846  0.33621356  0.94232795  1
  H+  H13  1  0.27465111  0.39776991  0.16352518  1
  H+  H14  1  0.28055239  0.64146916  0.02795952  1
  H+  H15  1  0.27433578  0.63267220  0.83044993  1
  H+  H16  1  0.72792845  0.86165917  0.17596408  1
  H+  H17  1  0.94113688  0.05755503  0.80275265  1
  H+  H18  1  0.38646899  0.24381170  0.16820990  1
  H+  H19  1  0.87251406  0.64921592  0.00975252  1
  H+  H20  1  0.15291485  0.62503599  0.00343989  1
  H+  H21  1  0.98140913  0.62336882  0.17310376  1
  H+  H22  1  0.89342010  0.62599291  0.17470282  1
  H+  H23  1  0.08446877  0.90645401  0.13157623  1
  H+  H24  1  0.17741057  0.28923937  0.66995167  1
  H+  H25  1  0.12479084  0.12062226  0.83352523  1
  H+  H26  1  0.38056632  0.60168925  0.32291043  1
  H+  H27  1  0.11626988  0.29967706  0.18773374  1
  H+  H28  1  0.79300531  0.43827683  -0.05561427  1
  H+  H29  1  0.85420913  0.22615760  0.67356365  1
  H+  H30  1  0.49525546  0.87093000  0.65117871  1
  H+  H31  1  0.88022558  0.60195050  0.50605768  1
  H+  H32  1  0.31517380  0.37619420  0.65705130  1
  H+  H33  1  0.62284902  0.88277533  1.01366982  1
  H+  H34  1  0.59043964  0.47792840  0.67381473  1
  H+  H35  1  0.38906602  0.36942569  0.17625334  1
  H+  H36  1  0.23817379  0.86948468  0.33434066  1
  H+  H37  1  0.01795453  0.37659574  0.49384366  1
  H+  H38  1  0.14620417  0.53258102  1.00640512  1
  H+  H39  1  0.39204828  0.32057321  0.89766635  1
  H+  H40  1  0.71996589  0.60332932  0.65947023  1
  H+  H41  1  0.83012579  0.95064821  0.82907995  1
  H+  H42  1  0.87140112  0.63726283  0.34536267  1
  H+  H43  1  0.86421775  0.95677002  0.01132692  1
  H+  H44  1  0.11142566  0.47263852  0.82775647  1
  H+  H45  1  0.77795537  0.64351358  0.16036986  1
  H+  H46  1  1.01775687  0.39146444  0.82281983  1
  H+  H47  1  0.90108384  0.27510107  0.31473655  1
  H+  H48  1  0.38553132  0.73256643  0.48636281  1
  H+  H49  1  0.72832862  0.86785346  0.50006747  1
  H+  H50  1  0.62249224  0.89408956  0.49875396  1
  H+  H51  1  0.81952429  0.90056485  0.72737861  1
  H+  H52  1  0.61558511  0.71850336  0.49860145  1
  H+  H53  1  0.36253084  0.48350351  0.83605846  1
  H+  H54  1  0.84053468  0.91619273  0.10887491  1
  H+  H55  1  0.37120568  0.64060255  0.12200583  1
  H+  H56  1  0.64367241  0.60602252  0.51041861  1
  H+  H57  1  0.75115220  0.85832852  0.82945766  1
  H+  H58  1  0.46555157  0.59494789  0.31930763  1
  H+  H59  1  1.02190360  0.40628722  0.15962432  1
  H+  H60  1  0.39643583  0.61267693  0.49713110  1
  H+  H61  1  0.14131766  0.86965614  0.64790631  1
  H+  H62  1  0.13632273  0.36582184  1.00086692  1
  H+  H63  1  0.39096392  1.03323315  0.66164197  1
  H+  H64  1  0.38541130  0.86231697  0.16448474  1
  H+  H65  1  0.40765775  0.82819883  0.94859200  1
  H+  H66  1  0.64149606  0.62158728  -0.00598773  1
  H+  H67  1  0.60570456  0.96932120  0.84076798  1
  H+  H68  1  0.86740067  0.47581204  0.67223727  1
  H+  H69  1  0.88879929  0.77443760  0.17937504  1
  H+  H70  1  0.92618241  0.59885073  0.93784623  1
  H+  H71  1  0.16888148  0.82730101  0.89150714  1
  H+  H72  1  0.40108088  0.07122793  0.90111803  1
  H+  H73  1  0.49863825  0.11955253  0.16985013  1
  H+  H74  1  0.28016515  0.88779745  0.48675114  1
  H+  H75  1  0.62637492  0.74346414  1.00903495  1
  H+  H76  1  0.17857427  0.09643883  0.15585870  1
  H+  H77  1  0.38591177  0.36622842  0.50772273  1
  H+  H78  1  0.60135364  0.26185451  0.83009484  1
  H+  H79  1  0.69262330  0.35184558  0.20729640  1
  H+  H80  1  0.28005089  0.64147961  0.66950940  1
  H+  H81  1  0.07151672  0.17063082  0.69007375  1
  H+  H82  1  0.52909450  0.62813939  0.50044823  1
  H+  H83  1  0.23248566  0.36938914  0.50261287  1
  H+  H84  1  0.38100780  0.77279195  0.15330484  1
  H+  H85  1  0.91822605  0.19455701  -0.04807122  1
  H+  H86  1  0.27889072  0.14108650  0.34471305  1
  H+  H87  1  0.73216410  0.04965246  0.96072538  1
  H+  H88  1  0.60925559  0.71800156  0.80548427  1
  H+  H89  1  0.36919071  0.14857541  0.67155672  1
  H+  H90  1  0.97504155  0.61412628  0.65167256  1
  H+  H91  1  0.52384885  0.87407981  0.15992421  1
  H+  H92  1  0.66672411  0.06742106  0.18987495  1
  H+  H93  1  1.00122663  0.14717634  0.67979422  1
  H+  H94  1  0.09883959  0.85716640  0.81608538  1
  H+  H95  1  0.12130868  0.99667855  -0.02326428  1
  H+  H96  1  0.47882462  0.61819603  0.83678376  1
  H+  H97  1  0.22934890  0.86461397  0.64897466  1
  H+  H98  1  0.86698805  0.23494809  0.49826398  1
  H+  H99  1  0.87142964  0.73667317  0.00721427  1
  H+  H100  1  0.28342837  0.15137219  0.01985431  1
  H+  H101  1  0.27614325  0.13639869  0.66958227  1
  H+  H102  1  0.46383357  0.85645062  0.85968356  1
  H+  H103  1  0.13396044  0.52805588  0.32755344  1
  H+  H104  1  0.77070060  0.62240407  0.82887829  1
  H+  H105  1  0.12203469  0.73275928  0.34552037  1
  H+  H106  1  0.63172659  0.86461631  0.64487524  1
  H+  H107  1  0.93754480  0.10385813  0.65570853  1
  H+  H108  1  0.61115327  0.12956774  0.65438611  1
  H+  H109  1  0.67349978  0.56553364  0.91048688  1
  H+  H110  1  0.47863234  0.62507982  0.14909224  1
  H+  H111  1  0.11649212  0.41371662  0.16524979  1
  H+  H112  1  0.64442764  0.51401240  0.51659717  1
  H+  H113  1  0.63397045  1.00977427  0.64310086  1
  H+  H114  1  0.61221331  0.72358333  0.65781915  1
  H+  H115  1  0.08487980  0.42077938  0.73024896  1
  H+  H116  1  0.76599214  0.87660865  0.01954420  1
  H+  H117  1  0.35529180  0.25679311  0.84064875  1
  H+  H118  1  0.42297976  0.59408102  0.93871093  1
  H+  H119  1  0.14880549  0.21680626  0.14578348  1
  H+  H120  1  0.47376985  0.86254333  0.31984398  1
  H+  H121  1  0.39124333  0.61682177  0.65136260  1
  H+  H122  1  0.86894642  0.46969417  0.49921625  1
  H+  H123  1  0.87502641  0.99587104  0.48434159  1
  H+  H124  1  0.37631624  0.85776400  0.85154179  1
  H+  H125  1  0.15339359  0.11539932  0.66335409  1
  H+  H126  1  0.10902858  0.72395475  0.49021026  1
  H+  H127  1  0.64421242  0.61950566  0.16571787  1
  H+  H128  1  0.59982092  0.09797286  0.18872827  1
  H+  H129  1  0.36642351  0.13756328  0.33895949  1
  H+  H130  1  0.11936594  0.73754803  0.64692261  1
  H+  H131  1  0.60824387  0.39519783  0.36205854  1
  H+  H132  1  0.85994049  0.48691638  0.17828418  1
  H+  H133  1  0.41648180  0.12930918  0.17300473  1
  H+  H134  1  0.39949182  0.87211767  0.50332276  1
  H+  H135  1  0.97300448  0.60906154  0.50538526  1
  H+  H136  1  0.10251341  0.63027270  0.49432539  1
  H+  H137  1  0.85546356  0.00647967  0.65163554  1
  H+  H138  1  0.59991655  0.13293919  0.82728984  1
  H+  H139  1  0.35771498  0.72457692  0.83128721  1
  H+  H140  1  0.63474076  0.85542901  0.17117693  1
  H+  H141  1  0.25758355  0.10825617  0.81992905  1
  H+  H142  1  0.47703397  0.61304558  0.64871082  1
  H+  H143  1  0.86234556  0.63200887  0.82799524  1
  H+  H144  1  0.14296124  0.61269704  0.65326777  1
  H+  H145  1  0.46607173  0.10546173  0.99522119  1
  H+  H146  1  0.87641214  0.84765871  0.83523009  1
  H+  H147  1  0.58674257  0.70427797  0.32934724  1
  H+  H148  1  0.34938560  0.38920865  0.82935368  1
  H+  H149  1  0.14271980  0.60666242  0.86024839  1
  H+  H150  1  0.12705241  0.40751652  0.34086758  1
  H+  H151  1  -0.01535892  0.61939220  0.32922227  1
  H+  H152  1  0.08698668  0.92262895  0.39323918  1
  H+  H153  1  0.22482867  0.85222502  0.83113488  1
  H+  H154  1  0.12331842  0.16011300  0.34400642  1
  H+  H155  1  0.98551657  0.86855558  0.32902728  1
  H+  H156  1  0.13753070  0.03509792  0.33014819  1
  H+  H157  1  0.85668483  0.14849241  0.34349346  1
  H+  H158  1  0.89240431  0.86223287  0.33044443  1
  H+  H159  1  0.93164514  0.33536598  0.22044503  1
  H+  H160  1  0.86041328  0.63131743  0.67073226  1
  H+  H161  1  0.88206198  0.02075795  0.18037065  1
  H+  H162  1  0.97465793  0.35760516  0.66144195  1
  H+  H163  1  0.14553753  0.13889054  0.99556461  1
  H+  H164  1  0.12328673  0.39338253  0.67457619  1
  H+  H165  1  0.94450730  0.20671458  0.98069830  1
  H+  H166  1  0.37261426  0.98096128  0.33801581  1
  H+  H167  1  0.53533542  0.65096081  1.00488138  1
  H+  H168  1  0.01381144  0.87022373  0.48401877  1
  H+  H169  1  0.12349588  0.89607563  0.33647745  1
  H+  H170  1  0.88440118  0.38898777  0.98936170  1
  H+  H171  1  0.76776213  0.62202306  0.49799746  1
  H+  H172  1  0.48153021  0.37659521  0.17369260  1
  H+  H173  1  0.01990724  0.87904569  0.18694739  1
  H+  H174  1  0.49155186  0.39718623  0.67733430  1
  H+  H175  1  0.07835313  0.12701011  0.16713064  1
  H+  H176  1  0.35744581  0.97145645  0.82989025  1
  H+  H177  1  0.47932262  0.11757031  0.33322761  1
  H+  H178  1  0.71524226  0.11621173  0.33430843  1
  H+  H179  1  0.13754756  0.86383837  0.49156952  1
  H+  H180  1  0.27587344  0.64125137  0.33600734  1
  H+  H181  1  0.61793972  0.72645467  0.15747099  1
  H+  H182  1  0.23885921  0.37619599  0.85645957  1
  H+  H183  1  0.11737029  0.51619114  0.50308097  1
  H+  H184  1  0.71571043  0.10281681  0.83649728  1
  H+  H185  1  0.53545311  0.38787457  0.50835345  1
  H+  H186  1  0.86338230  0.82797760  0.51124206  1
  H+  H187  1  0.27520377  0.39236210  1.01159501  1
  H+  H188  1  0.89424964  0.37828456  0.17502576  1
  H+  H189  1  0.59945224  0.46732815  0.82303225  1
  H+  H190  1  0.73215917  0.35020677  0.50614613  1
  H+  H191  1  0.03381396  0.90750846  -0.03488167  1
  H+  H192  1  0.11753822  0.98738933  0.82058420  1
  H+  H193  1  0.16736455  0.27767352  0.86184728  1
  H+  H194  1  0.38810042  0.53787830  0.15496311  1
  H+  H195  1  0.87486837  0.74586269  0.50652960  1
  H+  H196  1  0.85695206  0.13682225  0.82072282  1
  H+  H197  1  0.57262737  0.16686956  0.40845660  1
  H+  H198  1  0.60109394  -0.02954749  0.34038323  1
  H+  H199  1  0.75647560  0.15281263  0.01854980  1
  H+  H200  1  0.81575634  0.10308332  0.17458918  1
  H+  H201  1  0.64415565  0.00487890  0.99556471  1
  H+  H202  1  -0.02801903  0.12287122  0.50507415  1
  H+  H203  1  0.70271184  0.50529968  0.88078867  1
  H+  H204  1  0.14872878  0.29877144  0.32856570  1
  H+  H205  1  0.84066199  0.13084388  0.67114290  1
  H+  H206  1  0.38686051  0.27496267  0.33150928  1
  H+  H207  1  0.02432811  0.40100998  0.01095979  1
  H+  H208  1  0.60504663  0.13756532  0.35069966  1
  H+  H209  1  0.36804160  0.86529706  0.67109553  1
  H+  H210  1  0.71942593  0.85803305  0.65107663  1
  H+  H211  1  0.12506879  0.73591388  0.16334774  1
  H+  H212  1  0.85687878  0.87676991  0.66909734  1
  H+  H213  1  0.14245898  0.52351353  0.65887706  1
  H+  H214  1  0.53043412  0.88596239  1.00989130  1
  H+  H215  1  0.13129999  0.01136521  0.88778779  1
  H+  H216  1  0.10865968  0.10029450  0.50782852  1
  H+  H217  1  0.41659649  0.57932624  0.55940345  1
  H+  H218  1  0.92460018  0.59238934  0.27023991  1
  H+  H219  1  0.58601521  0.12669518  1.00046440  1
  H+  H220  1  0.65264469  0.48817491  0.00984619  1
  H+  H221  1  0.00835890  0.85692378  0.81667910  1
  H+  H222  1  0.86845707  0.38733799  0.67522189  1
  H+  H223  1  0.39592289  0.61998895  1.00150403  1
  H+  H224  1  1.03874359  0.16784279  0.34093377  1
  H+  H225  1  0.87052572  0.29783604  0.00395343  1
  H+  H226  1  0.58816991  0.23677308  0.98966516  1
  H+  H227  1  0.72911276  0.11930378  0.49984973  1
  H+  H228  1  0.58366457  0.36902489  0.81840685  1
  H+  H229  1  -0.05026281  0.12155269  0.17399187  1
  H+  H230  1  0.11528942  0.71775298  0.83598086  1
  H+  H231  1  0.61027519  0.13342980  0.49610861  1
  H+  H232  1  0.13830741  0.01936253  0.65828666  1
  H+  H233  1  0.89834628  0.07508833  0.96373300  1
  H+  H234  1  0.36209929  0.47946234  0.33857350  1
  H+  H235  1  0.60291926  0.62622186  0.32897868  1
  H+  H236  1  0.60654832  0.38867299  0.16632096  1
  H+  H237  1  0.62608398  0.99321273  0.49911557  1
  H+  H238  1  0.11156379  0.23592854  0.49981484  1
  H+  H239  1  0.62112703  0.38104799  0.51161823  1
  H+  H240  1  0.82918193  0.65794764  0.73117359  1
  H+  H241  1  0.50812991  0.12449476  0.82993285  1
  H+  H242  1  0.71713709  0.10723858  0.65354237  1
  H+  H243  1  0.86659800  0.39671405  0.82890888  1
  H+  H244  1  0.62535906  0.27489795  0.16609949  1
  H+  H245  1  0.15220172  0.01165947  0.19087692  1
  H+  H246  1  0.52991056  0.14147068  0.66242598  1
  H+  H247  1  0.38963629  0.78003555  1.01258249  1
  H+  H248  1  0.52082625  0.39288262  0.35883187  1
  H+  H249  1  0.87055051  -0.10903607  0.17036563  1
  H+  H250  1  0.61377195  0.63433078  0.66000907  1
  H+  H251  1  0.91882333  0.05438212  0.33804215  1
  H+  H252  1  0.37144745  0.09800182  0.83918470  1
  H+  H253  1  0.40293702  0.77840135  0.65467594  1
  H+  H254  1  0.37017020  0.88970360  0.33501341  1
  H+  H255  1  0.73142298  0.35935111  0.65786388  1
  H+  H256  1  0.87336847  0.38351266  0.49768890  1
  H+  H257  1  0.14713203  0.86208328  0.18921194  1
  H+  H258  1  0.61515839  0.22516838  0.50029744  1
  H+  H259  1  0.36272417  0.47677496  0.49211386  1
  H+  H260  1  0.64482799  0.53067371  0.16950536  1
  H+  H261  1  0.37670314  0.14687604  0.49809515  1
  H+  H262  1  0.15540972  0.58775180  0.24640497  1
  H+  H263  1  0.59398219  0.67333585  0.09497095  1
  H+  H264  1  0.12611128  0.52838963  0.17713287  1
  H+  H265  1  0.36551970  0.48078472  0.01033034  1
  H+  H266  1  0.58246454  0.16782967  0.08052337  1
  H+  H267  1  0.41160805  0.82972249  0.26067626  1
  H+  H268  1  0.62606518  0.38721356  0.00692810  1
  H+  H269  1  0.73258936  0.62551142  0.99737746  1
  H+  H270  1  0.52702035  0.89523092  0.50104812  1
  H+  H271  1  0.39060945  0.36715235  -0.00712804  1
  H+  H272  1  0.20450321  0.13704411  0.94306429  1
  H+  H273  1  0.14612291  0.87722925  -0.03187617  1
  H+  H274  1  0.13000333  0.62424671  0.17855783  1
  H+  H275  1  0.35887250  0.38658585  0.34220916  1
  H+  H276  1  0.35775851  -0.02099522  1.00627231  1
  H+  H277  1  0.63395450  0.28307921  0.34140596  1
  H+  H278  1  0.23069893  0.87223502  0.98606442  1
  H+  H279  1  0.87744473  0.27255401  0.84210194  1
  H+  H280  1  0.99398791  0.35922062  0.31468192  1
  H+  H281  1  0.88237289  0.76530248  0.66173390  1
  H+  H282  1  0.66348697  0.19219245  0.12638105  1
  H+  H283  1  0.80968041  0.94272657  0.32402339  1
  H+  H284  1  0.05913869  0.15596184  0.82964303  1
  H+  H285  1  0.59912960  0.88062764  0.33239887  1
  H+  H286  1  0.48127621  0.11244855  0.51200288  1
  H+  H287  1  1.02055185  0.87885317  0.66235036  1
  H+  H288  1  0.55945410  0.89250271  0.79296304  1
  H+  H289  1  0.67601107  0.32473782  0.56823326  1
  H+  H290  1  0.13948764  0.19026551  0.74501658  1
  H+  H291  1  0.83842910  0.41745096  0.40032437  1
  H+  H292  1  0.11550844  0.88462480  0.06312420  1
  H+  H293  1  0.82756430  0.91994428  0.39155067  1
  H+  H294  1  0.58572976  0.90653058  0.10255718  1
  H+  H295  1  0.41458622  0.08315849  0.59791752  1
  H+  H296  1  0.32331054  0.15378931  0.76453907  1
  H+  H297  1  0.90912813  0.81871308  0.59995298  1
  H+  H298  1  0.28323169  0.80797893  0.70625361  1
  H+  H299  1  0.90898155  0.82806613  0.93029154  1
  H+  H300  1  0.97195855  0.61195796  0.85129999  1
  H+  H301  1  0.99204383  0.09693174  0.97462872  1
  H+  H302  1  0.91519125  0.82847017  0.24261040  1
  H+  H303  1  0.39170904  0.02285219  0.50768719  1
  H+  H304  1  0.11055903  0.23728929  0.00401358  1
  H+  H305  1  0.17135276  0.84050408  0.55118704  1
  H+  H306  1  0.61017472  0.31171220  0.89093916  1
  H+  H307  1  0.73579374  0.62307814  0.32446061  1
  H+  H308  1  0.08258884  0.18240998  0.43853030  1
  H+  H309  1  0.42902079  0.84206059  0.56372623  1
  H+  H310  1  0.09595595  0.67928272  0.10175928  1
  H+  H311  1  0.39210791  0.62180110  0.84256309  1
  H+  H312  1  0.79316639  0.15987162  0.13207170  1
  H+  H313  1  0.91075872  0.57785530  0.59609965  1
  H+  H314  1  0.90875542  0.93370430  0.46512389  1
  H+  H315  1  0.24169993  0.38391184  0.32884602  1
  H+  H316  1  0.68524971  0.85287173  0.95581425  1
  H+  H317  1  0.93751029  0.06980450  0.87605814  1
  H+  H318  1  0.33239475  0.41890380  0.10342224  1
  H+  H319  1  0.18368412  0.58100020  0.91347472  1
  H+  H320  1  0.07738057  0.63335874  0.79300779  1
  H+  H321  1  0.23965183  0.86999663  0.17770372  1
  H+  H322  1  0.33372326  0.92596583  0.10078040  1
  H+  H323  1  0.08498353  0.66734002  0.40249056  1
  H+  H324  1  0.08457307  0.42608996  0.39900770  1
  H+  H325  1  0.96353000  0.28015864  0.54626217  1
  H+  H326  1  0.39809524  0.33928314  0.60105234  1
  H+  H327  1  0.14320846  0.06773401  0.56273292  1
  H+  H328  1  0.80265433  0.41708567  0.13017490  1
  H+  H329  1  0.92095005  0.09542160  0.27343876  1
  H+  H330  1  0.09287717  0.96574324  0.48951153  1
  H+  H331  1  0.75296215  0.44347868  0.00720547  1
  H+  H332  1  0.35158982  0.17801161  0.07430652  1
  H+  H333  1  0.65419102  0.82141018  0.26238615  1
  H+  H334  1  0.07683686  0.89887786  0.72185787  1
  H+  H335  1  0.11289178  0.39030125  0.49081389  1
  H+  H336  1  0.66712480  0.57520748  0.59727412  1
  H+  H337  1  0.39027995  0.27930961  0.51154307  1
  H+  H338  1  0.72412337  0.36925328  0.34011764  1
  H+  H339  1  0.61713145  0.76646761  0.89110581  1
  H+  H340  1  0.35026393  0.67331832  0.42801077  1
  H+  H341  1  0.66153076  0.07462941  0.89778585  1
  H+  H342  1  0.33714016  0.67079324  0.72988674  1
  H+  H343  1  0.55870090  0.41764503  0.75086159  1
  H+  H344  1  0.86404803  0.47809001  0.34302327  1
  H+  H345  1  0.35005136  0.17781981  0.43898172  1
  H+  H346  1  0.08307822  0.42941913  0.07063052  1
  H+  H347  1  0.64179574  0.07919819  0.28203240  1
  H+  H348  1  0.36500228  0.72825526  0.33196354  1
  H+  H349  1  0.15648077  0.57678959  0.56119574  1
  H+  H350  1  0.34543950  0.92088351  0.43115457  1
  H+  H351  1  0.59894002  0.92395855  0.70537992  1
  H+  H352  1  0.17991714  0.34513369  0.56461921  1
  H+  H353  1  0.18058451  0.83483799  0.27498364  1
  H+  H354  1  0.84185859  0.67853357  0.10324415  1
  H+  H355  1  0.87250472  0.72631232  0.34892950  1
  H+  H356  1  0.09467370  0.69226106  0.70944457  1
  H+  H357  1  0.15004588  0.93150476  0.06393563  1
  H+  H358  1  0.17473696  0.09843569  0.27437116  1
  H+  H359  1  0.57200961  0.65620185  0.75001418  1
  H+  H360  1  0.67037089  0.83782399  0.56092739  1
  H+  H361  1  0.37525342  -0.01397005  0.15980609  1
  H+  H362  1  0.17143158  0.35995041  0.24212333  1
  H+  H363  1  0.90936422  0.33418522  0.90066694  1
  H+  H364  1  0.33062761  0.41625350  0.43300927  1
  H+  H365  1  0.83128269  0.65533055  0.43789106  1
  H+  H366  1  0.68648887  0.60208065  0.26050051  1
  H+  H367  1  0.84190802  0.42964467  0.76949497  1
  H+  H368  1  0.42009917  0.33871737  0.27448007  1
  H+  H369  1  0.82029067  0.16589979  0.76583838  1
  H+  H370  1  0.85314537  0.14076565  0.48607612  1
  H+  H371  1  0.42978761  0.08903563  0.26936875  1
  H+  H372  1  0.35957627  0.89018405  0.01193672  1
  H+  H373  1  0.33683964  0.90858443  0.77092231  1
  H+  H374  1  0.60081126  0.42863599  0.10415698  1
  H+  H375  1  0.07067077  0.16626790  0.05767016  1
  H+  H376  1  0.87478433  0.75802943  0.83699498  1
  H+  H377  1  0.12586562  0.73981177  0.00411275  1
  H+  H378  1  0.84847781  0.18060355  0.04043467  1
  H+  H379  1  0.30852766  0.14681791  0.17384080  1
  H+  H380  1  0.82686832  0.18163675  0.39991978  1
  H+  H381  1  0.67012847  0.08347180  0.56179346  1
  H+  H382  1  0.91651273  0.32481111  0.60159557  1
  H+  H383  1  0.89949381  0.07931163  0.55845774  1
  O2-  O384  1  0.08712588  0.17646358  0.14322034  1
  O2-  O385  1  0.07495346  0.17604028  0.48340957  1
  O2-  O386  1  0.11895303  0.17136519  0.82203327  1
  O2-  O387  1  0.08683809  0.44284258  0.14717298  1
  O2-  O388  1  0.07713794  0.41387355  0.47479950  1
  O2-  O389  1  0.07469745  0.42141492  0.80317761  1
  O2-  O390  1  0.09105673  0.67561004  0.14717538  1
  O2-  O391  1  0.07407219  0.66303128  0.47707301  1
  O2-  O392  1  0.08036095  0.65219079  0.83477220  1
  O2-  O393  1  0.08403720  0.90914535  0.17600886  1
  O2-  O394  1  0.07304227  0.90779928  0.46919941  1
  O2-  O395  1  0.06679916  0.88380598  0.79789037  1
  O2-  O396  1  0.36379013  0.18252381  0.15331109  1
  O2-  O397  1  0.35048849  0.18070055  0.48384197  1
  O2-  O398  1  0.31886015  0.14528640  0.80987191  1
  O2-  O399  1  0.33420220  0.42093163  0.14912542  1
  O2-  O400  1  0.32892735  0.41456145  0.47864160  1
  O2-  O401  1  0.32330872  0.42565840  0.81987987  1
  O2-  O402  1  0.33661374  0.67143834  0.10785637  1
  O2-  O403  1  0.35659430  0.67255240  0.47281650  1
  O2-  O404  1  0.33268899  0.66708553  0.81187041  1
  O2-  O405  1  0.33781499  0.92536153  0.14623022  1
  O2-  O406  1  0.34268337  0.91866240  0.47677364  1
  O2-  O407  1  0.33019833  0.90915332  0.81557825  1
  O2-  O408  1  0.60444529  0.18046511  0.12787834  1
  O2-  O409  1  0.57816782  0.16327737  0.48526357  1
  O2-  O410  1  0.56776326  0.16137551  0.81544937  1
  O2-  O411  1  0.58545606  0.42666639  0.14747314  1
  O2-  O412  1  0.59633831  0.41824327  0.52022113  1
  O2-  O413  1  0.56305011  0.41157529  0.80245430  1
  O2-  O414  1  0.58801432  0.66684729  0.14026659  1
  O2-  O415  1  0.59281358  0.65654110  0.49617796  1
  O2-  O416  1  0.57189694  0.65749824  0.79569505  1
  O2-  O417  1  0.58426928  0.89786774  0.14711001  1
  O2-  O418  1  0.59158356  0.92699354  0.48770503  1
  O2-  O419  1  0.57138250  0.90381060  0.83614809  1
  O2-  O420  1  0.76812212  0.10730885  0.15616776  1
  O2-  O421  1  0.82629015  0.17569988  0.47583264  1
  O2-  O422  1  0.82110188  0.16259833  0.81171279  1
  O2-  O423  1  0.82523149  0.42346154  0.17117572  1
  O2-  O424  1  0.84028719  0.40952368  0.48321225  1
  O2-  O425  1  0.84348352  0.43365715  0.81491452  1
  O2-  O426  1  0.84125836  0.67695536  0.14862978  1
  O2-  O427  1  0.83114417  0.65384986  0.48364227  1
  O2-  O428  1  0.82898367  0.65858082  0.81100012  1
  O2-  O429  1  0.84257329  0.92292328  0.15430776  1
  O2-  O430  1  0.85597748  0.93658011  0.46553767  1
  O2-  O431  1  0.80985098  0.89345583  0.81216285  1
  O2-  O432  1  0.18887380  0.07613472  0.19417296  1
  O2-  O433  1  0.12054625  0.05460163  0.52072134  1
  O2-  O434  1  0.14497089  0.03960000  0.84729572  1
  O2-  O435  1  0.16351375  0.35749567  0.19558217  1
  O2-  O436  1  0.17166813  0.34021189  0.52014559  1
  O2-  O437  1  0.18185397  0.33444216  0.87754416  1
  O2-  O438  1  0.15499622  0.58913553  0.19704076  1
  O2-  O439  1  0.14184189  0.57625805  0.51789308  1
  O2-  O440  1  0.17716115  0.57868827  0.86839370  1
  O2-  O441  1  0.18087245  0.83280529  0.19592413  1
  O2-  O442  1  0.17023988  0.83578834  0.50612788  1
  O2-  O443  1  0.16370857  0.81900107  0.84596367  1
  O2-  O444  1  0.43973661  0.09166861  0.18616894  1
  O2-  O445  1  0.41954425  0.08101633  0.52650634  1
  O2-  O446  1  0.40014242  0.06648700  0.85561443  1
  O2-  O447  1  0.42200056  0.34149500  0.19039685  1
  O2-  O448  1  0.41505344  0.33883225  0.52890089  1
  O2-  O449  1  0.37460633  0.31568262  0.85427727  1
  O2-  O450  1  0.41513182  0.60094584  0.15094901  1
  O2-  O451  1  0.42014309  0.57648614  0.51368230  1
  O2-  O452  1  0.42492026  0.59650957  0.86125988  1
  O2-  O453  1  0.40993167  0.82608658  0.17766060  1
  O2-  O454  1  0.43485809  0.84687441  0.51822439  1
  O2-  O455  1  0.40182758  0.82456035  0.87000664  1
  O2-  O456  1  0.61524941  0.06081519  0.21134636  1
  O2-  O457  1  0.66797542  0.08226704  0.51509042  1
  O2-  O458  1  0.65570352  0.06981643  0.85284851  1
  O2-  O459  1  0.63447799  0.32483791  0.19077007  1
  O2-  O460  1  0.67224021  0.31965922  0.52149390  1
  O2-  O461  1  0.61883172  0.32095361  0.84636121  1
  O2-  O462  1  0.67910684  0.59326937  0.17966884  1
  O2-  O463  1  0.67860186  0.57938898  0.52450985  1
  O2-  O464  1  0.68258391  0.54477138  0.86972792  1
  O2-  O465  1  0.66715850  0.82646561  0.18834015  1
  O2-  O466  1  0.66915833  0.84205662  0.51450866  1
  O2-  O467  1  0.65268040  0.81709858  0.86637177  1
  O2-  O468  1  0.90156527  0.07984011  0.19830350  1
  O2-  O469  1  0.90846537  0.08580790  0.51340103  1
  O2-  O470  1  0.93159829  0.08955471  0.83461940  1
  O2-  O471  1  0.92997955  0.35050223  0.17641820  1
  O2-  O472  1  0.93332777  0.30937510  0.53216087  1
  O2-  O473  1  0.90967634  0.33325497  0.85566158  1
  O2-  O474  1  0.92251869  0.59459392  0.19040898  1
  O2-  O475  1  0.91322195  0.57434129  0.52209798  1
  O2-  O476  1  0.91027048  0.58342526  0.86253210  1
  O2-  O477  1  0.91997276  0.83439211  0.19703491  1
  O2-  O478  1  0.90437944  0.80934855  0.52114025  1
  O2-  O479  1  0.90814040  0.81980355  0.85079372  1
  O2-  O480  1  0.16721974  0.09735629  0.31874837  1
  O2-  O481  1  0.17260626  0.07887365  0.64229062  1
  O2-  O482  1  0.18294879  0.11408723  0.98348756  1
  O2-  O483  1  0.17947781  0.35840491  0.31223844  1
  O2-  O484  1  0.19281024  0.34456625  0.64814344  1
  O2-  O485  1  0.16518985  0.33279115  0.99024884  1
  O2-  O486  1  0.16245750  0.58817433  0.30906841  1
  O2-  O487  1  0.17556973  0.58384365  0.64277846  1
  O2-  O488  1  0.18426790  0.59382993  0.99353751  1
  O2-  O489  1  0.17663438  0.83884522  0.31994274  1
  O2-  O490  1  0.17202206  0.84076210  0.62978468  1
  O2-  O491  1  0.17250013  0.84002244  0.96598849  1
  O2-  O492  1  0.41984497  0.08518648  0.31384066  1
  O2-  O493  1  0.41545477  0.09022801  0.64403683  1
  O2-  O494  1  0.40392459  0.07446885  0.97829629  1
  O2-  O495  1  0.41141582  0.33613916  0.31892649  1
  O2-  O496  1  0.38797087  0.34138589  0.64655825  1
  O2-  O497  1  0.42018911  0.33884848  0.97439953  1
  O2-  O498  1  0.40218894  0.56428507  0.30783137  1
  O2-  O499  1  0.41730923  0.58525140  0.63308478  1
  O2-  O500  1  0.42475822  0.59038897  0.98417685  1
  O2-  O501  1  0.41098782  0.83192733  0.30566668  1
  O2-  O502  1  0.42942196  0.83910178  0.64007686  1
  O2-  O503  1  0.41706566  0.83785550  0.99328933  1
  O2-  O504  1  0.65212661  0.08238784  0.32739592  1
  O2-  O505  1  0.66256386  0.07419114  0.63071065  1
  O2-  O506  1  0.68842752  0.06269945  0.97440066  1
  O2-  O507  1  0.66255835  0.34372450  0.32852968  1
  O2-  O508  1  0.67478305  0.33003933  0.63784835  1
  O2-  O509  1  0.61718837  0.29824406  0.96889697  1
  O2-  O510  1  0.68182577  0.61027768  0.30435132  1
  O2-  O511  1  0.66058761  0.57560323  0.64324692  1
  O2-  O512  1  0.67273035  0.59029314  0.98182331  1
  O2-  O513  1  0.64462829  0.81857743  0.30776802  1
  O2-  O514  1  0.66186870  0.83007692  0.63181433  1
  O2-  O515  1  0.67688996  0.84361657  0.99955007  1
  O2-  O516  1  0.93120602  0.10777593  0.31813252  1
  O2-  O517  1  0.87717452  0.06560567  0.63513564  1
  O2-  O518  1  0.93738073  0.05410210  0.95359945  1
  O2-  O519  1  0.94975771  0.31400427  0.28850532  1
  O2-  O520  1  0.91364142  0.32795064  0.64807762  1
  O2-  O521  1  0.91029464  0.35288013  0.98298595  1
  O2-  O522  1  0.92366834  0.59041987  0.31541074  1
  O2-  O523  1  0.91311992  0.58139384  0.64209538  1
  O2-  O524  1  0.93292049  0.60350079  0.98338501  1
  O2-  O525  1  0.92333740  0.83252303  0.31732549  1
  O2-  O526  1  0.91189144  0.82555211  0.64511439  1
  O2-  O527  1  0.92207863  0.83658911  0.97466226  1
  O2-  O528  1  0.07859251  0.17170955  0.01330674  1
  O2-  O529  1  0.09739777  0.19469413  0.35853946  1
  O2-  O530  1  0.13674146  0.19252328  0.69965352  1
  O2-  O531  1  0.08450958  0.42674089  0.02506670  1
  O2-  O532  1  0.09109661  0.43302515  0.35360121  1
  O2-  O533  1  0.08802341  0.41975228  0.68428769  1
  O2-  O534  1  0.09919006  0.68149716  0.02288451  1
  O2-  O535  1  0.08942937  0.67057560  0.35663054  1
  O2-  O536  1  0.09044546  0.67868885  0.66641982  1
  O2-  O537  1  0.09611514  0.94160601  -0.04558221  1
  O2-  O538  1  0.09125770  0.92628266  0.34766736  1
  O2-  O539  1  0.08154947  0.90826135  0.67688751  1
  O2-  O540  1  0.34494655  0.17442620  0.02928565  1
  O2-  O541  1  0.34024969  0.17064088  0.35621132  1
  O2-  O542  1  0.33405463  0.17262765  0.68827981  1
  O2-  O543  1  0.33550562  0.42113531  0.02670939  1
  O2-  O544  1  0.32902157  0.41762913  0.35692579  1
  O2-  O545  1  0.28022146  0.40391298  0.66896098  1
  O2-  O546  1  0.34298769  0.67426285  0.04107895  1
  O2-  O547  1  0.33645777  0.66857874  0.34884177  1
  O2-  O548  1  0.34025974  0.67597896  0.68486625  1
  O2-  O549  1  0.32546767  0.91815392  0.02313631  1
  O2-  O550  1  0.34228984  0.92070163  0.35411059  1
  O2-  O551  1  0.31828229  0.86748111  0.69308534  1
  O2-  O552  1  0.55720862  0.15408474  0.01970035  1
  O2-  O553  1  0.57270025  0.16734770  0.36296153  1
  O2-  O554  1  0.59144773  0.16751755  0.67176741  1
  O2-  O555  1  0.66001712  0.44247625  0.02953946  1
  O2-  O556  1  0.57478910  0.41870729  0.38185093  1
  O2-  O557  1  0.55121912  0.42141435  0.69362928  1
  O2-  O558  1  0.59656381  0.67838451  0.01763355  1
  O2-  O559  1  0.56088197  0.64396357  0.34209178  1
  O2-  O560  1  0.58266848  0.66421831  0.67460846  1
  O2-  O561  1  0.59135787  0.91775193  0.02321263  1
  O2-  O562  1  0.56618263  0.90757904  0.34728079  1
  O2-  O563  1  0.58964921  0.91618349  0.66193607  1
  O2-  O564  1  0.80661601  0.19996545  0.04045174  1
  O2-  O565  1  0.82437546  0.17744404  0.35429625  1
  O2-  O566  1  0.81836858  0.16599832  0.69009329  1
  O2-  O567  1  0.79968663  0.43531688  -0.01175554  1
  O2-  O568  1  0.83363425  0.41728815  0.35562296  1
  O2-  O569  1  0.83967593  0.41830009  0.69177016  1
  O2-  O570  1  0.83962973  0.67695157  0.02414211  1
  O2-  O571  1  0.84093241  0.66607905  0.36330156  1
  O2-  O572  1  0.83031267  0.66187136  0.68599880  1
  O2-  O573  1  0.83187841  0.90104815  0.03167596  1
  O2-  O574  1  0.82233666  0.90440314  0.34733952  1
  O2-  O575  1  0.82440892  0.90579654  0.68268796  1
