# generated using pymatgen
data_H2O
_symmetry_space_group_name_H-M   'P 1'
_cell_length_a   17.96182470
_cell_length_b   17.95112141
_cell_length_c   21.98932202
_cell_angle_alpha   89.98906565
_cell_angle_beta   90.01899870
_cell_angle_gamma   119.92779866
_symmetry_Int_Tables_number   1
_chemical_formula_structural   H2O
_chemical_formula_sum   'H384 O192'
_cell_volume   6144.69025103
_cell_formula_units_Z   192
loop_
 _symmetry_equiv_pos_site_id
 _symmetry_equiv_pos_as_xyz
  1  'x, y, z'
loop_
 _atom_type_symbol
 _atom_type_oxidation_number
  H+  1.0
  O2-  -2.0
loop_
 _atom_site_type_symbol
 _atom_site_label
 _atom_site_symmetry_multiplicity
 _atom_site_fract_x
 _atom_site_fract_y
 _atom_site_fract_z
 _atom_site_occupancy
  H+  H0  1  0.62835808  0.39340221  0.49551348  1
  H+  H1  1  0.77648856  0.22549703  0.89429867  1
  H+  H2  1  0.40797402  0.36302250  0.65849618  1
  H+  H3  1  0.36388470  0.23403058  1.00927177  1
  H+  H4  1  0.65103715  0.02814307  0.50137516  1
  H+  H5  1  0.48331585  0.61518370  0.50169597  1
  H+  H6  1  -0.02005228  0.36922490  -0.00380602  1
  H+  H7  1  0.40075024  0.57642056  0.74252440  1
  H+  H8  1  0.40508835  0.10679234  0.51457368  1
  H+  H9  1  0.12116833  0.76124125  0.99999771  1
  H+  H10  1  0.38333906  0.23960927  0.83155846  1
  H+  H11  1  0.26701696  0.15792783  0.34752440  1
  H+  H12  1  0.53469239  0.14024021  0.84215269  1
  H+  H13  1  0.77734592  0.13223492  0.33271579  1
  H+  H14  1  -0.02046387  0.10842566  0.65803884  1
  H+  H15  1  -0.10218341  0.76726790  0.84224760  1
  H+  H16  1  0.77367339  0.12642330  0.66910267  1
  H+  H17  1  0.61574774  0.21403512  0.68692490  1
  H+  H18  1  0.13734974  0.02848474  0.17744072  1
  H+  H19  1  0.78324243  0.63708103  0.67336965  1
  H+  H20  1  0.86047694  0.30896482  0.81095652  1
  H+  H21  1  0.62474131  0.73958022  0.01621141  1
  H+  H22  1  0.63922264  0.89450652  0.48533093  1
  H+  H23  1  0.59832497  0.15928173  0.74822570  1
  H+  H24  1  0.87245065  0.09606728  0.83384458  1
  H+  H25  1  0.88664748  0.01308090  0.83052097  1
  H+  H26  1  0.63215106  0.00915338  0.97706412  1
  H+  H27  1  0.51062735  0.62280385  0.80401923  1
  H+  H28  1  0.30028723  0.75775477  0.05504450  1
  H+  H29  1  0.90461669  0.26971592  0.16789154  1
  H+  H30  1  0.39265358  0.30402806  0.13610006  1
  H+  H31  1  0.12910545  0.91480846  0.83002125  1
  H+  H32  1  0.00371934  0.40714687  0.83953341  1
  H+  H33  1  0.61909286  0.62002554  0.16665117  1
  H+  H34  1  0.38282202  0.00266884  0.83832823  1
  H+  H35  1  0.63888739  0.01713582  0.65017817  1
  H+  H36  1  0.88940838  0.77302744  -0.00451053  1
  H+  H37  1  0.64122782  0.53478368  -0.00619764  1
  H+  H38  1  0.13839106  0.12410690  0.33498187  1
  H+  H39  1  0.22739631  0.60397082  0.17885651  1
  H+  H40  1  0.88111892  0.89269414  0.49121148  1
  H+  H41  1  0.64858846  0.35732135  0.84303947  1
  H+  H42  1  0.88893400  0.52021393  0.33168590  1
  H+  H43  1  0.21562180  0.36162545  0.66039899  1
  H+  H44  1  0.26946387  0.39172754  0.49620126  1
  H+  H45  1  0.58910486  0.66672631  0.72424322  1
  H+  H46  1  0.37251562  0.48104245  0.64963316  1
  H+  H47  1  0.78600733  0.26405470  0.91352194  1
  H+  H48  1  0.13492869  0.29282137  0.50862611  1
  H+  H49  1  0.63708718  0.28264112  1.00164552  1
  H+  H50  1  0.43983425  0.76792289  0.49448423  1
  H+  H51  1  0.92010274  0.58264033  0.27283875  1
  H+  H52  1  0.44593446  0.08986541  0.57377724  1
  H+  H53  1  0.02772902  0.15149543  0.50049433  1
  H+  H54  1  0.44486393  0.85662901  0.82555607  1
  H+  H55  1  0.53068333  0.12618684  0.48961368  1
  H+  H56  1  0.08697638  0.92195801  0.10304448  1
  H+  H57  1  0.84001600  0.66878565  0.76954573  1
  H+  H58  1  0.15789828  0.82268866  0.12364718  1
  H+  H59  1  0.47827291  0.10093617  0.70175169  1
  H+  H60  1  0.63977523  0.02436474  0.32390871  1
  H+  H61  1  0.22612861  0.84570743  0.52185106  1
  H+  H62  1  0.88742416  0.35313679  0.66162040  1
  H+  H63  1  0.89022783  0.27312602  0.50358232  1
  H+  H64  1  0.36427031  0.63952236  0.66601483  1
  H+  H65  1  0.86598915  0.38513145  0.48891945  1
  H+  H66  1  0.37853054  0.21505098  0.49956188  1
  H+  H67  1  0.78120948  0.13739983  0.48776904  1
  H+  H68  1  0.38965255  0.51978364  0.32770973  1
  H+  H69  1  0.38994653  0.36891040  0.83905921  1
  H+  H70  1  0.13394045  0.02895542  0.51228485  1
  H+  H71  1  0.14578598  0.12278772  0.17542614  1
  H+  H72  1  0.13835042  0.02064042  0.99480917  1
  H+  H73  1  0.36190173  0.63084442  0.33112340  1
  H+  H74  1  0.90459023  0.77856144  0.16023673  1
  H+  H75  1  0.86664789  -0.03267528  1.00188454  1
  H+  H76  1  0.89724673  0.27833261  0.01063761  1
  H+  H77  1  0.89497053  1.01576086  0.32690131  1
  H+  H78  1  0.14572437  0.36682768  0.33584591  1
  H+  H79  1  0.64362683  0.61769382  0.32634646  1
  H+  H80  1  0.31989684  0.70245918  0.47546124  1
  H+  H81  1  0.58662450  0.16696873  0.39565930  1
  H+  H82  1  0.11052405  0.75832782  0.84080965  1
  H+  H83  1  0.38754955  0.11338665  0.32237562  1
  H+  H84  1  0.11298558  0.62198485  0.49390665  1
  H+  H85  1  0.88523971  0.39227766  0.16617978  1
  H+  H86  1  0.39339483  0.86343902  0.32115982  1
  H+  H87  1  0.36329381  0.47516316  0.49517040  1
  H+  H88  1  0.37180068  0.39336875  0.33904520  1
  H+  H89  1  -0.01651096  0.61387651  0.17897333  1
  H+  H90  1  0.88056775  0.87591171  0.82559160  1
  H+  H91  1  0.40289910  0.63430464  1.01428614  1
  H+  H92  1  0.58263949  0.17533863  0.07809547  1
  H+  H93  1  0.87395301  0.72408620  0.67164201  1
  H+  H94  1  0.99194889  0.86707313  0.50102557  1
  H+  H95  1  1.00775842  0.27477088  0.28770554  1
  H+  H96  1  0.87504336  0.89264049  0.15924492  1
  H+  H97  1  0.12326371  0.39505755  0.97661105  1
  H+  H98  1  0.10948486  0.46603616  0.67853507  1
  H+  H99  1  0.11955591  0.11482880  0.84148910  1
  H+  H100  1  0.27670956  0.88150701  0.31516735  1
  H+  H101  1  0.62486960  0.47690779  0.83107615  1
  H+  H102  1  0.10013912  0.67006730  0.85983898  1
  H+  H103  1  0.62971582  0.36272258  0.32484207  1
  H+  H104  1  0.88174204  0.85835536  -0.00444850  1
  H+  H105  1  0.37239652  0.96040180  0.52483545  1
  H+  H106  1  0.11656610  0.62858639  0.16819825  1
  H+  H107  1  0.63003045  0.26970018  0.32686871  1
  H+  H108  1  0.73711153  0.35442434  0.84235799  1
  H+  H109  1  0.41438518  0.57778280  0.10553677  1
  H+  H110  1  0.41281086  0.79804992  0.99234788  1
  H+  H111  1  0.39589469  0.03836157  0.74089490  1
  H+  H112  1  0.53120744  0.63988316  0.33574838  1
  H+  H113  1  0.64656552  0.14119661  1.01121612  1
  H+  H114  1  0.72620513  0.60363267  0.17654386  1
  H+  H115  1  0.58659292  0.42456358  0.06562926  1
  H+  H116  1  0.52981729  0.87650559  0.65090695  1
  H+  H117  1  0.83264073  0.66162272  0.39816926  1
  H+  H118  1  0.13276715  0.98729701  0.34668650  1
  H+  H119  1  0.13892725  0.61663537  0.32712580  1
  H+  H120  1  0.53470859  0.39122868  0.83064822  1
  H+  H121  1  0.33994606  0.41842503  0.40100718  1
  H+  H122  1  0.39538806  0.77453334  0.32631762  1
  H+  H123  1  0.37385399  0.87452667  0.51117861  1
  H+  H124  1  0.14211575  0.51329533  0.17100597  1
  H+  H125  1  0.37693710  0.34892674  0.50716211  1
  H+  H126  1  0.77553219  0.39046483  0.01546199  1
  H+  H127  1  0.48687507  0.61982645  0.65438607  1
  H+  H128  1  0.42107282  0.32626895  0.56158740  1
  H+  H129  1  0.78241913  0.39292049  0.33933693  1
  H+  H130  1  0.53173110  0.88994163  0.33927546  1
  H+  H131  1  0.52601621  0.39067098  0.33016643  1
  H+  H132  1  0.56246468  0.81750614  0.86941040  1
  H+  H133  1  0.12960596  0.89753450  0.33885264  1
  H+  H134  1  0.38135568  0.00531145  0.17504156  1
  H+  H135  1  0.73920307  0.87858813  0.18095376  1
  H+  H136  1  0.01506981  0.13324501  0.82112172  1
  H+  H137  1  0.83962917  0.16246144  0.42786703  1
  H+  H138  1  0.87683805  0.20898665  0.32844852  1
  H+  H139  1  0.12333990  0.54430872  0.84946317  1
  H+  H140  1  0.25655610  0.37471599  0.81373362  1
  H+  H141  1  0.58965312  0.71373176  0.82143312  1
  H+  H142  1  0.11775311  0.89013248  0.16124381  1
  H+  H143  1  0.77814427  0.64191458  1.00286829  1
  H+  H144  1  0.73716533  0.86002186  0.65367775  1
  H+  H145  1  0.12048609  0.72218472  0.16652427  1
  H+  H146  1  0.35790232  0.95664579  0.67092534  1
  H+  H147  1  0.26787908  0.67174295  0.01841173  1
  H+  H148  1  0.87501159  0.73278269  0.48834474  1
  H+  H149  1  0.52604343  0.14552364  0.01667657  1
  H+  H150  1  0.86188947  0.12923386  0.00975405  1
  H+  H151  1  0.11939519  0.71498094  0.49940099  1
  H+  H152  1  0.61303138  0.25757958  0.18107390  1
  H+  H153  1  0.89608636  0.85842835  0.65242520  1
  H+  H154  1  0.28061516  0.14063878  0.67636379  1
  H+  H155  1  -0.01382023  0.86115844  0.65614625  1
  H+  H156  1  0.55002734  0.91467965  0.96104208  1
  H+  H157  1  0.79018451  0.88910551  0.49121444  1
  H+  H158  1  0.64969419  0.87696719  0.17823522  1
  H+  H159  1  0.41596420  0.08192259  0.26306103  1
  H+  H160  1  0.02819481  0.13927952  0.34685436  1
  H+  H161  1  0.65976055  0.53254793  0.49934350  1
  H+  H162  1  0.12668187  0.14362253  0.00836279  1
  H+  H163  1  0.84994449  0.62464028  0.83092231  1
  H+  H164  1  0.32911355  0.39751984  0.60986681  1
  H+  H165  1  0.39835708  0.77577182  0.18035306  1
  H+  H166  1  0.15554320  0.39876013  0.14107706  1
  H+  H167  1  0.64029212  0.35086171  0.67157157  1
  H+  H168  1  0.12216293  0.88582475  0.49771965  1
  H+  H169  1  0.87385039  0.13419126  0.16988415  1
  H+  H170  1  0.38978181  0.03440366  1.00270560  1
  H+  H171  1  0.36295795  0.87938744  0.16471000  1
  H+  H172  1  0.22063776  0.85162801  0.65779064  1
  H+  H173  1  0.33888999  0.63066057  0.80668710  1
  H+  H174  1  0.73358282  0.12370165  0.17592183  1
  H+  H175  1  0.12600706  0.27509536  0.83006898  1
  H+  H176  1  0.87203885  0.97314867  0.66576638  1
  H+  H177  1  0.54054886  0.38663018  0.67571135  1
  H+  H178  1  0.27256311  0.63395168  0.33167981  1
  H+  H179  1  0.22130794  0.57802690  0.49351679  1
  H+  H180  1  0.89382783  0.61666120  0.50403667  1
  H+  H181  1  0.12377589  0.48110556  0.34328173  1
  H+  H182  1  0.73074518  0.62043717  0.83944291  1
  H+  H183  1  0.52662336  0.13911969  0.33587063  1
  H+  H184  1  0.78943499  0.86812141  0.81926386  1
  H+  H185  1  0.88784187  0.51970780  1.00133419  1
  H+  H186  1  0.31604949  0.22779308  0.39854353  1
  H+  H187  1  0.73171473  0.61194496  0.32822473  1
  H+  H188  1  0.88713059  0.60347707  0.66025890  1
  H+  H189  1  0.89138114  0.61020115  0.99428052  1
  H+  H190  1  0.63905611  0.10547177  0.66242244  1
  H+  H191  1  0.14290564  0.27791219  -0.01362430  1
  H+  H192  1  0.86593179  0.47336593  0.48879958  1
  H+  H193  1  0.86195531  0.46506035  0.66940769  1
  H+  H194  1  0.40600662  0.13318015  0.84790026  1
  H+  H195  1  0.26710341  0.12739588  0.16554144  1
  H+  H196  1  0.02413541  0.63506921  0.34112169  1
  H+  H197  1  0.48862660  0.62927422  1.02217887  1
  H+  H198  1  0.75539839  0.10120182  0.82113674  1
  H+  H199  1  0.64121451  0.86698063  0.82731825  1
  H+  H200  1  0.64589011  0.61017005  0.65740873  1
  H+  H201  1  0.51634521  0.39413257  0.15941445  1
  H+  H202  1  0.72714144  0.86318416  0.32898680  1
  H+  H203  1  0.60918293  0.25963613  0.51283482  1
  H+  H204  1  0.88981170  0.11339480  0.50366431  1
  H+  H205  1  0.15417038  0.54120948  0.98513477  1
  H+  H206  1  0.36816231  0.50902329  0.79500194  1
  H+  H207  1  0.12851514  0.76445434  0.66289744  1
  H+  H208  1  0.65014395  0.52320140  0.66001079  1
  H+  H209  1  0.10132636  0.92143480  0.43683887  1
  H+  H210  1  0.62205401  0.98297956  0.16139009  1
  H+  H211  1  0.38668525  0.28313073  0.31915282  1
  H+  H212  1  0.11633223  1.01248475  0.83977757  1
  H+  H213  1  0.63789601  0.61307695  0.83746698  1
  H+  H214  1  0.82022476  0.14164959  0.76501597  1
  H+  H215  1  0.61438114  0.42715024  0.43148239  1
  H+  H216  1  0.61316477  0.35136070  0.17992717  1
  H+  H217  1  0.35930182  0.76716420  0.83134593  1
  H+  H218  1  0.64941136  0.88439331  0.97898504  1
  H+  H219  1  0.39310797  0.77020863  0.64589614  1
  H+  H220  1  0.90956334  1.03356033  0.17423236  1
  H+  H221  1  0.36446704  0.97074864  0.32375563  1
  H+  H222  1  0.51635380  0.60767861  0.15377906  1
  H+  H223  1  0.62390367  0.13749609  0.48561867  1
  H+  H224  1  0.51729799  0.12513406  0.16739026  1
  H+  H225  1  0.86281433  0.12578656  0.67139473  1
  H+  H226  1  0.85609682  0.49730255  0.84190514  1
  H+  H227  1  0.35880528  0.47752250  0.01537682  1
  H+  H228  1  0.11135435  0.22310580  0.67343869  1
  H+  H229  1  0.64822810  0.77283282  0.49927927  1
  H+  H230  1  0.02231919  0.63030385  0.66839565  1
  H+  H231  1  0.59814828  0.41924819  0.73618234  1
  H+  H232  1  0.57309798  0.97464887  0.80204011  1
  H+  H233  1  0.36246138  0.63063600  0.15952827  1
  H+  H234  1  0.40234572  0.27195654  0.66317800  1
  H+  H235  1  0.27070914  0.89860251  0.01267130  1
  H+  H236  1  0.83545980  0.40645697  0.73027483  1
  H+  H237  1  0.22367924  0.60503311  0.65267283  1
  H+  H238  1  0.61664936  0.47822082  0.33261950  1
  H+  H239  1  0.97874451  0.02547778  0.95011771  1
  H+  H240  1  0.51252666  0.86648488  0.49428540  1
  H+  H241  1  0.37955642  0.09430851  0.17167188  1
  H+  H242  1  0.86042914  0.62662065  0.33987454  1
  H+  H243  1  0.03858701  0.14137449  0.00581634  1
  H+  H244  1  0.98038870  0.61167348  0.50621277  1
  H+  H245  1  0.35822599  0.15357816  0.44285553  1
  H+  H246  1  0.47876085  0.37167844  0.99598444  1
  H+  H247  1  0.07868028  0.42954042  -0.06757951  1
  H+  H248  1  0.86805731  0.75731866  0.31954328  1
  H+  H249  1  0.12493444  0.35969250  0.66812699  1
  H+  H250  1  0.11706032  0.88415640  0.67394120  1
  H+  H251  1  0.78104645  0.14278253  0.01798764  1
  H+  H252  1  0.61893349  0.73093604  0.33600656  1
  H+  H253  1  0.23087720  0.36710460  -0.01553456  1
  H+  H254  1  0.62106086  0.88958648  0.33529318  1
  H+  H255  1  0.39340909  0.12529538  1.00111553  1
  H+  H256  1  0.99673011  0.35555857  0.16159858  1
  H+  H257  1  0.62641193  0.09132734  0.84491167  1
  H+  H258  1  0.13754553  0.43121042  0.50691129  1
  H+  H259  1  0.26843720  0.87602753  0.16194303  1
  H+  H260  1  0.67221581  0.33688195  0.93986312  1
  H+  H261  1  0.13188941  0.11762312  0.51440463  1
  H+  H262  1  0.36011782  0.20551937  0.17642944  1
  H+  H263  1  0.61853507  0.63485106  0.49114485  1
  H+  H264  1  0.38794987  0.36932742  0.99642781  1
  H+  H265  1  0.67083567  0.09121404  0.23324282  1
  H+  H266  1  0.62619834  0.65015476  1.00924381  1
  H+  H267  1  0.86133251  0.60686489  0.15936810  1
  H+  H268  1  0.04359555  0.38705611  0.34167090  1
  H+  H269  1  0.09998027  0.87766760  0.00352561  1
  H+  H270  1  0.98803308  0.86902163  0.17018960  1
  H+  H271  1  0.86425004  0.38818454  1.01741726  1
  H+  H272  1  0.43290202  0.82459073  0.58446601  1
  H+  H273  1  0.88793326  0.26431593  0.66296701  1
  H+  H274  1  0.01977551  0.62667007  1.01518309  1
  H+  H275  1  0.62298923  0.72619449  0.66433441  1
  H+  H276  1  0.22849497  0.11100700  -0.00667873  1
  H+  H277  1  0.78368273  0.64518637  0.49155723  1
  H+  H278  1  0.63954965  0.11425803  0.32528984  1
  H+  H279  1  0.61705387  0.39625555  1.00606490  1
  H+  H280  1  0.53672179  0.89329912  0.16415467  1
  H+  H281  1  0.72596335  0.34627677  0.66480004  1
  H+  H282  1  0.88940610  0.10157303  0.32709932  1
  H+  H283  1  0.11134100  0.63289986  0.66641954  1
  H+  H284  1  0.62882697  0.22356960  0.84072739  1
  H+  H285  1  0.11864994  0.13657398  0.67343887  1
  H+  H286  1  0.13566107  0.77322896  0.31487266  1
  H+  H287  1  0.85521969  0.87583748  0.33348162  1
  H+  H288  1  0.83593708  0.66100737  0.06218706  1
  H+  H289  1  0.42287749  0.82460474  0.92244687  1
  H+  H290  1  0.32728826  0.65359679  0.41742334  1
  H+  H291  1  0.34830280  0.51954353  0.91184285  1
  H+  H292  1  0.93518091  0.08667157  0.23632971  1
  H+  H293  1  0.84255639  0.92366581  0.10282233  1
  H+  H294  1  0.08799417  0.18065645  0.44209961  1
  H+  H295  1  0.64682424  0.85941273  0.65131609  1
  H+  H296  1  0.02802718  0.89271148  0.83256896  1
  H+  H297  1  0.89869186  0.51969431  0.17966496  1
  H+  H298  1  0.07930908  0.65562120  0.07639881  1
  H+  H299  1  0.08865300  0.66695441  0.39755419  1
  H+  H300  1  0.25238017  0.91184430  0.83419784  1
  H+  H301  1  0.30339402  0.51076546  0.90638481  1
  H+  H302  1  0.49409253  0.94536963  0.75612642  1
  H+  H303  1  0.24453482  0.81153905  0.41909923  1
  H+  H304  1  0.11682398  0.23238362  0.34727065  1
  H+  H305  1  0.84644935  0.41980058  0.11149625  1
  H+  H306  1  0.10133201  0.18139780  0.10315529  1
  H+  H307  1  0.43020388  0.83865565  0.23678807  1
  H+  H308  1  0.66532723  0.82864187  0.93388853  1
  H+  H309  1  0.63181752  0.01622171  0.88500979  1
  H+  H310  1  0.19216847  0.87729255  0.89406943  1
  H+  H311  1  0.15509836  0.08361250  0.90388201  1
  H+  H312  1  0.34943899  0.17729224  0.77451506  1
  H+  H313  1  0.36131195  0.87448914  0.64913173  1
  H+  H314  1  0.95534008  0.31039462  0.25290364  1
  H+  H315  1  0.39237302  0.61293102  0.49950527  1
  H+  H316  1  0.04739876  0.15840070  0.16449639  1
  H+  H317  1  0.17063461  0.08875909  0.60344870  1
  H+  H318  1  0.60611532  0.92541035  0.42657031  1
  H+  H319  1  0.59478497  0.66244633  0.10280825  1
  H+  H320  1  0.41301964  0.33705301  0.25638201  1
  H+  H321  1  0.84170189  0.15866187  0.10948407  1
  H+  H322  1  0.22874506  0.35798437  0.33102380  1
  H+  H323  1  0.67149009  0.58674118  0.24043633  1
  H+  H324  1  0.16356144  0.57864802  0.26859806  1
  H+  H325  1  0.08715613  0.91967926  0.73073613  1
  H+  H326  1  0.41638076  0.57288931  0.26582989  1
  H+  H327  1  0.36150347  0.36741707  0.16178770  1
  H+  H328  1  0.67201373  0.83864445  0.26676074  1
  H+  H329  1  0.16508989  0.33539113  0.88757628  1
  H+  H330  1  0.01877961  0.88901218  0.00955460  1
  H+  H331  1  0.88989047  0.55981923  0.89992195  1
  H+  H332  1  0.64668552  0.32292316  0.25089341  1
  H+  H333  1  0.67779756  0.58711604  0.56127646  1
  H+  H334  1  0.15734971  0.82685968  0.25308720  1
  H+  H335  1  0.58892595  0.66503556  0.43122806  1
  H+  H336  1  0.63159222  0.30768132  0.57636344  1
  H+  H337  1  0.91511795  0.32734743  0.56444640  1
  H+  H338  1  0.92946079  0.06584110  0.91849778  1
  H+  H339  1  0.32464388  0.66989436  0.72051501  1
  H+  H340  1  0.33011386  0.67803368  0.11309433  1
  H+  H341  1  0.17228382  0.09734535  0.27499604  1
  H+  H342  1  0.92367551  0.82835570  0.90251907  1
  H+  H343  1  0.61046060  0.47490467  0.16756790  1
  H+  H344  1  0.77181242  0.88600991  0.00651051  1
  H+  H345  1  0.42455056  0.59334232  0.59620335  1
  H+  H346  1  0.78224629  0.55332999  0.11738024  1
  H+  H347  1  0.24000555  0.85061783  0.42035558  1
  H+  H348  1  0.89663207  0.02704769  0.50417762  1
  H+  H349  1  0.25377009  0.63843395  0.81787098  1
  H+  H350  1  0.67886501  0.83136927  0.55895315  1
  H+  H351  1  0.57743911  0.90953544  0.71273574  1
  H+  H352  1  0.90067753  0.81806426  0.26066182  1
  H+  H353  1  0.15576988  0.81715522  0.57260169  1
  H+  H354  1  0.37276437  0.50078369  0.15213443  1
  H+  H355  1  0.14512348  0.02804145  0.66215007  1
  H+  H356  1  0.91464441  0.57548610  0.59880559  1
  H+  H357  1  0.92005050  0.08105481  0.59808547  1
  H+  H358  1  0.16178616  0.34468773  0.57039351  1
  H+  H359  1  0.08046660  0.16225564  0.76400941  1
  H+  H360  1  0.17389130  0.61155973  0.90067697  1
  H+  H361  1  0.36204251  0.90500730  0.82598251  1
  H+  H362  1  0.31291862  0.38109449  0.75555354  1
  H+  H363  1  0.93088956  0.83426099  0.55972141  1
  H+  H364  1  0.11015614  0.42189022  0.08782357  1
  H+  H365  1  0.70384366  0.15389422  0.95380088  1
  H+  H366  1  0.08802772  0.39731581  0.83606327  1
  H+  H367  1  0.32950165  0.92233863  0.07173619  1
  H+  H368  1  0.13789623  0.61999886  0.99917014  1
  H+  H369  1  0.84043574  0.91437334  0.39598684  1
  H+  H370  1  0.42157016  0.34665730  0.90132396  1
  H+  H371  1  0.10569763  0.77008158  0.93271399  1
  H+  H372  1  0.31372020  0.40481155  0.06582151  1
  H+  H373  1  0.61481523  0.13953897  0.16744501  1
  H+  H374  1  0.19604371  0.30517450  0.16077553  1
  H+  H375  1  0.67087378  0.59366474  0.93382393  1
  H+  H376  1  0.84587577  0.91068727  0.72362190  1
  H+  H377  1  0.84086784  0.41992485  0.39891114  1
  H+  H378  1  0.02124847  0.37774650  0.67914282  1
  H+  H379  1  0.15902689  0.56007086  0.59813463  1
  H+  H380  1  0.67477921  0.08770316  0.56077233  1
  H+  H381  1  0.43056688  0.10096913  0.91064503  1
  H+  H382  1  0.36530689  0.13383296  0.68976569  1
  H+  H383  1  0.33333193  0.17153152  0.06811016  1
  O2-  O384  1  0.10740388  0.18634042  0.14818080  1
  O2-  O385  1  0.08914328  0.18632875  0.48741685  1
  O2-  O386  1  0.07758283  0.16375999  0.81012735  1
  O2-  O387  1  0.11069368  0.41510724  0.13182056  1
  O2-  O388  1  0.11349904  0.46704046  0.49036339  1
  O2-  O389  1  0.06355697  0.43068149  0.85418688  1
  O2-  O390  1  0.08604816  0.65917071  0.15395518  1
  O2-  O391  1  0.08805349  0.65673038  0.47931963  1
  O2-  O392  1  0.07674486  0.70872563  0.86736561  1
  O2-  O393  1  0.08824156  0.92365069  0.14842991  1
  O2-  O394  1  0.09501932  0.91893283  0.48266105  1
  O2-  O395  1  0.08713095  0.93546739  0.81679877  1
  O2-  O396  1  0.32913499  0.15509095  0.15030255  1
  O2-  O397  1  0.36245984  0.15505403  0.48713744  1
  O2-  O398  1  0.35720246  0.17845060  0.81929340  1
  O2-  O399  1  0.31138485  0.40100617  0.13864860  1
  O2-  O400  1  0.32987035  0.41455879  0.48111380  1
  O2-  O401  1  0.31758775  0.40022173  0.79770428  1
  O2-  O402  1  0.33301310  0.66479462  0.15685432  1
  O2-  O403  1  0.32375447  0.65179243  0.46440538  1
  O2-  O404  1  0.31263409  0.66666298  0.79850443  1
  O2-  O405  1  0.33258456  0.90957559  0.14924514  1
  O2-  O406  1  0.33724138  0.89677672  0.52571621  1
  O2-  O407  1  0.34820802  0.94976643  0.81284371  1
  O2-  O408  1  0.57816217  0.16540426  0.15445162  1
  O2-  O409  1  0.58790038  0.16144138  0.46977541  1
  O2-  O410  1  0.59552777  0.16136644  0.82798550  1
  O2-  O411  1  0.57825244  0.41597247  0.14979490  1
  O2-  O412  1  0.64327195  0.44596967  0.47093099  1
  O2-  O413  1  0.59521812  0.41641173  0.81639530  1
  O2-  O414  1  0.58175922  0.64496702  0.14768446  1
  O2-  O415  1  0.58638938  0.66446224  0.47666188  1
  O2-  O416  1  0.57473750  0.65756134  0.80344534  1
  O2-  O417  1  0.59639785  0.92239593  0.14832880  1
  O2-  O418  1  0.60853069  0.92577515  0.47252383  1
  O2-  O419  1  0.52739110  0.92396739  0.77745748  1
  O2-  O420  1  0.84196712  0.16328627  0.15455909  1
  O2-  O421  1  0.84182235  0.16389284  0.47326717  1
  O2-  O422  1  0.81696628  0.13558315  0.81045794  1
  O2-  O423  1  0.85465737  0.42382221  0.15636444  1
  O2-  O424  1  0.83753759  0.41544788  0.47042806  1
  O2-  O425  1  0.83098796  0.40010152  0.80687212  1
  O2-  O426  1  0.81311790  0.61056778  0.13556531  1
  O2-  O427  1  0.84324522  0.67138659  0.47450603  1
  O2-  O428  1  0.83631916  0.66984836  0.81502105  1
  O2-  O429  1  0.84995901  0.92913224  0.14762844  1
  O2-  O430  1  0.85040333  0.92312795  0.47623587  1
  O2-  O431  1  0.84909688  0.90453545  0.80717004  1
  O2-  O432  1  0.17200876  0.08904820  0.19238661  1
  O2-  O433  1  0.15919406  0.08620111  0.53176755  1
  O2-  O434  1  0.14618009  0.07976332  0.85827141  1
  O2-  O435  1  0.22639960  0.36822317  0.16826939  1
  O2-  O436  1  0.16775723  0.35299664  0.52526169  1
  O2-  O437  1  0.15893136  0.33666584  0.84248947  1
  O2-  O438  1  0.16520501  0.57089093  0.19009519  1
  O2-  O439  1  0.16609191  0.55264394  0.51657496  1
  O2-  O440  1  0.16188188  0.60708326  0.85611456  1
  O2-  O441  1  0.16674950  0.82948278  0.16747495  1
  O2-  O442  1  0.16238807  0.81625516  0.52709111  1
  O2-  O443  1  0.19073764  0.88480364  0.85002525  1
  O2-  O444  1  0.41251811  0.06822795  0.18872366  1
  O2-  O445  1  0.43520403  0.07482727  0.53086250  1
  O2-  O446  1  0.43517036  0.10130228  0.86531839  1
  O2-  O447  1  0.40467889  0.34229507  0.17092550  1
  O2-  O448  1  0.40541421  0.31588908  0.51815913  1
  O2-  O449  1  0.42723333  0.34807605  0.85613266  1
  O2-  O450  1  0.41513393  0.56639673  0.15009196  1
  O2-  O451  1  0.42323986  0.58658063  0.51910398  1
  O2-  O452  1  0.40023785  0.57274290  0.78690835  1
  O2-  O453  1  0.42669237  0.83754174  0.19104146  1
  O2-  O454  1  0.45121711  0.82447201  0.50784975  1
  O2-  O455  1  0.39047964  0.82637414  0.84919617  1
  O2-  O456  1  0.67185861  0.09639097  0.18761248  1
  O2-  O457  1  0.67748892  0.08906359  0.51542378  1
  O2-  O458  1  0.64270438  0.04488109  0.84444805  1
  O2-  O459  1  0.63997023  0.31889399  0.19805209  1
  O2-  O460  1  0.60433078  0.30368488  0.53652699  1
  O2-  O461  1  0.67703916  0.32710058  0.86113060  1
  O2-  O462  1  0.66727680  0.58290157  0.19332227  1
  O2-  O463  1  0.67776626  0.59241436  0.51627616  1
  O2-  O464  1  0.67074780  0.58820312  0.85639488  1
  O2-  O465  1  0.67937635  0.84680701  0.19574987  1
  O2-  O466  1  0.68090944  0.83389135  0.51348452  1
  O2-  O467  1  0.61425306  0.81797858  0.85494618  1
  O2-  O468  1  0.93875425  0.09360472  0.19077477  1
  O2-  O469  1  0.92196154  0.08612530  0.52198322  1
  O2-  O470  1  0.91146078  0.07218533  0.84727790  1
  O2-  O471  1  0.94039625  0.33090438  0.18203787  1
  O2-  O472  1  0.91429806  0.33211963  0.51965883  1
  O2-  O473  1  0.88697236  0.36611807  0.82944853  1
  O2-  O474  1  0.92180325  0.58245788  0.19227979  1
  O2-  O475  1  0.92033446  0.58406259  0.52159701  1
  O2-  O476  1  0.85713152  0.54785010  0.86174036  1
  O2-  O477  1  0.92449302  0.83391472  0.17983224  1
  O2-  O478  1  0.92975416  0.83707026  0.51440585  1
  O2-  O479  1  0.92898919  0.82928248  0.85705849  1
  O2-  O480  1  0.17500469  0.09932993  0.32008268  1
  O2-  O481  1  0.17515917  0.08971015  0.64988173  1
  O2-  O482  1  0.16757570  0.08112149  0.97847283  1
  O2-  O483  1  0.16698325  0.32752609  0.32070293  1
  O2-  O484  1  0.15473192  0.32836285  0.64887902  1
  O2-  O485  1  0.17140998  0.33571730  0.96683271  1
  O2-  O486  1  0.17085729  0.58666302  0.31350454  1
  O2-  O487  1  0.16163447  0.56950664  0.64256743  1
  O2-  O488  1  0.18047680  0.60490094  0.98105105  1
  O2-  O489  1  0.16584495  0.83228794  0.29742413  1
  O2-  O490  1  0.15777764  0.82665063  0.64854783  1
  O2-  O491  1  0.13169549  0.80732956  0.96988711  1
  O2-  O492  1  0.42090197  0.08711729  0.30889581  1
  O2-  O493  1  0.41368816  0.06830988  0.70154136  1
  O2-  O494  1  0.42547568  0.09563019  0.98860211  1
  O2-  O495  1  0.42123422  0.34191617  0.30088254  1
  O2-  O496  1  0.43809555  0.33200651  0.64689929  1
  O2-  O497  1  0.41794451  0.33855340  0.98154803  1
  O2-  O498  1  0.41932336  0.58017313  0.30987732  1
  O2-  O499  1  0.42427752  0.58997901  0.64201451  1
  O2-  O500  1  0.42491243  0.59764028  1.02882644  1
  O2-  O501  1  0.42971553  0.83527949  0.31293514  1
  O2-  O502  1  0.43024420  0.82958611  0.62947499  1
  O2-  O503  1  0.45535592  0.82684465  0.95989891  1
  O2-  O504  1  0.67052729  0.08540403  0.30887369  1
  O2-  O505  1  0.66957455  0.07980166  0.64035050  1
  O2-  O506  1  0.68469417  0.12070984  0.99156892  1
  O2-  O507  1  0.65739047  0.32923620  0.30750132  1
  O2-  O508  1  0.66243967  0.31272633  0.65723044  1
  O2-  O509  1  0.66839670  0.34231947  0.98501478  1
  O2-  O510  1  0.67107351  0.58482179  0.31001563  1
  O2-  O511  1  0.67959659  0.58320637  0.64351308  1
  O2-  O512  1  0.67169332  0.59594812  0.97966484  1
  O2-  O513  1  0.66655146  0.83316938  0.31333847  1
  O2-  O514  1  0.67686189  0.82780389  0.63779341  1
  O2-  O515  1  0.66964480  0.84155342  0.97773903  1
  O2-  O516  1  0.92658479  0.07775737  0.31336665  1
  O2-  O517  1  0.91855027  0.07644749  0.64386026  1
  O2-  O518  1  0.94689629  0.05478867  0.96025507  1
  O2-  O519  1  0.96461757  0.29184541  0.29421887  1
  O2-  O520  1  0.92040650  0.32462166  0.64815956  1
  O2-  O521  1  0.91658043  0.33791615  0.99816096  1
  O2-  O522  1  0.91985389  0.58364033  0.31806984  1
  O2-  O523  1  0.91387643  0.57038364  0.64430380  1
  O2-  O524  1  0.92220796  0.57911227  0.98363898  1
  O2-  O525  1  0.88882435  0.81655289  0.30446350  1
  O2-  O526  1  0.92645552  0.82744792  0.63926332  1
  O2-  O527  1  0.91777322  0.83398194  0.98021903  1
  O2-  O528  1  0.09750928  0.17589798  0.02196289  1
  O2-  O529  1  0.08773650  0.17093003  0.36377057  1
  O2-  O530  1  0.08369360  0.16256715  0.68901199  1
  O2-  O531  1  0.09366770  0.43004271  -0.02358801  1
  O2-  O532  1  0.10154187  0.42189430  0.35886581  1
  O2-  O533  1  0.08148461  0.40674031  0.69528793  1
  O2-  O534  1  0.08078901  0.65823974  0.03080846  1
  O2-  O535  1  0.08689035  0.66758178  0.35225853  1
  O2-  O536  1  0.08323335  0.66447170  0.68191172  1
  O2-  O537  1  0.08093427  0.91657177  0.02157103  1
  O2-  O538  1  0.10665360  0.92824600  0.36276046  1
  O2-  O539  1  0.08800371  0.91817745  0.68599345  1
  O2-  O540  1  0.33280648  0.17244943  0.02296232  1
  O2-  O541  1  0.32673328  0.19783590  0.36558224  1
  O2-  O542  1  0.34047244  0.17231610  0.69328441  1
  O2-  O543  1  0.32657188  0.41447807  0.02021963  1
  O2-  O544  1  0.34198442  0.42313461  0.35561846  1
  O2-  O545  1  0.33963100  0.41642819  0.65228289  1
  O2-  O546  1  0.31827935  0.71671936  0.04294540  1
  O2-  O547  1  0.33379376  0.66255169  0.34748831  1
  O2-  O548  1  0.33131650  0.66912316  0.67532264  1
  O2-  O549  1  0.33018714  0.93053078  0.02659098  1
  O2-  O550  1  0.33782801  0.90801483  0.32801695  1
  O2-  O551  1  0.32584804  0.89340035  0.67133997  1
  O2-  O552  1  0.58668265  0.17866331  0.03252271  1
  O2-  O553  1  0.58770736  0.17079120  0.34953735  1
  O2-  O554  1  0.58893186  0.15333654  0.70327399  1
  O2-  O555  1  0.58714719  0.42789275  0.02055743  1
  O2-  O556  1  0.58612387  0.41643041  0.34531158  1
  O2-  O557  1  0.60111990  0.41951194  0.69085144  1
  O2-  O558  1  0.59812682  0.67924623  0.03131581  1
  O2-  O559  1  0.59114557  0.66943563  0.35105887  1
  O2-  O560  1  0.58835274  0.66496954  0.67890173  1
  O2-  O561  1  0.61287998  0.95576750  -0.04700905  1
  O2-  O562  1  0.59368160  0.92281300  0.35195483  1
  O2-  O563  1  0.58993873  0.90784129  0.66895025  1
  O2-  O564  1  0.84182885  0.16332516  0.03119915  1
  O2-  O565  1  0.83638919  0.15385204  0.34927560  1
  O2-  O566  1  0.83181215  0.15445386  0.68833632  1
  O2-  O567  1  0.83518351  0.42073746  0.03173692  1
  O2-  O568  1  0.84238135  0.42445197  0.35241970  1
  O2-  O569  1  0.83271129  0.40420279  0.68435715  1
  O2-  O570  1  0.83910008  0.67042603  0.01753208  1
  O2-  O571  1  0.82626929  0.65468649  0.35272421  1
  O2-  O572  1  0.84281069  0.66561218  0.69044593  1
  O2-  O573  1  0.83183567  0.91073788  0.02217513  1
  O2-  O574  1  0.83319544  0.91371361  0.35099142  1
  O2-  O575  1  0.84183651  0.91091928  0.67876956  1
