# generated using pymatgen
data_H2O
_symmetry_space_group_name_H-M   'P 1'
_cell_length_a   17.98707926
_cell_length_b   17.98447035
_cell_length_c   21.99596227
_cell_angle_alpha   90.01655829
_cell_angle_beta   90.00364976
_cell_angle_gamma   120.04677816
_symmetry_Int_Tables_number   1
_chemical_formula_structural   H2O
_chemical_formula_sum   'H384 O192'
_cell_volume   6159.23766068
_cell_formula_units_Z   192
loop_
 _symmetry_equiv_pos_site_id
 _symmetry_equiv_pos_as_xyz
  1  'x, y, z'
loop_
 _atom_type_symbol
 _atom_type_oxidation_number
  H+  1.0
  O2-  -2.0
loop_
 _atom_site_type_symbol
 _atom_site_label
 _atom_site_symmetry_multiplicity
 _atom_site_fract_x
 _atom_site_fract_y
 _atom_site_fract_z
 _atom_site_occupancy
  H+  H0  1  0.01826527  0.35450795  0.35495050  1
  H+  H1  1  0.86694396  0.13099237  1.00624236  1
  H+  H2  1  0.34465014  0.70944379  0.71959018  1
  H+  H3  1  0.63077639  0.13924381  0.13767144  1
  H+  H4  1  0.73654146  0.61795581  0.98282365  1
  H+  H5  1  0.39496794  0.87443339  0.84033915  1
  H+  H6  1  0.48377350  0.36396422  0.32977131  1
  H+  H7  1  0.12377791  0.02354042  0.99832484  1
  H+  H8  1  0.52374332  0.39832586  0.82650122  1
  H+  H9  1  0.92531491  0.08494537  0.23151732  1
  H+  H10  1  0.48912775  0.10205360  0.66359991  1
  H+  H11  1  0.35972503  0.63683293  0.48579019  1
  H+  H12  1  0.62710252  0.86194424  0.16886470  1
  H+  H13  1  0.52990899  0.13026799  -0.00934253  1
  H+  H14  1  0.24133305  0.88666781  0.99337958  1
  H+  H15  1  0.88183301  1.02538333  0.84039997  1
  H+  H16  1  0.08749008  0.81726498  0.95882222  1
  H+  H17  1  0.35593134  0.13930498  0.50757402  1
  H+  H18  1  0.62878084  0.77278818  0.16933871  1
  H+  H19  1  0.97288712  0.60115174  0.66072070  1
  H+  H20  1  0.09946664  0.13392551  1.00064909  1
  H+  H21  1  0.27576459  0.87593659  0.14352617  1
  H+  H22  1  0.89334800  0.52160450  0.50271380  1
  H+  H23  1  0.13869623  0.38860710  -0.00939959  1
  H+  H24  1  0.15630116  0.37848185  0.17219803  1
  H+  H25  1  0.08738029  0.92959332  0.18532810  1
  H+  H26  1  0.56960207  0.68633043  0.37484983  1
  H+  H27  1  0.86637417  0.38756215  0.49223497  1
  H+  H28  1  0.57753168  0.91164183  0.09871172  1
  H+  H29  1  0.74405416  0.60295385  0.51811908  1
  H+  H30  1  0.37328534  0.89642347  0.13922658  1
  H+  H31  1  0.15437540  0.54693306  0.64617576  1
  H+  H32  1  0.21910748  0.73739988  0.10130490  1
  H+  H33  1  0.61437403  0.13201371  0.67501737  1
  H+  H34  1  0.07975195  0.17526435  0.77548880  1
  H+  H35  1  0.61865951  0.88663765  0.01944551  1
  H+  H36  1  0.81068846  0.20087210  0.49587274  1
  H+  H37  1  0.77516932  0.38365931  0.49595704  1
  H+  H38  1  0.86820266  0.99205679  0.49580826  1
  H+  H39  1  0.90692515  0.89149353  0.51402994  1
  H+  H40  1  0.21539445  0.10998045  0.99274040  1
  H+  H41  1  0.01286874  0.13839424  0.68063508  1
  H+  H42  1  0.27497261  0.38926545  0.98974685  1
  H+  H43  1  0.94785547  0.18942559  0.56298222  1
  H+  H44  1  0.66370525  0.61403085  0.52050766  1
  H+  H45  1  0.15013699  0.77759280  0.82406493  1
  H+  H46  1  0.15738749  0.28735185  -0.01054925  1
  H+  H47  1  0.88474337  0.53466021  0.33412188  1
  H+  H48  1  0.62108524  -0.02221225  0.15536212  1
  H+  H49  1  0.08553874  0.87732200  0.27947214  1
  H+  H50  1  0.89552444  0.71583446  -0.01553498  1
  H+  H51  1  0.70530501  0.08726829  0.50626800  1
  H+  H52  1  0.98106019  0.38027719  0.14171705  1
  H+  H53  1  0.03788100  0.13199839  0.15855580  1
  H+  H54  1  0.16705288  0.03185098  0.27461147  1
  H+  H55  1  0.11208972  0.89458980  0.66441371  1
  H+  H56  1  0.10791440  0.10250894  0.32531606  1
  H+  H57  1  0.86142902  0.90135875  0.34595987  1
  H+  H58  1  0.72141963  0.36396384  0.83727514  1
  H+  H59  1  0.33421364  0.90834799  0.41021142  1
  H+  H60  1  0.77274542  0.63875254  0.82684298  1
  H+  H61  1  0.85934986  0.37775166  0.16052089  1
  H+  H62  1  0.75584342  0.88475716  0.15544724  1
  H+  H63  1  1.09230401  0.93495173  0.72174638  1
  H+  H64  1  0.61371164  0.38739072  0.67424353  1
  H+  H65  1  0.61611956  0.38668521  0.99933245  1
  H+  H66  1  0.25107433  0.11065194  0.30320802  1
  H+  H67  1  0.75861614  0.12692369  0.83582972  1
  H+  H68  1  0.35851668  0.51250586  0.52648209  1
  H+  H69  1  0.37116153  0.47761928  0.34367332  1
  H+  H70  1  0.12847647  0.09963086  0.35431518  1
  H+  H71  1  0.33360631  0.18134866  0.89978874  1
  H+  H72  1  0.39190610  0.53933436  0.82983182  1
  H+  H73  1  0.65510094  0.78676618  0.50666144  1
  H+  H74  1  0.12387386  0.60125730  0.32057509  1
  H+  H75  1  0.85620014  0.14476972  0.49389546  1
  H+  H76  1  0.76939531  0.64179681  0.33951665  1
  H+  H77  1  0.63130063  0.61310561  0.31760650  1
  H+  H78  1  0.83725602  0.93024966  0.43858582  1
  H+  H79  1  0.04292319  0.87991745  0.00855432  1
  H+  H80  1  0.58176365  0.66681139  0.09630332  1
  H+  H81  1  0.36826520  0.36145694  0.15989098  1
  H+  H82  1  0.10529276  0.51269805  0.15748809  1
  H+  H83  1  0.13187458  0.14265110  0.14304469  1
  H+  H84  1  0.10334973  0.14425199  0.67823932  1
  H+  H85  1  0.52416714  0.87631308  0.00964769  1
  H+  H86  1  0.32877336  0.16895537  0.40701586  1
  H+  H87  1  0.60877435  0.11204953  0.31007788  1
  H+  H88  1  0.42601485  0.34279085  0.56981795  1
  H+  H89  1  0.12780737  0.97201003  0.54271813  1
  H+  H90  1  0.13228652  0.77100195  0.50646878  1
  H+  H91  1  0.01921781  0.64027895  0.33612513  1
  H+  H92  1  0.78394769  0.40174337  0.33456044  1
  H+  H93  1  0.35951311  0.22903284  0.00894537  1
  H+  H94  1  0.01029648  0.59006284  0.20284040  1
  H+  H95  1  0.84478418  0.16412559  0.07540398  1
  H+  H96  1  0.64493053  0.28612638  0.30772979  1
  H+  H97  1  0.28404135  0.13114410  0.64369871  1
  H+  H98  1  0.52917605  0.90164671  0.34719956  1
  H+  H99  1  0.46515200  0.85559342  0.51823170  1
  H+  H100  1  0.12993230  0.64142373  0.82145210  1
  H+  H101  1  0.14887107  0.36319167  0.34212104  1
  H+  H102  1  0.12351419  0.89503584  0.80838578  1
  H+  H103  1  0.61420297  0.74171513  0.82225980  1
  H+  H104  1  0.26234308  0.14020685  0.84993359  1
  H+  H105  1  0.42540105  0.83391990  -0.06331304  1
  H+  H106  1  0.62393771  0.47561890  0.50002285  1
  H+  H107  1  0.36853219  0.65777480  0.80981469  1
  H+  H108  1  0.18631575  0.05557195  0.13750152  1
  H+  H109  1  0.35608170  0.71975616  0.32675318  1
  H+  H110  1  0.13056669  0.48979446  0.49341375  1
  H+  H111  1  0.81052831  0.26185611  0.24652419  1
  H+  H112  1  0.61055683  0.47727153  0.15169096  1
  H+  H113  1  0.97016450  0.11746210  0.84301096  1
  H+  H114  1  0.36394865  0.40041083  0.82993799  1
  H+  H115  1  0.86110846  0.21988522  0.68053382  1
  H+  H116  1  0.36861353  0.22890748  0.34778625  1
  H+  H117  1  0.27525814  0.62838750  0.98997293  1
  H+  H118  1  0.61666552  0.47862148  0.67580537  1
  H+  H119  1  0.49659280  0.13609377  0.32583427  1
  H+  H120  1  0.40709000  0.53463233  0.67610547  1
  H+  H121  1  0.27916238  0.89128088  0.82184986  1
  H+  H122  1  0.09048330  0.45392318  0.33893211  1
  H+  H123  1  0.94364586  0.85742494  0.17794771  1
  H+  H124  1  0.14353185  0.28709059  0.66676432  1
  H+  H125  1  0.91803810  0.19487726  0.33888669  1
  H+  H126  1  0.34242272  0.98222822  -0.00547834  1
  H+  H127  1  0.91701447  0.83990690  0.97644067  1
  H+  H128  1  0.36711972  0.23327697  0.50472884  1
  H+  H129  1  0.11692699  0.97959756  0.81579747  1
  H+  H130  1  0.15515861  0.24648986  0.19908385  1
  H+  H131  1  0.38621602  0.28832094  0.84300277  1
  H+  H132  1  0.85632424  0.25700684  0.84922936  1
  H+  H133  1  0.12872690  0.40348028  0.66324630  1
  H+  H134  1  0.89382819  0.35836411  1.00343404  1
  H+  H135  1  0.51130905  0.63399880  0.31980198  1
  H+  H136  1  0.37987625  0.50207114  0.16531922  1
  H+  H137  1  0.36686952  -0.01697468  0.82478102  1
  H+  H138  1  0.33927087  0.69148797  0.15495820  1
  H+  H139  1  0.60182103  0.64860721  0.45552429  1
  H+  H140  1  0.88680494  0.50614206  0.98992481  1
  H+  H141  1  0.23608466  0.62583360  0.49330513  1
  H+  H142  1  0.98632322  0.14116118  0.52755906  1
  H+  H143  1  0.49614482  0.64552347  0.48465010  1
  H+  H144  1  0.39902879  0.61964779  -0.01846162  1
  H+  H145  1  0.26888906  0.88332626  0.50049593  1
  H+  H146  1  0.15431653  0.86961156  0.16304825  1
  H+  H147  1  0.37000834  0.01352241  0.32800742  1
  H+  H148  1  0.33884008  0.42802131  0.73810757  1
  H+  H149  1  0.60945864  -0.00401890  0.34940122  1
  H+  H150  1  0.41421237  0.21498750  0.17954043  1
  H+  H151  1  0.12945879  0.76089775  0.97479183  1
  H+  H152  1  0.48314583  0.35852908  0.17269313  1
  H+  H153  1  0.27921315  0.38606357  0.49803485  1
  H+  H154  1  0.86771429  0.73811722  0.68283249  1
  H+  H155  1  0.35412239  0.87079884  0.67934642  1
  H+  H156  1  0.62392958  0.22400184  0.13525923  1
  H+  H157  1  0.78723143  0.52108637  0.21454704  1
  H+  H158  1  0.70606866  0.14872265  0.29883487  1
  H+  H159  1  0.83691628  0.24996514  0.31242667  1
  H+  H160  1  0.85188051  0.87542878  0.98082438  1
  H+  H161  1  0.16277033  0.82586201  0.57001984  1
  H+  H162  1  0.13439025  0.39014003  0.14794776  1
  H+  H163  1  0.37869240  0.76907974  0.50643572  1
  H+  H164  1  0.35686487  0.88092118  0.50465489  1
  H+  H165  1  0.15665685  0.78001262  0.15743855  1
  H+  H166  1  0.13660890  0.36011141  0.85176381  1
  H+  H167  1  0.26502534  0.63017293  0.32907429  1
  H+  H168  1  0.24711230  0.32831007  0.20761737  1
  H+  H169  1  0.62810921  0.64811132  1.00199360  1
  H+  H170  1  0.88515183  0.03985742  0.32873500  1
  H+  H171  1  0.63081144  0.02131162  0.86007778  1
  H+  H172  1  0.23686822  0.37445659  0.66695487  1
  H+  H173  1  0.11066839  0.72493800  0.33229731  1
  H+  H174  1  0.88970299  0.02395861  0.17234113  1
  H+  H175  1  0.53186218  0.39045061  0.49545601  1
  H+  H176  1  -0.00027052  0.92711675  0.03385426  1
  H+  H177  1  0.51190094  0.66619254  0.51532573  1
  H+  H178  1  0.77268374  0.89561879  0.82974845  1
  H+  H179  1  -0.02890386  0.70678403  0.89691286  1
  H+  H180  1  0.77194197  0.37693554  1.00206189  1
  H+  H181  1  0.42898991  0.60273507  0.88641680  1
  H+  H182  1  0.87437804  0.77925895  0.32769360  1
  H+  H183  1  0.85005815  0.50273154  0.17713263  1
  H+  H184  1  0.87349006  0.65778494  0.83185142  1
  H+  H185  1  0.17034820  0.55165108  0.81710674  1
  H+  H186  1  0.84962156  0.12968069  0.83131141  1
  H+  H187  1  0.61836673  0.48089934  0.33814345  1
  H+  H188  1  0.14765769  0.01972597  0.62835003  1
  H+  H189  1  0.49815789  0.90546801  0.17441604  1
  H+  H190  1  0.85691034  0.85666968  0.16341412  1
  H+  H191  1  0.20229659  0.89329813  0.31028464  1
  H+  H192  1  0.61785825  0.47716431  0.99776390  1
  H+  H193  1  0.11369853  0.23126701  0.83617062  1
  H+  H194  1  0.27550801  0.86054282  0.35344033  1
  H+  H195  1  0.90563193  0.07940468  0.61688623  1
  H+  H196  1  0.60429825  0.12227525  0.50426427  1
  H+  H197  1  0.27911351  0.65767897  0.81530289  1
  H+  H198  1  0.77358348  0.90014695  0.34381665  1
  H+  H199  1  0.12840864  0.11289069  0.84032379  1
  H+  H200  1  0.39236739  0.78513075  0.83483978  1
  H+  H201  1  0.88533453  0.86372454  0.66734915  1
  H+  H202  1  0.86774436  0.62869861  0.49513217  1
  H+  H203  1  0.39466681  0.76747742  -0.00907263  1
  H+  H204  1  0.63959990  0.62219588  0.83139529  1
  H+  H205  1  0.85527257  0.37563646  0.67352642  1
  H+  H206  1  0.31360192  0.16339688  0.06419418  1
  H+  H207  1  0.37753422  0.60596686  0.31493467  1
  H+  H208  1  0.09020438  0.46487264  0.87597365  1
  H+  H209  1  0.52530451  0.89159645  0.83970183  1
  H+  H210  1  0.88987205  0.59704699  0.99150781  1
  H+  H211  1  0.60255857  0.88142506  0.50104036  1
  H+  H212  1  0.11634454  0.64851977  0.66667286  1
  H+  H213  1  0.36995327  0.58553152  0.16258431  1
  H+  H214  1  0.64422852  0.62396627  0.66445524  1
  H+  H215  1  0.46843093  0.10578613  0.51503411  1
  H+  H216  1  0.38247297  0.10984786  0.99379860  1
  H+  H217  1  0.84856948  0.72289188  0.14833234  1
  H+  H218  1  0.39126320  -0.00024590  0.66612334  1
  H+  H219  1  0.64802884  0.78342916  0.31462568  1
  H+  H220  1  0.63343258  0.86930193  0.84770964  1
  H+  H221  1  0.97929312  0.36170335  0.65628338  1
  H+  H222  1  0.86067769  0.46696636  0.67106073  1
  H+  H223  1  0.11820258  0.22732893  0.51450432  1
  H+  H224  1  0.13252650  0.77524646  0.66295055  1
  H+  H225  1  0.01790540  0.89618627  0.52268810  1
  H+  H226  1  0.99024867  0.82754837  0.91357699  1
  H+  H227  1  1.02452813  0.63706200  0.20355120  1
  H+  H228  1  0.47753741  0.36815128  0.66369122  1
  H+  H229  1  0.14519689  0.36747397  0.51018101  1
  H+  H230  1  0.87507184  0.13852959  0.15983279  1
  H+  H231  1  0.76001078  0.86918005  0.68127892  1
  H+  H232  1  0.69852589  0.70157075  0.43602009  1
  H+  H233  1  0.93195753  0.32991967  0.21953027  1
  H+  H234  1  0.39668382  0.37063358  0.51007959  1
  H+  H235  1  0.38045153  0.11268422  0.84787186  1
  H+  H236  1  0.40434627  0.53468963  0.97519685  1
  H+  H237  1  0.12069892  0.64368486  0.48543702  1
  H+  H238  1  0.71929938  0.61397242  0.16109838  1
  H+  H239  1  0.11223352  0.88119758  0.51556207  1
  H+  H240  1  0.61658992  -0.03454885  0.68567679  1
  H+  H241  1  0.52217033  0.65077459  0.81548717  1
  H+  H242  1  0.10430435  0.23601420  0.37120383  1
  H+  H243  1  0.34605558  0.42773708  0.44262994  1
  H+  H244  1  0.60141424  0.86986496  0.69172723  1
  H+  H245  1  0.39122119  0.85789684  0.33091237  1
  H+  H246  1  0.39033227  0.36715686  -0.01238427  1
  H+  H247  1  0.77099463  0.37906374  0.15205609  1
  H+  H248  1  0.30264980  0.54182419  0.56374906  1
  H+  H249  1  0.73604448  0.11070830  0.16693140  1
  H+  H250  1  0.77510983  0.64710925  0.68303788  1
  H+  H251  1  0.37096127  0.39872390  0.67822877  1
  H+  H252  1  0.11921994  0.62668861  0.98414326  1
  H+  H253  1  0.63641351  0.27045815  0.51008995  1
  H+  H254  1  0.87498947  0.10449996  0.67697967  1
  H+  H255  1  0.23722464  0.64307657  0.64840490  1
  H+  H256  1  0.84422394  0.96388254  0.67779799  1
  H+  H257  1  0.36726028  0.10169961  0.33255030  1
  H+  H258  1  0.62950222  0.61089247  0.16734447  1
  H+  H259  1  1.00461965  0.88964604  0.28501345  1
  H+  H260  1  0.47284158  0.11825212  0.84062445  1
  H+  H261  1  0.61521831  0.00323281  0.51574060  1
  H+  H262  1  0.25010413  0.60386866  0.15340984  1
  H+  H263  1  0.86845730  0.22802055  0.15993507  1
  H+  H264  1  0.51575299  0.62896698  0.15240077  1
  H+  H265  1  0.98677328  0.36158382  0.99489854  1
  H+  H266  1  0.14992438  0.52136991  0.97070645  1
  H+  H267  1  0.60002026  0.23088839  0.82756745  1
  H+  H268  1  0.72193334  0.35706917  0.66402939  1
  H+  H269  1  0.64004030  0.11018271  0.95345598  1
  H+  H270  1  1.00027943  0.38385788  0.50708288  1
  H+  H271  1  0.63561984  0.36287031  0.15727709  1
  H+  H272  1  0.39563084  0.36476383  0.33148784  1
  H+  H273  1  0.92228610  0.29549984  0.49037314  1
  H+  H274  1  0.29127055  0.34989628  0.11673306  1
  H+  H275  1  0.93780660  0.33884297  0.87472896  1
  H+  H276  1  -0.02450729  0.12371237  0.33482021  1
  H+  H277  1  0.60912314  0.22000587  0.67055591  1
  H+  H278  1  0.27272127  0.39608113  0.83007740  1
  H+  H279  1  0.63438854  0.36911205  0.84027974  1
  H+  H280  1  0.63910168  0.36086158  0.50698415  1
  H+  H281  1  0.24127336  0.14302351  0.54157278  1
  H+  H282  1  0.22278814  0.86365240  0.66255378  1
  H+  H283  1  0.84216128  0.37509645  0.83282274  1
  H+  H284  1  0.38577399  0.28127355  0.65864569  1
  H+  H285  1  0.88042248  0.23370867  0.01617244  1
  H+  H286  1  0.37886075  0.01741715  0.51456465  1
  H+  H287  1  0.72390005  0.10677209  0.66729463  1
  H+  H288  1  0.64403135  0.37306145  0.31660773  1
  H+  H289  1  0.14727330  0.56547793  0.26167817  1
  H+  H290  1  0.41820470  0.06754328  0.60326323  1
  H+  H291  1  0.12692333  0.68131767  0.07151118  1
  H+  H292  1  0.68001312  0.84896038  0.26153878  1
  H+  H293  1  0.58790960  0.69102402  0.74159186  1
  H+  H294  1  0.41900370  0.59281163  0.61664847  1
  H+  H295  1  0.42656821  0.84881428  0.26731519  1
  H+  H296  1  0.17150320  0.83174450  0.25254035  1
  H+  H297  1  0.83471819  0.91964888  0.77413818  1
  H+  H298  1  0.84532032  0.67290748  0.04748520  1
  H+  H299  1  0.31295161  0.90523900  0.05324738  1
  H+  H300  1  0.95719378  0.09875631  0.99197469  1
  H+  H301  1  0.54319326  0.65478853  -0.00290179  1
  H+  H302  1  0.04462217  0.65422646  0.82805781  1
  H+  H303  1  0.42222021  0.34826154  0.89937887  1
  H+  H304  1  0.16844811  0.83358471  0.88398909  1
  H+  H305  1  -0.00076438  0.43809723  0.08468790  1
  H+  H306  1  0.82886239  0.65779789  0.44025856  1
  H+  H307  1  0.59018066  0.92286399  0.78322238  1
  H+  H308  1  0.83401167  0.42669987  0.39796732  1
  H+  H309  1  0.62521144  0.77475935  0.62096903  1
  H+  H310  1  0.06168369  0.90214063  0.39690054  1
  H+  H311  1  0.40476071  0.56892709  0.25728946  1
  H+  H312  1  0.14482657  0.61351859  0.15845815  1
  H+  H313  1  0.18041089  0.33752554  0.90810386  1
  H+  H314  1  0.88217708  0.21714080  0.39612488  1
  H+  H315  1  0.84287098  0.63071614  0.15092775  1
  H+  H316  1  0.06434734  0.94509280  0.39732259  1
  H+  H317  1  0.83473363  0.67542891  0.75442240  1
  H+  H318  1  0.17618860  0.34173109  0.57113917  1
  H+  H319  1  0.09835164  0.42130312  0.04405697  1
  H+  H320  1  0.98290228  0.61142708  0.50251988  1
  H+  H321  1  0.79081299  0.95016609  -0.02773974  1
  H+  H322  1  0.91912612  0.56941144  0.59992375  1
  H+  H323  1  0.23027291  0.12186776  0.18730206  1
  H+  H324  1  0.32363748  0.64577402  0.05408680  1
  H+  H325  1  0.87764615  0.82607670  0.26538864  1
  H+  H326  1  0.66580015  0.58410008  0.26110883  1
  H+  H327  1  0.47797587  0.36260243  0.99013945  1
  H+  H328  1  0.57636887  0.14957507  0.44390705  1
  H+  H329  1  0.67260969  0.79246618  1.01603665  1
  H+  H330  1  0.63785185  0.27116222  0.98447375  1
  H+  H331  1  0.33817152  0.66666723  0.42124605  1
  H+  H332  1  0.40810204  0.07806935  0.93204857  1
  H+  H333  1  0.54627419  0.21138554  0.37138764  1
  H+  H334  1  0.33782454  0.91778556  0.73656620  1
  H+  H335  1  0.59498773  0.42280046  0.39862962  1
  H+  H336  1  0.18009472  0.60233427  0.55525904  1
  H+  H337  1  0.11106572  0.13732647  0.53015105  1
  H+  H338  1  0.72903750  0.87872764  0.51867233  1
  H+  H339  1  0.58315315  0.42257009  0.76704400  1
  H+  H340  1  0.02696570  0.62052449  -0.00378889  1
  H+  H341  1  0.80713220  0.90862739  0.09378179  1
  H+  H342  1  0.91912201  0.32687759  0.59917737  1
  H+  H343  1  0.82212121  0.40690352  0.77030067  1
  H+  H344  1  0.57177723  0.91825718  0.44440969  1
  H+  H345  1  0.86060807  0.64702142  0.34235012  1
  H+  H346  1  0.47123613  0.96570265  0.20896786  1
  H+  H347  1  0.15037394  0.07453677  0.89872332  1
  H+  H348  1  0.66684075  0.33678919  0.21701444  1
  H+  H349  1  0.08602395  0.67247636  0.42828495  1
  H+  H350  1  0.28523777  0.38824163  0.35469826  1
  H+  H351  1  0.57067727  0.16805433  0.76992460  1
  H+  H352  1  0.10005474  0.44473325  0.71447229  1
  H+  H353  1  0.18066826  0.31464216  0.29513907  1
  H+  H354  1  0.83061199  0.40768416  0.06256781  1
  H+  H355  1  0.66359313  0.33035055  0.60441954  1
  H+  H356  1  0.31360211  0.15068689  0.71124973  1
  H+  H357  1  0.08549508  0.92496031  0.10985472  1
  H+  H358  1  0.51224266  0.64340175  0.67207096  1
  H+  H359  1  0.09461181  0.42097683  0.43824131  1
  H+  H360  1  0.93246085  0.60844549  0.90185694  1
  H+  H361  1  0.07496496  0.16728216  0.05957107  1
  H+  H362  1  0.34939184  0.43632811  0.04439245  1
  H+  H363  1  0.06510518  0.16653859  0.42456549  1
  H+  H364  1  0.90243425  0.08165311  0.93139172  1
  H+  H365  1  0.08769965  0.67042595  0.73020536  1
  H+  H366  1  0.66217006  0.07194446  0.60879031  1
  H+  H367  1  0.38873020  0.79753787  0.61023760  1
  H+  H368  1  0.68169261  0.84303859  0.89804440  1
  H+  H369  1  0.63482240  0.53047579  0.83308116  1
  H+  H370  1  0.66511020  0.08364641  0.22045627  1
  H+  H371  1  0.04258665  0.42195121  0.81654975  1
  H+  H372  1  0.92310690  0.85039918  0.57602702  1
  H+  H373  1  0.97903057  0.87115180  0.66405798  1
  H+  H374  1  0.59971266  0.16136814  0.04270900  1
  H+  H375  1  0.18120055  0.58842114  0.91104773  1
  H+  H376  1  0.90264863  0.58789707  0.27316790  1
  H+  H377  1  0.58061878  0.41770184  0.09172454  1
  H+  H378  1  0.67883663  0.58832795  0.61078899  1
  H+  H379  1  0.42611861  0.32909150  0.23442871  1
  H+  H380  1  0.67044817  0.59052465  0.92806410  1
  H+  H381  1  0.66815257  0.33696841  0.92961869  1
  H+  H382  1  0.36990167  0.08216213  0.23100022  1
  H+  H383  1  0.82264211  0.16053842  0.74107117  1
  O2-  O384  1  0.09530906  0.17019653  0.14044354  1
  O2-  O385  1  0.08074505  0.16340331  0.50951308  1
  O2-  O386  1  0.07957064  0.17047244  0.82028341  1
  O2-  O387  1  0.03057507  0.42765758  0.11658462  1
  O2-  O388  1  0.09925444  0.42644903  0.48376292  1
  O2-  O389  1  0.06307168  0.40986399  0.85416656  1
  O2-  O390  1  0.15849800  0.70051144  0.11208390  1
  O2-  O391  1  0.08790374  0.67291831  0.47373710  1
  O2-  O392  1  0.09879899  0.67343873  0.80548370  1
  O2-  O393  1  0.12018800  0.93517466  0.14763882  1
  O2-  O394  1  0.09051438  0.92419828  0.51402381  1
  O2-  O395  1  0.09302613  0.92457093  0.79326012  1
  O2-  O396  1  0.43542579  0.17383138  0.17419319  1
  O2-  O397  1  0.32693984  0.17121420  0.49454012  1
  O2-  O398  1  0.32720324  0.17470878  0.85571465  1
  O2-  O399  1  0.33400536  0.38934745  0.14556674  1
  O2-  O400  1  0.34134878  0.42425049  0.48831086  1
  O2-  O401  1  0.33299513  0.42921999  0.81324057  1
  O2-  O402  1  0.31171496  0.63354457  0.13821523  1
  O2-  O403  1  0.33816768  0.67208085  0.46663913  1
  O2-  O404  1  0.33985130  0.68979559  0.79654189  1
  O2-  O405  1  0.32042329  0.87944686  0.11472779  1
  O2-  O406  1  0.33038020  0.91387206  0.48694492  1
  O2-  O407  1  0.34106804  0.92327508  0.80792574  1
  O2-  O408  1  0.60363628  0.16768893  0.11579037  1
  O2-  O409  1  0.57594051  0.15466575  0.48823157  1
  O2-  O410  1  0.56361471  0.16996295  0.81415169  1
  O2-  O411  1  0.58057417  0.41641902  0.13729793  1
  O2-  O412  1  0.59222586  0.41806577  0.47986073  1
  O2-  O413  1  0.58476249  0.42861340  0.81234984  1
  O2-  O414  1  0.57766591  0.66351933  0.14169430  1
  O2-  O415  1  0.65821208  0.69489735  0.46809730  1
  O2-  O416  1  0.58453481  0.68406025  0.80004848  1
  O2-  O417  1  0.58088272  0.91531125  0.14597041  1
  O2-  O418  1  0.56774013  0.90859400  0.49002892  1
  O2-  O419  1  0.58858856  0.92326484  0.82907722  1
  O2-  O420  1  0.84161460  0.16444884  0.14301858  1
  O2-  O421  1  0.81912768  0.16125500  0.47030768  1
  O2-  O422  1  0.81619137  0.15636915  0.81514820  1
  O2-  O423  1  0.83416657  0.41249888  0.14252369  1
  O2-  O424  1  0.83409363  0.41545433  0.47810580  1
  O2-  O425  1  0.81743009  0.40912706  0.81498986  1
  O2-  O426  1  0.82206312  0.66513154  0.12889070  1
  O2-  O427  1  0.82956937  0.65257417  0.48499937  1
  O2-  O428  1  0.83281335  0.67274510  0.81047150  1
  O2-  O429  1  0.81643678  0.91352592  0.13787917  1
  O2-  O430  1  0.84163230  0.93154314  0.48480436  1
  O2-  O431  1  0.83434427  0.92712258  0.81852469  1
  O2-  O432  1  0.21442202  0.11835755  0.14358642  1
  O2-  O433  1  0.19254863  0.12381846  0.57242720  1
  O2-  O434  1  0.15835177  0.08125056  0.85361680  1
  O2-  O435  1  0.19658744  0.28553241  0.23009891  1
  O2-  O436  1  0.17317359  0.33516102  0.52594182  1
  O2-  O437  1  0.17266374  0.33417480  0.85939178  1
  O2-  O438  1  0.15076836  0.56668571  0.17788202  1
  O2-  O439  1  0.17613250  0.59422180  0.50990047  1
  O2-  O440  1  0.18359661  0.60147492  0.84195148  1
  O2-  O441  1  0.17976720  0.83504428  0.18035848  1
  O2-  O442  1  0.16209070  0.83064844  0.52429447  1
  O2-  O443  1  0.17673451  0.83875771  0.83897516  1
  O2-  O444  1  0.36071524  0.09004221  0.18731506  1
  O2-  O445  1  0.40923241  0.07688397  0.53240737  1
  O2-  O446  1  0.41136248  0.08147009  0.85774871  1
  O2-  O447  1  0.42362355  0.32172870  0.18930409  1
  O2-  O448  1  0.42689387  0.33989238  0.52424789  1
  O2-  O449  1  0.41962261  0.35033713  0.85374466  1
  O2-  O450  1  0.40624507  0.56256818  0.17903953  1
  O2-  O451  1  0.36109597  0.56261938  0.54945688  1
  O2-  O452  1  0.42631757  0.60167617  0.84066364  1
  O2-  O453  1  0.44705947  0.90633694  0.19543370  1
  O2-  O454  1  0.40319711  0.82300909  0.53077361  1
  O2-  O455  1  0.42294648  0.84227886  0.85578020  1
  O2-  O456  1  0.67297567  0.08046443  0.17586156  1
  O2-  O457  1  0.65081049  0.06641891  0.52837418  1
  O2-  O458  1  0.66200469  0.08413494  0.87186399  1
  O2-  O459  1  0.66736378  0.33394234  0.17180528  1
  O2-  O460  1  0.66909945  0.33098311  0.52385410  1
  O2-  O461  1  0.66013654  0.33464989  0.85442413  1
  O2-  O462  1  0.66190285  0.58207032  0.18152316  1
  O2-  O463  1  0.68289945  0.57556464  0.53698597  1
  O2-  O464  1  0.66848827  0.59209079  0.84769016  1
  O2-  O465  1  0.66085125  0.83378304  0.18276388  1
  O2-  O466  1  0.66799042  0.83922240  0.52924487  1
  O2-  O467  1  0.66324367  0.83447762  0.85512990  1
  O2-  O468  1  0.92738846  0.08385049  0.18597955  1
  O2-  O469  1  0.92934234  0.13507518  0.54189051  1
  O2-  O470  1  0.90900203  0.08678817  0.85631437  1
  O2-  O471  1  0.89913094  0.31616963  0.18193073  1
  O2-  O472  1  0.93683699  0.34482501  0.51653280  1
  O2-  O473  1  0.87586004  0.31344511  0.86924695  1
  O2-  O474  1  0.84565007  0.55032166  0.19854648  1
  O2-  O475  1  0.92347772  0.58120096  0.51933176  1
  O2-  O476  1  0.95119366  0.65470939  0.87065336  1
  O2-  O477  1  0.88160972  0.82251074  0.18301759  1
  O2-  O478  1  0.93761732  0.86305097  0.53154813  1
  O2-  O479  1  0.98968567  0.79627352  0.94996775  1
  O2-  O480  1  0.22205502  0.08303008  0.26488520  1
  O2-  O481  1  0.19150863  0.04555678  0.59429905  1
  O2-  O482  1  0.15570545  0.08007942  0.97683266  1
  O2-  O483  1  0.18174459  0.33253792  0.33895879  1
  O2-  O484  1  0.17691150  0.34632647  0.65003094  1
  O2-  O485  1  0.18972854  0.34591935  0.97302676  1
  O2-  O486  1  0.15078133  0.56719802  0.30687173  1
  O2-  O487  1  0.17805109  0.60661741  0.63121528  1
  O2-  O488  1  0.17687832  0.58315869  0.95813207  1
  O2-  O489  1  0.16226627  0.83431592  0.29810403  1
  O2-  O490  1  0.16367807  0.83569081  0.64572825  1
  O2-  O491  1  0.14635241  0.82078128  0.96225838  1
  O2-  O492  1  0.39276924  0.07118994  0.30982729  1
  O2-  O493  1  0.42533948  0.06344661  0.64918812  1
  O2-  O494  1  0.40468860  0.07287913  0.97814544  1
  O2-  O495  1  0.42305475  0.33237874  0.31515444  1
  O2-  O496  1  0.41754094  0.34363509  0.64780660  1
  O2-  O497  1  0.41669347  0.33079334  0.97601079  1
  O2-  O498  1  0.40987550  0.57646441  0.30252838  1
  O2-  O499  1  0.43763381  0.59615115  0.66010288  1
  O2-  O500  1  0.43549621  0.59702372  0.96411685  1
  O2-  O501  1  0.41868851  0.82860319  0.31024582  1
  O2-  O502  1  0.38567305  0.79905834  0.65577383  1
  O2-  O503  1  0.42761538  0.82954982  0.98153747  1
  O2-  O504  1  0.64919974  0.09260273  0.29943245  1
  O2-  O505  1  0.66249086  0.07491950  0.65396433  1
  O2-  O506  1  0.67160652  0.08122524  0.93768963  1
  O2-  O507  1  0.67560618  0.34726532  0.29631470  1
  O2-  O508  1  0.66023053  0.32744000  0.64968373  1
  O2-  O509  1  0.66811190  0.33428628  0.97552864  1
  O2-  O510  1  0.66493604  0.58488960  0.30668988  1
  O2-  O511  1  0.67473678  0.59220779  0.65652269  1
  O2-  O512  1  0.67386004  0.58974136  0.97329215  1
  O2-  O513  1  0.68290839  0.84522730  0.30647441  1
  O2-  O514  1  0.62483187  0.77861972  0.66622790  1
  O2-  O515  1  0.70754953  0.85668278  1.02252134  1
  O2-  O516  1  0.92131751  0.09740115  0.31003791  1
  O2-  O517  1  0.90529209  0.07327946  0.66158132  1
  O2-  O518  1  0.89671828  0.07426487  0.97704776  1
  O2-  O519  1  0.78775764  0.24409101  0.28807666  1
  O2-  O520  1  0.91876271  0.32345161  0.64414507  1
  O2-  O521  1  0.92639437  0.32732815  1.00880749  1
  O2-  O522  1  0.91420068  0.59628120  0.31742092  1
  O2-  O523  1  0.91461725  0.56209500  0.64472215  1
  O2-  O524  1  0.92135852  0.56788925  0.97681358  1
  O2-  O525  1  0.89747397  0.83719527  0.30830753  1
  O2-  O526  1  0.91702973  0.83526058  0.65141622  1
  O2-  O527  1  0.89995560  0.87447642  1.00150513  1
  O2-  O528  1  0.06703242  0.16214949  0.01462685  1
  O2-  O529  1  0.05140557  0.18425279  0.38600375  1
  O2-  O530  1  0.07536253  0.17612111  0.69114598  1
  O2-  O531  1  0.10346197  0.41947586  -0.00031928  1
  O2-  O532  1  0.07754148  0.40178767  0.36266866  1
  O2-  O533  1  0.09730124  0.43606724  0.67063983  1
  O2-  O534  1  0.09059662  0.65684825  0.00330231  1
  O2-  O535  1  0.08116372  0.66606469  0.34890698  1
  O2-  O536  1  0.08353935  0.67399072  0.68468621  1
  O2-  O537  1  0.05611434  0.92904920  0.03649823  1
  O2-  O538  1  0.06118617  0.91200322  0.26386106  1
  O2-  O539  1  0.08754528  0.93198755  0.67518869  1
  O2-  O540  1  0.32585689  0.16657990  0.02040415  1
  O2-  O541  1  0.33591113  0.16816696  0.36245105  1
  O2-  O542  1  0.33152994  0.17116156  0.66991961  1
  O2-  O543  1  0.34471375  0.42608146  0.00068132  1
  O2-  O544  1  0.34853836  0.42162579  0.36507382  1
  O2-  O545  1  0.34327906  0.43243982  0.69218771  1
  O2-  O546  1  0.33348233  0.65439186  0.00986197  1
  O2-  O547  1  0.32620506  0.65930596  0.34255811  1
  O2-  O548  1  0.33927287  0.70802600  0.67362457  1
  O2-  O549  1  0.30322266  0.91798816  0.00797274  1
  O2-  O550  1  0.33379859  0.90505667  0.36434493  1
  O2-  O551  1  0.33604752  0.91354022  0.68999216  1
  O2-  O552  1  0.59254009  0.16077530  -0.00328009  1
  O2-  O553  1  0.55586675  0.17539560  0.34306308  1
  O2-  O554  1  0.57852217  0.15887394  0.68531209  1
  O2-  O555  1  0.58475575  0.41708949  0.01312749  1
  O2-  O556  1  0.59174280  0.42052472  0.35327580  1
  O2-  O557  1  0.58299097  0.41766319  0.68893986  1
  O2-  O558  1  0.60039117  0.68086495  0.01753849  1
  O2-  O559  1  0.57319954  0.66630512  0.33445628  1
  O2-  O560  1  0.58893139  0.68877701  0.68836946  1
  O2-  O561  1  0.58156390  0.90983190  0.03086868  1
  O2-  O562  1  0.57826747  0.94170218  0.37248318  1
  O2-  O563  1  0.58624192  0.91088545  0.70862647  1
  O2-  O564  1  0.84558279  0.16843914  0.02785884  1
  O2-  O565  1  0.91339392  0.24252727  0.35802602  1
  O2-  O566  1  0.82821279  0.15953319  0.69515234  1
  O2-  O567  1  0.83285336  0.40607841  0.01715909  1
  O2-  O568  1  0.84075644  0.43794514  0.35359421  1
  O2-  O569  1  0.82487950  0.40561130  0.68696832  1
  O2-  O570  1  0.84590862  0.66327898  0.00306966  1
  O2-  O571  1  0.82800543  0.67530342  0.35745550  1
  O2-  O572  1  0.83494373  0.67832969  0.70056134  1
  O2-  O573  1  0.75781509  0.88686652  -0.03405952  1
  O2-  O574  1  0.83246885  0.93146249  0.36345812  1
  O2-  O575  1  0.82138010  0.90317763  0.69130286  1
