# generated using pymatgen
data_H2O
_symmetry_space_group_name_H-M   'P 1'
_cell_length_a   17.97965029
_cell_length_b   17.98372574
_cell_length_c   21.99377230
_cell_angle_alpha   89.97272265
_cell_angle_beta   90.02464559
_cell_angle_gamma   119.98310209
_symmetry_Int_Tables_number   1
_chemical_formula_structural   H2O
_chemical_formula_sum   'H384 O192'
_cell_volume   6159.77900927
_cell_formula_units_Z   192
loop_
 _symmetry_equiv_pos_site_id
 _symmetry_equiv_pos_as_xyz
  1  'x, y, z'
loop_
 _atom_type_symbol
 _atom_type_oxidation_number
  H+  1.0
  O2-  -2.0
loop_
 _atom_site_type_symbol
 _atom_site_label
 _atom_site_symmetry_multiplicity
 _atom_site_fract_x
 _atom_site_fract_y
 _atom_site_fract_z
 _atom_site_occupancy
  H+  H0  1  0.14824821  0.86487026  0.51631348  1
  H+  H1  1  0.34952174  0.61631307  0.99435635  1
  H+  H2  1  0.72083652  0.35355578  0.17119717  1
  H+  H3  1  0.96931695  0.60465697  0.83798260  1
  H+  H4  1  0.91244516  0.06011393  0.23006755  1
  H+  H5  1  0.84622158  0.66839539  0.63795324  1
  H+  H6  1  0.27261481  0.87811699  0.82603534  1
  H+  H7  1  0.83954144  0.53705443  0.17880391  1
  H+  H8  1  0.62151947  0.14009613  0.34653793  1
  H+  H9  1  0.10982281  0.15020793  0.00214709  1
  H+  H10  1  0.51046000  0.37449887  0.48036019  1
  H+  H11  1  0.46787825  0.60543725  0.48703342  1
  H+  H12  1  0.47421986  0.37237373  0.17425013  1
  H+  H13  1  -0.02902668  0.11408195  0.49661015  1
  H+  H14  1  0.39070616  0.12422321  0.32070617  1
  H+  H15  1  0.87973832  0.35680776  0.50901726  1
  H+  H16  1  0.41729721  0.71247547  0.13807668  1
  H+  H17  1  0.15991087  1.01225742  0.13953814  1
  H+  H18  1  0.51974698  0.87625555  0.83413971  1
  H+  H19  1  0.57387298  0.76778207  0.55662311  1
  H+  H20  1  0.12069294  0.72715730  0.34178166  1
  H+  H21  1  0.52689030  0.13730516  0.49556384  1
  H+  H22  1  0.09797134  0.62680447  0.83708203  1
  H+  H23  1  1.00257531  0.64986739  0.16058966  1
  H+  H24  1  0.84206446  0.96368713  -0.00623520  1
  H+  H25  1  0.60742912  0.62373035  0.48238065  1
  H+  H26  1  0.90188968  0.18596019  0.29396035  1
  H+  H27  1  0.16545089  0.34430558  0.25850131  1
  H+  H28  1  0.85882115  0.30967581  0.18356191  1
  H+  H29  1  0.50985941  0.36903328  0.00134400  1
  H+  H30  1  0.65331165  0.67558864  0.70276534  1
  H+  H31  1  0.65168722  0.56507578  0.58433523  1
  H+  H32  1  0.73699465  0.34728018  0.67451146  1
  H+  H33  1  0.35429980  0.39892652  0.16117145  1
  H+  H34  1  0.60937538  0.12954476  0.00464015  1
  H+  H35  1  0.64124422  0.75588377  0.68930370  1
  H+  H36  1  0.28520212  0.68174491  0.18530355  1
  H+  H37  1  0.22904413  0.12758209  0.88804092  1
  H+  H38  1  0.21165430  0.98759048  0.09456464  1
  H+  H39  1  0.86093006  0.23395459  -0.00325616  1
  H+  H40  1  0.63811093  0.61411884  0.31377638  1
  H+  H41  1  0.37482181  0.21124278  0.00138677  1
  H+  H42  1  0.87701293  0.85972879  -0.02092038  1
  H+  H43  1  0.46246525  0.78456755  0.55304982  1
  H+  H44  1  0.35721803  0.13030358  0.48867020  1
  H+  H45  1  0.47320102  0.36716170  0.32548058  1
  H+  H46  1  0.38411487  0.00765668  0.84548523  1
  H+  H47  1  1.02494768  0.13712392  0.15823546  1
  H+  H48  1  0.37554743  0.64723869  0.68261395  1
  H+  H49  1  0.41968161  0.54686821  0.67177158  1
  H+  H50  1  0.62060945  0.75050880  0.50531143  1
  H+  H51  1  0.77697625  0.89817047  0.83074115  1
  H+  H52  1  0.17804853  0.31631770  0.71933389  1
  H+  H53  1  0.40521602  0.37009169  0.65862800  1
  H+  H54  1  0.47883875  0.12334934  0.32305609  1
  H+  H55  1  0.89052213  0.65584597  0.54156562  1
  H+  H56  1  0.90167033  0.79022729  0.54133805  1
  H+  H57  1  0.39235337  0.76388035  0.31881764  1
  H+  H58  1  0.29482398  0.90029583  0.67878871  1
  H+  H59  1  0.92474914  0.92538239  0.33847311  1
  H+  H60  1  0.60614113  0.47345093  0.15216292  1
  H+  H61  1  0.37034847  0.12093556  0.00981548  1
  H+  H62  1  0.40966203  0.50194307  0.78632708  1
  H+  H63  1  0.89595130  0.87624883  0.51404589  1
  H+  H64  1  0.37338456  0.96891029  0.00835664  1
  H+  H65  1  0.08044526  0.40387603  0.39966456  1
  H+  H66  1  0.09487542  0.35147836  0.48499826  1
  H+  H67  1  0.59601280  0.72904924  0.84844390  1
  H+  H68  1  0.38325868  0.85144505  0.84369602  1
  H+  H69  1  0.44854549  0.61707572  0.11994623  1
  H+  H70  1  0.66145654  0.65468504  0.85280099  1
  H+  H71  1  0.73631308  0.87169897  0.33740137  1
  H+  H72  1  0.21030169  0.61213438  0.84454984  1
  H+  H73  1  0.97873897  0.12036957  0.83800311  1
  H+  H74  1  0.53590161  0.64692534  0.33733863  1
  H+  H75  1  0.87006958  0.50221909  0.83112704  1
  H+  H76  1  1.01226293  0.13015629  1.00435081  1
  H+  H77  1  0.23846484  0.13041654  0.99362120  1
  H+  H78  1  0.98911354  0.86048592  0.68817171  1
  H+  H79  1  0.17733112  0.59218385  0.56734269  1
  H+  H80  1  0.72017843  0.60447416  0.29678848  1
  H+  H81  1  0.34182003  0.91705129  0.77202028  1
  H+  H82  1  0.80329977  0.65796387  0.54075873  1
  H+  H83  1  0.85490410  0.22174961  0.83094034  1
  H+  H84  1  0.36207649  0.22936842  0.67328747  1
  H+  H85  1  0.64349750  0.11794736  0.50175994  1
  H+  H86  1  0.85007256  0.46282044  0.00939920  1
  H+  H87  1  0.52288187  0.14096526  0.67500960  1
  H+  H88  1  0.09362679  0.38312026  0.16808938  1
  H+  H89  1  0.63431635  0.36037103  0.17142868  1
  H+  H90  1  0.09725986  0.11204797  0.48421576  1
  H+  H91  1  0.61768876  0.49794149  0.49248555  1
  H+  H92  1  0.33516510  0.61620562  0.82772965  1
  H+  H93  1  0.07794812  0.62813904  0.16649318  1
  H+  H94  1  0.39664107  0.03581610  0.66547265  1
  H+  H95  1  0.36915063  0.73275095  0.68086483  1
  H+  H96  1  0.88242277  0.35825412  0.84540475  1
  H+  H97  1  0.20339078  0.34558729  0.89736194  1
  H+  H98  1  0.47495581  0.11068703  0.17118020  1
  H+  H99  1  0.13587784  0.61098629  0.33510021  1
  H+  H100  1  0.26912416  0.63242148  0.33794039  1
  H+  H101  1  0.59805130  0.57072028  0.63873683  1
  H+  H102  1  0.85705102  0.71444336  0.28162980  1
  H+  H103  1  0.05060258  0.71600032  0.69862121  1
  H+  H104  1  0.41197747  0.34009457  0.26743667  1
  H+  H105  1  0.38510460  0.90520901  0.68161853  1
  H+  H106  1  0.61253479  0.88373868  0.49036599  1
  H+  H107  1  0.27283109  0.86576625  0.34566198  1
  H+  H108  1  0.50421436  0.90703232  0.17882687  1
  H+  H109  1  0.98630581  0.62154484  0.51469422  1
  H+  H110  1  0.87899133  0.10671976  0.98931758  1
  H+  H111  1  0.83639736  0.65151195  0.14938099  1
  H+  H112  1  0.64558822  0.85957645  0.32406638  1
  H+  H113  1  0.23525138  0.61642311  0.66586197  1
  H+  H114  1  0.87121372  0.13585748  0.49307321  1
  H+  H115  1  0.61542638  0.22799685  0.49426249  1
  H+  H116  1  0.61073490  0.47501555  0.32608763  1
  H+  H117  1  0.13059035  0.87735345  0.68056841  1
  H+  H118  1  0.09580946  0.71653291  0.83135897  1
  H+  H119  1  0.40993373  0.90431706  0.18486683  1
  H+  H120  1  0.38696918  0.28483806  0.17428955  1
  H+  H121  1  0.50275311  0.63634277  0.68330299  1
  H+  H122  1  0.88306478  0.86031692  0.83043226  1
  H+  H123  1  0.79507201  0.90364831  0.67490732  1
  H+  H124  1  0.17406708  0.10693685  0.24702496  1
  H+  H125  1  0.87299010  0.64168252  0.31180338  1
  H+  H126  1  0.61485618  0.45851237  0.65849476  1
  H+  H127  1  0.35646319  0.63399486  0.48410678  1
  H+  H128  1  0.48797149  0.86985901  0.66966487  1
  H+  H129  1  0.36834950  0.98375897  0.15999273  1
  H+  H130  1  0.37849874  0.51935183  0.49556401  1
  H+  H131  1  0.70029239  0.61758532  0.15314066  1
  H+  H132  1  0.93066745  0.02681943  0.65897841  1
  H+  H133  1  0.12534039  -0.03869482  0.68651232  1
  H+  H134  1  -0.02752397  0.36008660  0.84193804  1
  H+  H135  1  0.78419623  0.64778598  0.81972452  1
  H+  H136  1  0.84650247  0.77014031  0.19149218  1
  H+  H137  1  0.35143945  0.37866870  0.34036377  1
  H+  H138  1  0.91535143  0.86367655  0.28455951  1
  H+  H139  1  0.91273235  0.07914448  0.93168804  1
  H+  H140  1  0.64522256  0.35275445  0.66483955  1
  H+  H141  1  0.36450260  0.86730713  1.00900973  1
  H+  H142  1  0.35972219  0.23245117  0.33798034  1
  H+  H143  1  0.60764410  0.12567750  0.82831299  1
  H+  H144  1  1.03265962  0.63740057  0.34713844  1
  H+  H145  1  0.59869500  0.45545236  0.81851619  1
  H+  H146  1  0.88826788  0.26228849  0.66244958  1
  H+  H147  1  0.27156706  0.14507273  0.33041515  1
  H+  H148  1  1.02430778  0.88494396  0.99151119  1
  H+  H149  1  0.36123952  0.86478613  0.34666286  1
  H+  H150  1  0.27334351  0.68350185  0.15247923  1
  H+  H151  1  0.61152387  0.22440281  0.15815614  1
  H+  H152  1  0.36855044  0.24982541  0.81862706  1
  H+  H153  1  0.86702696  0.47909729  0.49687314  1
  H+  H154  1  0.47613001  0.09524677  0.99648460  1
  H+  H155  1  0.09712105  0.13543798  0.32731817  1
  H+  H156  1  0.47016975  0.10029016  0.84430062  1
  H+  H157  1  0.85743761  0.13469318  0.82900576  1
  H+  H158  1  0.34689010  0.37181179  -0.00062667  1
  H+  H159  1  0.04953047  0.41018307  0.07508314  1
  H+  H160  1  0.89303311  1.02854364  0.83660736  1
  H+  H161  1  0.22757673  0.37070947  0.32414434  1
  H+  H162  1  0.96059530  0.35608523  0.99895222  1
  H+  H163  1  0.52886876  0.88869102  0.48946739  1
  H+  H164  1  0.23995773  0.86884825  0.51014994  1
  H+  H165  1  0.61255160  0.84921471  0.15866679  1
  H+  H166  1  0.45589757  0.59722781  0.97237539  1
  H+  H167  1  0.13369210  0.37621851  0.32464169  1
  H+  H168  1  0.63486298  0.25197730  0.67448803  1
  H+  H169  1  0.63523221  0.10973494  0.65765950  1
  H+  H170  1  0.38930686  0.02609705  0.50740638  1
  H+  H171  1  0.87482127  0.43319042  0.15558523  1
  H+  H172  1  0.12976183  0.85077410  0.97359847  1
  H+  H173  1  0.14633771  0.86416897  0.32491715  1
  H+  H174  1  0.12477084  0.27753028  -0.01853477  1
  H+  H175  1  0.30454737  0.25347449  0.95470549  1
  H+  H176  1  0.59670049  0.62734814  0.98508273  1
  H+  H177  1  0.72169843  0.36233072  0.50260846  1
  H+  H178  1  0.83469308  0.92690575  0.76862560  1
  H+  H179  1  0.62165219  0.14164608  0.15180285  1
  H+  H180  1  0.59881914  0.36999981  0.00096027  1
  H+  H181  1  0.10890796  0.47408962  0.34305961  1
  H+  H182  1  0.89626189  0.75186461  1.00108463  1
  H+  H183  1  0.86174094  0.37864607  0.34632170  1
  H+  H184  1  0.37912063  0.76040705  0.84373121  1
  H+  H185  1  0.62898782  0.99323244  0.14029530  1
  H+  H186  1  0.87525161  0.57849730  0.66654794  1
  H+  H187  1  0.35279117  0.46825693  0.34754138  1
  H+  H188  1  0.63633576  0.35303485  0.83551032  1
  H+  H189  1  0.13033678  0.76234760  -0.02336184  1
  H+  H190  1  0.01357707  0.36472301  0.48738480  1
  H+  H191  1  0.52859427  0.36929397  0.66127497  1
  H+  H192  1  0.86495585  0.36364113  0.67942941  1
  H+  H193  1  0.60699379  -0.03155584  0.83488757  1
  H+  H194  1  0.74571226  0.09581750  0.30902766  1
  H+  H195  1  0.04002787  0.91032080  0.34928181  1
  H+  H196  1  0.11153379  0.96725648  0.49939224  1
  H+  H197  1  0.40888577  0.57463289  0.28473681  1
  H+  H198  1  0.16298558  0.87735499  0.16292555  1
  H+  H199  1  0.12259227  0.39892724  0.68752528  1
  H+  H200  1  0.59686486  0.71658357  -0.02643372  1
  H+  H201  1  0.11713232  0.23818478  0.49869454  1
  H+  H202  1  0.13058861  1.03694383  0.29649327  1
  H+  H203  1  0.60998129  0.21582248  0.82801484  1
  H+  H204  1  0.35495169  0.54175346  0.13457315  1
  H+  H205  1  0.24057848  0.14010228  0.16304860  1
  H+  H206  1  0.75774311  0.60239500  0.66477700  1
  H+  H207  1  0.85885748  1.01518800  0.34648594  1
  H+  H208  1  0.84996271  0.37336864  0.00315293  1
  H+  H209  1  0.64495106  1.02919949  0.49914960  1
  H+  H210  1  0.89571157  0.51574568  0.33287492  1
  H+  H211  1  0.71521081  0.35205271  0.99224734  1
  H+  H212  1  0.83338742  0.94760295  0.14330626  1
  H+  H213  1  0.89304005  0.27440910  0.36642997  1
  H+  H214  1  0.13050470  0.27901310  0.17312161  1
  H+  H215  1  0.21527971  0.59840624  0.99890297  1
  H+  H216  1  0.21948164  0.09816926  0.49995391  1
  H+  H217  1  -0.03153553  0.86179748  0.11382589  1
  H+  H218  1  0.63124651  0.86516391  0.86254981  1
  H+  H219  1  0.99596640  0.36115803  0.17448384  1
  H+  H220  1  0.14634310  0.13418390  0.15797331  1
  H+  H221  1  0.05726282  0.14876938  0.70606983  1
  H+  H222  1  0.00311416  0.12549648  0.33196406  1
  H+  H223  1  0.61901181  0.51161988  0.99024655  1
  H+  H224  1  0.34910690  0.10572438  0.83246726  1
  H+  H225  1  0.31043953  0.39987355  0.72227889  1
  H+  H226  1  0.70310362  0.58538310  0.47979651  1
  H+  H227  1  0.61853796  0.97122502  0.33345774  1
  H+  H228  1  0.16850363  0.77730653  0.66395278  1
  H+  H229  1  0.74762327  0.70735964  0.88858392  1
  H+  H230  1  0.35283237  0.46324487  1.00184286  1
  H+  H231  1  0.77579498  0.13617722  0.67410603  1
  H+  H232  1  0.36578561  0.37334917  0.76530871  1
  H+  H233  1  0.95369305  0.01190400  0.19795080  1
  H+  H234  1  0.71951752  0.10487726  0.84083892  1
  H+  H235  1  0.45791116  0.33656418  0.81801256  1
  H+  H236  1  0.88056271  1.03262709  0.51207751  1
  H+  H237  1  0.21573101  0.35891221  -0.01046227  1
  H+  H238  1  0.76943542  0.38662668  0.82919508  1
  H+  H239  1  0.09653714  0.47297129  0.83254470  1
  H+  H240  1  0.12107238  0.73348922  0.50027396  1
  H+  H241  1  0.87654746  0.60491338  0.82955592  1
  H+  H242  1  0.71523161  0.85972418  0.96072283  1
  H+  H243  1  0.21884750  0.37010021  0.17073211  1
  H+  H244  1  0.61289257  0.38649428  0.33085223  1
  H+  H245  1  0.77350587  0.13586652  0.49082004  1
  H+  H246  1  0.17796282  0.29425790  0.80971231  1
  H+  H247  1  0.48324460  0.85351159  0.32606617  1
  H+  H248  1  0.72036061  0.10584732  0.99376199  1
  H+  H249  1  0.36966914  0.14487107  0.16452616  1
  H+  H250  1  0.11184177  0.47947209  0.67573572  1
  H+  H251  1  0.39191268  0.12258041  0.66268372  1
  H+  H252  1  0.14877560  0.61950520  0.66569416  1
  H+  H253  1  0.74582592  0.12859128  0.11881243  1
  H+  H254  1  0.08895934  0.50243286  0.18147586  1
  H+  H255  1  0.28440558  0.88716543  0.16039536  1
  H+  H256  1  0.27011710  0.64127136  0.49316526  1
  H+  H257  1  0.22428793  0.10287071  0.65623518  1
  H+  H258  1  1.01514186  0.62513932  1.00662051  1
  H+  H259  1  0.37832220  0.26448811  0.50139273  1
  H+  H260  1  0.77606053  0.38534279  0.33975606  1
  H+  H261  1  0.86313277  0.45237112  0.67850883  1
  H+  H262  1  0.97715581  0.35484767  0.66001315  1
  H+  H263  1  0.83125697  0.16539538  0.73441954  1
  H+  H264  1  0.25755600  0.36438601  0.49691058  1
  H+  H265  1  0.08743355  0.46652429  0.01431936  1
  H+  H266  1  0.98492017  0.84135266  0.13578112  1
  H+  H267  1  0.89909894  0.78432182  0.70624547  1
  H+  H268  1  0.37303740  0.89309163  0.49858287  1
  H+  H269  1  0.88340617  0.17186852  0.09097854  1
  H+  H270  1  0.36897288  0.75148757  -0.00536450  1
  H+  H271  1  0.96898822  0.58987208  0.67262603  1
  H+  H272  1  0.58155874  0.62370576  0.13240158  1
  H+  H273  1  0.82262150  0.38736550  0.09619478  1
  H+  H274  1  0.77996193  0.88437924  0.50252992  1
  H+  H275  1  0.89146049  0.61566936  0.99771416  1
  H+  H276  1  0.14009581  0.77898945  0.16741255  1
  H+  H277  1  0.44168456  0.86517164  0.24500611  1
  H+  H278  1  0.41619432  0.33219705  0.59406263  1
  H+  H279  1  0.14364673  0.62247228  0.51099316  1
  H+  H280  1  0.38783089  0.75688895  0.50728880  1
  H+  H281  1  0.37869655  0.60791747  0.33999757  1
  H+  H282  1  0.64192561  0.27493391  0.32849048  1
  H+  H283  1  0.50926194  0.87411957  0.99524147  1
  H+  H284  1  0.89062486  0.77493381  0.82533994  1
  H+  H285  1  0.73756049  0.86440609  0.14206929  1
  H+  H286  1  0.62023553  0.97858196  0.68039008  1
  H+  H287  1  0.86385518  0.23007938  0.49592586  1
  H+  H288  1  0.57338977  0.91987168  0.09202889  1
  H+  H289  1  0.37850376  0.55225872  0.92237656  1
  H+  H290  1  0.91265465  0.83180278  0.92083421  1
  H+  H291  1  0.90226248  0.57221915  0.93788235  1
  H+  H292  1  0.48249654  0.59585752  0.82487401  1
  H+  H293  1  0.16284840  0.06700377  0.56119984  1
  H+  H294  1  0.41237246  0.06132291  0.93818855  1
  H+  H295  1  0.62728443  0.26229321  0.98908059  1
  H+  H296  1  0.90959262  0.32303629  0.56758619  1
  H+  H297  1  0.97721598  0.35315969  0.33946233  1
  H+  H298  1  0.15384206  0.58048858  0.90599636  1
  H+  H299  1  0.33818418  0.63761759  0.06008753  1
  H+  H300  1  0.42405546  0.84027450  0.61233625  1
  H+  H301  1  0.59124750  0.91735234  0.74060757  1
  H+  H302  1  0.66718849  0.08044551  0.59943275  1
  H+  H303  1  0.57334197  0.40384718  0.09934029  1
  H+  H304  1  0.92753507  0.57535791  0.57403835  1
  H+  H305  1  0.59307431  0.66730118  0.42274071  1
  H+  H306  1  0.44234226  0.77869055  0.08688720  1
  H+  H307  1  0.58808744  0.16899989  0.40332821  1
  H+  H308  1  0.65150508  0.87684130  0.66906385  1
  H+  H309  1  0.64271206  0.58128180  0.21266782  1
  H+  H310  1  0.94888678  0.73273473  0.04908720  1
  H+  H311  1  0.31935085  0.40975487  0.09750614  1
  H+  H312  1  0.66752862  0.08521718  0.27009890  1
  H+  H313  1  0.99427519  0.87571552  0.51273212  1
  H+  H314  1  0.39805974  0.81348618  0.93473855  1
  H+  H315  1  0.67543391  0.83780293  0.61109872  1
  H+  H316  1  0.34792449  0.17486452  0.10242416  1
  H+  H317  1  0.79729517  0.62664132  0.42838664  1
  H+  H318  1  0.80091532  0.89365743  0.04657352  1
  H+  H319  1  0.07781021  0.17607287  0.09648601  1
  H+  H320  1  0.67060325  0.58260925  0.93937279  1
  H+  H321  1  0.12176194  0.87789560  0.78540772  1
  H+  H322  1  0.33707500  0.90792374  0.43615878  1
  H+  H323  1  0.62973927  0.01594649  0.99143837  1
  H+  H324  1  0.06977725  0.41714489  0.77208683  1
  H+  H325  1  0.83381025  0.41082486  0.76987008  1
  H+  H326  1  0.83789111  0.93259886  0.44528143  1
  H+  H327  1  0.07112604  0.66330100  0.74539042  1
  H+  H328  1  0.59331799  0.68914241  0.78310526  1
  H+  H329  1  0.78172451  0.98686792  0.39465293  1
  H+  H330  1  0.57933571  0.16181198  0.06313703  1
  H+  H331  1  0.06764961  0.14371068  0.42326292  1
  H+  H332  1  0.82679221  0.69622745  0.09259144  1
  H+  H333  1  0.32457137  0.15905820  0.42923042  1
  H+  H334  1  0.16697344  0.21197919  0.77517356  1
  H+  H335  1  0.08825176  0.67378076  0.44071838  1
  H+  H336  1  0.73811282  0.10767806  0.18694812  1
  H+  H337  1  0.89467833  0.29874105  0.24653186  1
  H+  H338  1  0.59918168  0.87865146  -0.01290359  1
  H+  H339  1  0.58753279  0.91419889  0.39346157  1
  H+  H340  1  0.37643135  0.35265132  0.50158453  1
  H+  H341  1  0.66830413  0.33059843  0.26705465  1
  H+  H342  1  0.50738438  0.61543495  0.22894232  1
  H+  H343  1  0.34738441  0.91152804  0.07443631  1
  H+  H344  1  0.32939977  0.16601561  0.73169904  1
  H+  H345  1  0.66026260  0.07694376  0.90049244  1
  H+  H346  1  0.13029223  0.60675440  0.99984195  1
  H+  H347  1  0.41666166  0.08841592  0.56532238  1
  H+  H348  1  0.31231277  0.39689986  0.43599423  1
  H+  H349  1  0.20363120  0.34214051  0.64957291  1
  H+  H350  1  0.49893849  0.65240555  0.22892901  1
  H+  H351  1  0.60730141  0.75917868  0.14817895  1
  H+  H352  1  0.90832370  0.32494946  0.93346258  1
  H+  H353  1  0.13304944  0.98374019  0.37237997  1
  H+  H354  1  0.82871526  0.64976370  0.75492289  1
  H+  H355  1  0.17373724  0.83472320  0.26417184  1
  H+  H356  1  0.07645035  0.89913035  0.44417573  1
  H+  H357  1  0.93989444  0.56875495  0.27355593  1
  H+  H358  1  0.32014090  0.66296065  0.77123018  1
  H+  H359  1  0.58020818  0.15976576  0.73710154  1
  H+  H360  1  0.15994453  0.82127483  0.89260537  1
  H+  H361  1  0.63128076  0.35712686  0.49502579  1
  H+  H362  1  0.32724685  0.66821169  0.39803274  1
  H+  H363  1  0.25730334  0.07841658  0.80460401  1
  H+  H364  1  0.58461962  0.40484169  0.75640278  1
  H+  H365  1  0.79495571  0.66695743  0.42279437  1
  H+  H366  1  0.83701135  0.42064913  0.43711851  1
  H+  H367  1  0.87828846  0.89359547  0.68701184  1
  H+  H368  1  0.09114467  0.91421785  0.04669075  1
  H+  H369  1  0.66579850  0.32651879  0.89718012  1
  H+  H370  1  0.26738624  0.41964644  0.85239924  1
  H+  H371  1  0.62948246  0.73458519  0.33587190  1
  H+  H372  1  0.82738739  0.84291116  0.20009599  1
  H+  H373  1  0.56387124  0.65945476  0.06989732  1
  H+  H374  1  0.19047234  0.83597016  0.60441941  1
  H+  H375  1  0.17399718  0.59265268  0.17583617  1
  H+  H376  1  0.14735963  0.57209672  0.27320984  1
  H+  H377  1  0.12767803  0.28666935  0.56065745  1
  H+  H378  1  0.12626801  0.08066173  0.65613442  1
  H+  H379  1  0.86298320  0.61428578  0.22448219  1
  H+  H380  1  0.07220540  0.66472350  0.06586374  1
  H+  H381  1  0.37901741  0.31042475  0.90931814  1
  H+  H382  1  0.41753645  0.08638627  0.23204130  1
  H+  H383  1  0.57284207  0.40889768  0.42052630  1
  O2-  O384  1  0.08335938  0.17806079  0.14222789  1
  O2-  O385  1  0.06857360  0.14372221  0.46976720  1
  O2-  O386  1  0.14404547  0.25089366  0.77494724  1
  O2-  O387  1  0.05377216  0.40487580  0.15817720  1
  O2-  O388  1  0.06948441  0.38446388  0.46722973  1
  O2-  O389  1  0.06517241  0.41331445  0.81705757  1
  O2-  O390  1  0.06208172  0.66925161  0.14796770  1
  O2-  O391  1  0.08502058  0.67295814  0.48610007  1
  O2-  O392  1  0.06305327  0.65336773  0.82004788  1
  O2-  O393  1  0.16044844  0.96188561  0.12007023  1
  O2-  O394  1  0.07641949  0.90259002  0.48971780  1
  O2-  O395  1  0.12357221  0.87537825  0.83040708  1
  O2-  O396  1  0.34416897  0.17889465  0.14745606  1
  O2-  O397  1  0.32269479  0.15693064  0.47480232  1
  O2-  O398  1  0.31212724  0.12875871  0.81534828  1
  O2-  O399  1  0.31754909  0.41941799  0.14235523  1
  O2-  O400  1  0.31716831  0.39820441  0.48117287  1
  O2-  O401  1  0.35287953  0.53769107  0.85073086  1
  O2-  O402  1  0.43417831  0.77302950  0.13060485  1
  O2-  O403  1  0.33049952  0.67105106  0.47402988  1
  O2-  O404  1  0.31634817  0.65882168  0.81651711  1
  O2-  O405  1  0.34567346  0.92192426  0.14588911  1
  O2-  O406  1  0.34085373  0.91915769  0.48237038  1
  O2-  O407  1  0.33570225  0.90871692  0.81729911  1
  O2-  O408  1  0.58327170  0.16436145  0.14150548  1
  O2-  O409  1  0.58731490  0.16562655  0.48049543  1
  O2-  O410  1  0.57675950  0.15577185  0.81271474  1
  O2-  O411  1  0.57901208  0.41004229  0.14431631  1
  O2-  O412  1  0.57161518  0.40722669  0.46631621  1
  O2-  O413  1  0.57790412  0.39820743  0.80165926  1
  O2-  O414  1  0.55508176  0.65602222  0.11483690  1
  O2-  O415  1  0.58573538  0.66190104  0.46854612  1
  O2-  O416  1  0.57791277  0.67357999  0.82688004  1
  O2-  O417  1  0.58264803  0.93241528  0.13610254  1
  O2-  O418  1  0.58880020  0.91881433  0.47380621  1
  O2-  O419  1  0.58149478  0.90696790  0.82138877  1
  O2-  O420  1  0.83714618  0.18289082  0.07912772  1
  O2-  O421  1  0.83655858  0.16896894  0.47754152  1
  O2-  O422  1  0.82309341  0.16122375  0.81562711  1
  O2-  O423  1  0.82325539  0.38164322  0.14206428  1
  O2-  O424  1  0.83664170  0.41880873  0.48247768  1
  O2-  O425  1  0.83172581  0.42193358  0.81498628  1
  O2-  O426  1  0.80760586  0.68302097  0.13560223  1
  O2-  O427  1  0.86169408  0.68944843  0.55684504  1
  O2-  O428  1  0.83835520  0.65738672  0.79947271  1
  O2-  O429  1  0.79934430  0.88907807  0.12698050  1
  O2-  O430  1  0.83989152  0.91766576  0.48967219  1
  O2-  O431  1  0.83588676  0.92624916  0.81458040  1
  O2-  O432  1  0.17790412  0.10520197  0.17388467  1
  O2-  O433  1  0.15873656  0.06464089  0.51564137  1
  O2-  O434  1  0.17873883  0.09889889  0.91501343  1
  O2-  O435  1  0.15950253  0.33915210  0.18977304  1
  O2-  O436  1  0.14499104  0.29748229  0.51817173  1
  O2-  O437  1  0.23551085  0.35665644  0.85752452  1
  O2-  O438  1  0.11724390  0.56481678  0.19513280  1
  O2-  O439  1  0.17906943  0.59657565  0.52253509  1
  O2-  O440  1  0.15019878  0.58369250  0.86050908  1
  O2-  O441  1  0.18026730  0.83817699  0.18237179  1
  O2-  O442  1  0.18116271  0.83684392  0.52927796  1
  O2-  O443  1  0.16242712  0.82101185  0.84285327  1
  O2-  O444  1  0.41432707  0.08167335  0.18541872  1
  O2-  O445  1  0.41706598  0.08754369  0.52008889  1
  O2-  O446  1  0.41073637  0.06849809  0.86127663  1
  O2-  O447  1  0.41392357  0.34498409  0.18969185  1
  O2-  O448  1  0.41063007  0.32544366  0.51586644  1
  O2-  O449  1  0.39544363  0.31251178  0.82365290  1
  O2-  O450  1  0.38694889  0.60260432  0.12251895  1
  O2-  O451  1  0.40839317  0.58214948  0.50157351  1
  O2-  O452  1  0.42887064  0.53514046  0.82609815  1
  O2-  O453  1  0.46061806  0.90854608  0.20887371  1
  O2-  O454  1  0.43315655  0.81006290  0.53151844  1
  O2-  O455  1  0.41225548  0.82057205  0.86032249  1
  O2-  O456  1  0.70192045  0.10162146  0.15209996  1
  O2-  O457  1  0.67654054  0.08882255  0.51529250  1
  O2-  O458  1  0.65805954  0.07395993  0.85502415  1
  O2-  O459  1  0.66138028  0.32716791  0.18749060  1
  O2-  O460  1  0.66025577  0.32835374  0.51379868  1
  O2-  O461  1  0.67048677  0.32747342  0.85136271  1
  O2-  O462  1  0.64025647  0.57845025  0.16738357  1
  O2-  O463  1  0.65385542  0.56099896  0.50757800  1
  O2-  O464  1  0.71278202  0.65246869  0.86785175  1
  O2-  O465  1  0.64208066  0.81672693  0.16705007  1
  O2-  O466  1  0.62670355  0.79904614  0.53293626  1
  O2-  O467  1  0.66209719  0.83378807  0.87715597  1
  O2-  O468  1  0.92844020  0.04750667  0.18823712  1
  O2-  O469  1  0.91256849  0.09587519  0.51410825  1
  O2-  O470  1  0.92003086  0.08875014  0.85336848  1
  O2-  O471  1  0.89634607  0.29070972  0.20235912  1
  O2-  O472  1  0.90589671  0.32143074  0.52190267  1
  O2-  O473  1  0.91055832  0.32614910  0.85875087  1
  O2-  O474  1  0.88395038  0.59581551  0.18810070  1
  O2-  O475  1  0.92538937  0.59078625  0.53084826  1
  O2-  O476  1  0.90375834  0.57146004  0.84826948  1
  O2-  O477  1  0.85067349  0.81156273  0.22284414  1
  O2-  O478  1  0.93286083  0.85472347  0.53405138  1
  O2-  O479  1  0.91018750  0.82869736  0.84767509  1
  O2-  O480  1  0.16703857  0.09898706  0.29289750  1
  O2-  O481  1  0.16630876  0.06185491  0.64022875  1
  O2-  O482  1  0.20813048  0.15420168  0.96945492  1
  O2-  O483  1  0.16728032  0.34790958  0.30582072  1
  O2-  O484  1  0.20714188  0.36671459  0.68966809  1
  O2-  O485  1  0.16301981  0.33488696  0.96441086  1
  O2-  O486  1  0.15981614  0.57556496  0.31757918  1
  O2-  O487  1  0.17426697  0.58610395  0.65084927  1
  O2-  O488  1  0.15519350  0.57221555  0.98340286  1
  O2-  O489  1  0.17045110  0.82918781  0.30933475  1
  O2-  O490  1  0.19390314  0.83713186  0.65027101  1
  O2-  O491  1  0.15865767  0.81928776  0.95673973  1
  O2-  O492  1  0.42194413  0.09670787  0.30338124  1
  O2-  O493  1  0.42546319  0.09546959  0.64809117  1
  O2-  O494  1  0.41358057  0.05939467  0.98399655  1
  O2-  O495  1  0.41132626  0.33794821  0.31314041  1
  O2-  O496  1  0.42432076  0.33285108  0.63963290  1
  O2-  O497  1  0.36667509  0.29796121  0.95335928  1
  O2-  O498  1  0.40962286  0.57550373  0.32913296  1
  O2-  O499  1  0.44400042  0.60846694  0.66636830  1
  O2-  O500  1  0.39235679  0.56163172  0.96756021  1
  O2-  O501  1  0.42446422  0.82606407  0.30718442  1
  O2-  O502  1  0.42597355  0.84251504  0.65724293  1
  O2-  O503  1  0.39729742  0.81345587  0.98094209  1
  O2-  O504  1  0.68375994  0.07863749  0.31113127  1
  O2-  O505  1  0.66404083  0.07763349  0.64456744  1
  O2-  O506  1  0.65969915  0.07770053  0.97914122  1
  O2-  O507  1  0.67167411  0.33520703  0.31240897  1
  O2-  O508  1  0.67451757  0.31752701  0.65912306  1
  O2-  O509  1  0.65626366  0.32300928  0.97392679  1
  O2-  O510  1  0.65699689  0.57657764  0.29298789  1
  O2-  O511  1  0.64741732  0.56354357  0.62997821  1
  O2-  O512  1  0.64860991  0.57379227  0.98116447  1
  O2-  O513  1  0.68095727  0.83207469  0.31788114  1
  O2-  O514  1  0.68409727  0.84728338  0.65537504  1
  O2-  O515  1  0.65385429  0.83128050  0.94415457  1
  O2-  O516  1  0.90144371  0.07751848  0.30137381  1
  O2-  O517  1  0.98174512  0.07852259  0.64128628  1
  O2-  O518  1  0.90676815  0.07322564  0.97686426  1
  O2-  O519  1  0.91305770  0.31598124  0.33315933  1
  O2-  O520  1  0.91622033  0.32370322  0.64565645  1
  O2-  O521  1  0.90025827  0.32098580  0.97909344  1
  O2-  O522  1  0.93094760  0.57616674  0.31645125  1
  O2-  O523  1  0.91125307  0.55313623  0.65406929  1
  O2-  O524  1  0.90538768  0.57139562  0.98249313  1
  O2-  O525  1  0.94619688  0.88854825  0.32365743  1
  O2-  O526  1  0.92649111  0.83299339  0.67871091  1
  O2-  O527  1  0.91328469  0.83482186  0.96679980  1
  O2-  O528  1  0.07126885  0.16810830  0.02073318  1
  O2-  O529  1  0.06087143  0.15088004  0.35178639  1
  O2-  O530  1  0.04579946  0.09375813  0.68867303  1
  O2-  O531  1  0.04568220  0.40881740  0.03026956  1
  O2-  O532  1  0.08207300  0.41107894  0.35277127  1
  O2-  O533  1  0.08055258  0.41901708  0.69071520  1
  O2-  O534  1  0.07548479  0.66005586  0.02105297  1
  O2-  O535  1  0.09326547  0.66948039  0.36177641  1
  O2-  O536  1  0.06859337  0.67291581  0.70015671  1
  O2-  O537  1  0.08368025  0.90105872  0.00308371  1
  O2-  O538  1  0.09636968  0.92165719  0.36804745  1
  O2-  O539  1  0.10003702  0.90212992  0.70304242  1
  O2-  O540  1  0.34629514  0.15714030  0.02475937  1
  O2-  O541  1  0.32837237  0.17071149  0.35069329  1
  O2-  O542  1  0.33117104  0.16824940  0.68682375  1
  O2-  O543  1  0.32411521  0.40467207  0.02071290  1
  O2-  O544  1  0.31696694  0.40505539  0.35584403  1
  O2-  O545  1  0.37012331  0.41764621  0.73603961  1
  O2-  O546  1  0.32547007  0.64808477  0.01803596  1
  O2-  O547  1  0.32997332  0.66360860  0.35238928  1
  O2-  O548  1  0.33750496  0.67121323  0.69298154  1
  O2-  O549  1  0.34444472  0.90784979  0.02785229  1
  O2-  O550  1  0.32773030  0.88697042  0.36770845  1
  O2-  O551  1  0.35409441  0.93527107  0.69583746  1
  O2-  O552  1  0.57631206  0.15838219  0.01759906  1
  O2-  O553  1  0.59150159  0.17114420  0.35757663  1
  O2-  O554  1  0.58385232  0.16646113  0.69127386  1
  O2-  O555  1  0.56819890  0.39940058  0.01764674  1
  O2-  O556  1  0.58099737  0.41601053  0.34421906  1
  O2-  O557  1  0.58932169  0.40035989  0.67711683  1
  O2-  O558  1  0.56389265  0.65879272  -0.00838585  1
  O2-  O559  1  0.59679866  0.67117984  0.34877523  1
  O2-  O560  1  0.61302415  0.69631991  0.70846215  1
  O2-  O561  1  0.57071116  0.90666681  0.00785389  1
  O2-  O562  1  0.58593696  0.91090973  0.34828390  1
  O2-  O563  1  0.59253053  0.91761801  0.69505732  1
  O2-  O564  1  0.82958575  0.16771883  0.01285366  1
  O2-  O565  1  0.85755150  0.12884952  0.30730280  1
  O2-  O566  1  0.83540845  0.16801725  0.68933151  1
  O2-  O567  1  0.81876274  0.40130023  0.02185763  1
  O2-  O568  1  0.83598703  0.41478523  0.35681508  1
  O2-  O569  1  0.83272002  0.39291644  0.69655871  1
  O2-  O570  1  0.89314715  0.70423598  0.02869086  1
  O2-  O571  1  0.83515825  0.65251904  0.28500393  1
  O2-  O572  1  0.81941777  0.63322484  0.67512618  1
  O2-  O573  1  0.80683007  0.90045039  0.00113148  1
  O2-  O574  1  0.82055375  0.96699923  0.38106669  1
  O2-  O575  1  0.85280527  0.93155819  0.69397544  1
