# generated using pymatgen
data_H2O
_symmetry_space_group_name_H-M   'P 1'
_cell_length_a   17.99634008
_cell_length_b   17.99309663
_cell_length_c   21.99823700
_cell_angle_alpha   89.99741821
_cell_angle_beta   89.99069100
_cell_angle_gamma   120.01303696
_symmetry_Int_Tables_number   1
_chemical_formula_structural   H2O
_chemical_formula_sum   'H384 O192'
_cell_volume   6168.10181606
_cell_formula_units_Z   192
loop_
 _symmetry_equiv_pos_site_id
 _symmetry_equiv_pos_as_xyz
  1  'x, y, z'
loop_
 _atom_type_symbol
 _atom_type_oxidation_number
  H+  1.0
  O2-  -2.0
loop_
 _atom_site_type_symbol
 _atom_site_label
 _atom_site_symmetry_multiplicity
 _atom_site_fract_x
 _atom_site_fract_y
 _atom_site_fract_z
 _atom_site_occupancy
  H+  H0  1  0.09890421  0.87922921  0.00697914  1
  H+  H1  1  0.47098981  0.86227580  0.50402920  1
  H+  H2  1  0.43235781  0.45339001  0.05342188  1
  H+  H3  1  0.01487511  0.21324677  0.37600172  1
  H+  H4  1  0.63825844  0.36399229  0.65800520  1
  H+  H5  1  0.85771875  0.47690054  0.01579889  1
  H+  H6  1  0.64701769  0.87760138  0.17462918  1
  H+  H7  1  0.86899091  0.22546597  0.88012174  1
  H+  H8  1  0.13905507  0.61082699  0.18553087  1
  H+  H9  1  0.38528653  0.75041096  0.00522011  1
  H+  H10  1  0.62190354  0.39688303  0.48555934  1
  H+  H11  1  1.01366929  0.39349019  0.67612005  1
  H+  H12  1  0.70070964  0.37442892  0.32169860  1
  H+  H13  1  0.58235434  0.15277090  0.76774102  1
  H+  H14  1  0.35741064  0.73355779  0.67749624  1
  H+  H15  1  0.61829356  0.47311456  0.83000469  1
  H+  H16  1  0.75031254  0.87923044  0.50469145  1
  H+  H17  1  0.28022138  0.12439361  0.83763704  1
  H+  H18  1  0.74943803  0.61831261  0.33505492  1
  H+  H19  1  0.13901262  0.61210822  0.32978351  1
  H+  H20  1  0.23028082  0.38386118  0.18124180  1
  H+  H21  1  0.41851119  0.83027420  0.22807601  1
  H+  H22  1  0.77282273  0.89037565  0.84978389  1
  H+  H23  1  0.58988294  0.41704758  0.73162148  1
  H+  H24  1  0.87456304  0.39425959  0.48975551  1
  H+  H25  1  0.51032080  0.35291004  0.14715356  1
  H+  H26  1  0.60339787  0.63315725  0.14421002  1
  H+  H27  1  0.50872157  0.87125711  0.33730200  1
  H+  H28  1  0.70499478  0.09949178  0.99747965  1
  H+  H29  1  0.14595824  0.03120605  0.33225814  1
  H+  H30  1  0.87573767  0.59257248  0.33000387  1
  H+  H31  1  0.22962429  0.57628810  0.49603424  1
  H+  H32  1  0.08587396  0.66505255  0.12511767  1
  H+  H33  1  0.27640842  0.62300386  1.00964391  1
  H+  H34  1  0.85534168  0.46964545  0.82393538  1
  H+  H35  1  0.35952954  0.13287934  0.16778531  1
  H+  H36  1  0.09844754  0.49125770  0.49830773  1
  H+  H37  1  0.11594863  0.22955850  0.81516957  1
  H+  H38  1  0.35345975  0.96739310  -0.00611045  1
  H+  H39  1  1.01002024  0.61969393  0.95890151  1
  H+  H40  1  0.48828084  0.05624346  0.83926918  1
  H+  H41  1  -0.01694964  0.12134818  0.16383288  1
  H+  H42  1  0.02247958  0.38560100  0.15532576  1
  H+  H43  1  0.13571843  0.52964098  0.66764009  1
  H+  H44  1  0.38535995  0.86632646  0.65643610  1
  H+  H45  1  0.12321339  0.38272532  0.35999071  1
  H+  H46  1  0.13826364  0.52181797  0.17720351  1
  H+  H47  1  0.97539785  0.36756339  0.85112205  1
  H+  H48  1  0.26915784  0.64373965  0.68099866  1
  H+  H49  1  0.12014875  0.14612993  0.16034719  1
  H+  H50  1  0.20609670  0.85425790  0.82798380  1
  H+  H51  1  0.86781834  0.14489567  0.18237765  1
  H+  H52  1  0.86302927  0.90571160  0.32925967  1
  H+  H53  1  0.87831145  0.61444541  0.83279440  1
  H+  H54  1  0.80285190  0.37368384  0.34639277  1
  H+  H55  1  0.85661749  0.96921593  0.00143957  1
  H+  H56  1  0.01785531  0.63873416  0.66973467  1
  H+  H57  1  0.11039229  0.13785612  1.00424129  1
  H+  H58  1  0.31741202  0.16915400  0.44201519  1
  H+  H59  1  1.02293622  0.89071645  0.16165577  1
  H+  H60  1  0.82302224  0.16272266  0.70146243  1
  H+  H61  1  0.61528913  0.47431506  0.67107785  1
  H+  H62  1  0.19733849  0.35338029  0.77289896  1
  H+  H63  1  0.52052961  0.63172276  0.69467093  1
  H+  H64  1  0.88081419  0.10449535  0.50806050  1
  H+  H65  1  0.01664026  0.63434793  0.48748554  1
  H+  H66  1  0.53557802  0.39254904  -0.00072155  1
  H+  H67  1  0.63442313  0.86556693  0.50344841  1
  H+  H68  1  0.13839671  0.18783737  0.66427260  1
  H+  H69  1  0.72433473  0.62772196  0.17226232  1
  H+  H70  1  0.02715518  0.14011721  0.81972288  1
  H+  H71  1  0.84226197  0.68527313  0.31241174  1
  H+  H72  1  0.61768677  0.38425869  0.82555389  1
  H+  H73  1  0.72158203  0.61770243  0.50040214  1
  H+  H74  1  0.73610505  0.87897611  0.17659544  1
  H+  H75  1  0.40062865  0.25226318  0.85093942  1
  H+  H76  1  0.46841913  0.13715168  0.99103642  1
  H+  H77  1  0.76845963  0.37807254  0.82651982  1
  H+  H78  1  0.39195139  0.52864139  0.51696473  1
  H+  H79  1  0.72438032  0.61240833  0.65867816  1
  H+  H80  1  0.39440374  0.49911578  1.01192176  1
  H+  H81  1  0.35106276  0.75477739  0.83185415  1
  H+  H82  1  0.38300650  0.53386056  0.84389744  1
  H+  H83  1  0.12354797  0.38435991  1.01042585  1
  H+  H84  1  0.64452481  0.37619072  0.98760912  1
  H+  H85  1  0.53133867  0.25085046  0.06289764  1
  H+  H86  1  0.94656841  0.60306256  1.04575679  1
  H+  H87  1  0.14926328  0.16397517  0.53767218  1
  H+  H88  1  0.33899251  0.13517757  0.50315074  1
  H+  H89  1  0.86256721  0.21980609  0.49788667  1
  H+  H90  1  0.59766543  0.61194425  0.69184141  1
  H+  H91  1  0.48078907  0.11243474  0.65401778  1
  H+  H92  1  0.38335136  0.27369774  0.17271547  1
  H+  H93  1  0.85700732  0.72268630  0.83100839  1
  H+  H94  1  0.36879881  0.13064385  0.67850142  1
  H+  H95  1  0.27655978  0.89238164  0.16857407  1
  H+  H96  1  0.09686692  0.73786582  0.81764795  1
  H+  H97  1  0.01826593  0.63366169  0.17922913  1
  H+  H98  1  0.13861256  0.11092342  0.83999387  1
  H+  H99  1  0.08965647  0.70772017  -0.05609999  1
  H+  H100  1  0.97565854  0.11485115  1.00053461  1
  H+  H101  1  0.87150655  0.77142500  0.50567965  1
  H+  H102  1  0.63702376  0.78171023  0.32458418  1
  H+  H103  1  0.35482476  0.14204889  0.34926776  1
  H+  H104  1  0.64977616  0.77784306  0.87051118  1
  H+  H105  1  0.24284466  0.37366007  1.00230209  1
  H+  H106  1  0.27866221  0.12457890  0.68669448  1
  H+  H107  1  0.88884142  0.02063670  0.66560087  1
  H+  H108  1  0.28991010  0.40280334  0.83973659  1
  H+  H109  1  0.35423489  0.21762646  0.01138800  1
  H+  H110  1  1.03791331  0.38840263  0.36206812  1
  H+  H111  1  0.13642789  0.36881559  0.17862662  1
  H+  H112  1  0.65142276  0.28465448  0.50225974  1
  H+  H113  1  0.36089981  0.38939675  0.34252369  1
  H+  H114  1  0.72639451  0.87436364  0.65768444  1
  H+  H115  1  0.61418514  0.22525604  0.66864389  1
  H+  H116  1  0.42097650  0.31479610  0.93680304  1
  H+  H117  1  0.46844899  0.36022054  0.66908385  1
  H+  H118  1  0.88592421  0.12241324  0.85205899  1
  H+  H119  1  0.88812760  0.36662219  0.00618408  1
  H+  H120  1  0.65262002  0.61210235  0.84883650  1
  H+  H121  1  0.88330618  0.52308393  0.17653116  1
  H+  H122  1  0.44674751  0.90998371  0.87235937  1
  H+  H123  1  0.34472968  0.36686205  0.68893022  1
  H+  H124  1  0.61264799  0.22134336  0.16670032  1
  H+  H125  1  0.57673485  0.39102009  0.08949648  1
  H+  H126  1  0.91867067  0.25974719  0.35053153  1
  H+  H127  1  0.37191725  0.78382577  0.50689964  1
  H+  H128  1  0.51858539  0.88695064  0.67507765  1
  H+  H129  1  0.17796189  0.57712359  0.94253652  1
  H+  H130  1  0.36982187  0.62809825  1.00932987  1
  H+  H131  1  0.62741688  0.48773053  -0.00215767  1
  H+  H132  1  0.90380487  0.81150118  0.32543285  1
  H+  H133  1  0.37758229  0.76987630  0.32520842  1
  H+  H134  1  0.38412892  0.86248830  0.32210363  1
  H+  H135  1  0.88796515  0.50954072  0.32988813  1
  H+  H136  1  0.61017813  0.13152719  0.15633290  1
  H+  H137  1  0.38979923  0.77148222  0.16907679  1
  H+  H138  1  0.21441790  0.10443028  -0.00313677  1
  H+  H139  1  0.35836148  -0.02459718  0.66568478  1
  H+  H140  1  0.50852551  0.61545260  0.13602738  1
  H+  H141  1  0.85886121  -0.11498005  0.68001174  1
  H+  H142  1  0.88666413  0.86934559  0.16633770  1
  H+  H143  1  0.22141893  0.86016202  0.65430776  1
  H+  H144  1  0.22445011  0.11446698  0.17815053  1
  H+  H145  1  0.38593044  0.26933741  0.67613895  1
  H+  H146  1  0.26727912  0.38654629  0.67918871  1
  H+  H147  1  0.41871740  0.83689406  0.59987096  1
  H+  H148  1  0.27195664  0.88498943  0.34088116  1
  H+  H149  1  0.20489393  0.85005592  0.98350720  1
  H+  H150  1  0.86240455  0.64143506  0.16095127  1
  H+  H151  1  0.84332945  0.21449974  1.01138920  1
  H+  H152  1  0.91033241  0.12516761  0.31540886  1
  H+  H153  1  0.62117722  0.52296483  0.32480697  1
  H+  H154  1  0.10647280  0.95972443  0.66998398  1
  H+  H155  1  -0.03368419  0.85646556  0.66025406  1
  H+  H156  1  0.61744151  0.72398172  0.98579230  1
  H+  H157  1  0.85779028  0.38536811  0.15626620  1
  H+  H158  1  0.12906654  0.85517931  0.65736175  1
  H+  H159  1  0.60674214  0.67272491  0.77628613  1
  H+  H160  1  0.84174483  0.12746554  1.01719699  1
  H+  H161  1  0.74070624  0.37204501  0.49923214  1
  H+  H162  1  0.27156401  0.64431634  0.34120833  1
  H+  H163  1  0.78142300  0.13513586  0.87849019  1
  H+  H164  1  0.38094800  0.01598689  0.49630608  1
  H+  H165  1  0.53914200  0.88835042  0.83723184  1
  H+  H166  1  0.10338242  -0.02549586  0.82564430  1
  H+  H167  1  0.08747941  0.84088647  0.48150348  1
  H+  H168  1  0.77740387  0.14200248  0.18461467  1
  H+  H169  1  0.85021033  0.71414155  0.00570836  1
  H+  H170  1  0.75771814  0.61995804  1.00214452  1
  H+  H171  1  0.82959669  0.66602641  0.10009441  1
  H+  H172  1  0.63256763  0.26201199  0.83989701  1
  H+  H173  1  0.73836321  0.07618069  0.34002183  1
  H+  H174  1  0.91193618  0.38850031  0.33663757  1
  H+  H175  1  0.13678801  0.77237169  0.32915364  1
  H+  H176  1  0.13883594  0.61791678  0.66232409  1
  H+  H177  1  0.59178648  0.38476000  0.33236159  1
  H+  H178  1  0.47397771  0.11201055  0.18122727  1
  H+  H179  1  -0.08108215  0.33749118  -0.05152192  1
  H+  H180  1  0.33368745  0.89724861  -0.05368658  1
  H+  H181  1  0.40170900  0.37579097  0.49821069  1
  H+  H182  1  0.70183534  0.73420790  0.79918158  1
  H+  H183  1  0.12024074  0.86382272  0.83081617  1
  H+  H184  1  0.52804105  0.63912760  0.33050451  1
  H+  H185  1  0.52646467  0.88631942  0.15174944  1
  H+  H186  1  0.85816774  -0.02217007  0.83291602  1
  H+  H187  1  0.58261702  0.91625534  0.73313163  1
  H+  H188  1  0.87639697  0.85414607  -0.00814665  1
  H+  H189  1  0.13585902  0.77907343  0.18311384  1
  H+  H190  1  0.64474417  0.60328996  0.98669685  1
  H+  H191  1  0.27319207  0.63200677  0.16191181  1
  H+  H192  1  0.63665662  0.87235886  0.65694523  1
  H+  H193  1  0.02210307  0.63494105  0.33757894  1
  H+  H194  1  0.36835793  0.59744309  0.16347420  1
  H+  H195  1  0.90724834  0.31819450  0.10264146  1
  H+  H196  1  0.76901278  0.62889868  0.83425526  1
  H+  H197  1  0.61323114  0.72937680  0.49130353  1
  H+  H198  1  0.12314424  0.23659071  0.15969960  1
  H+  H199  1  0.77206426  0.90063810  0.33339253  1
  H+  H200  1  0.38933862  0.84255970  0.00759765  1
  H+  H201  1  0.58778436  0.12818960  0.33540729  1
  H+  H202  1  0.36263714  0.89107725  0.49442415  1
  H+  H203  1  0.40325493  0.64218036  0.66880541  1
  H+  H204  1  0.86088239  0.63601527  0.67740458  1
  H+  H205  1  0.03884590  0.90285552  0.32890972  1
  H+  H206  1  0.43808252  0.83650795  0.91742863  1
  H+  H207  1  0.23885740  0.16801323  0.53798084  1
  H+  H208  1  0.26584690  0.14210502  0.34672080  1
  H+  H209  1  0.01236789  0.88512485  0.82687142  1
  H+  H210  1  0.15388651  0.39115196  0.51124733  1
  H+  H211  1  0.13746144  0.28350639  0.33317677  1
  H+  H212  1  0.30232875  0.82457445  0.80106336  1
  H+  H213  1  0.65683210  0.07489060  0.90852891  1
  H+  H214  1  0.61197439  0.13512256  0.66475299  1
  H+  H215  1  0.39766899  0.52202852  0.32173001  1
  H+  H216  1  0.22102318  0.85291997  0.50271727  1
  H+  H217  1  0.39877790  0.28609650  0.50037149  1
  H+  H218  1  0.87958757  0.36321081  0.65532480  1
  H+  H219  1  0.60845900  0.96826436  0.48593414  1
  H+  H220  1  0.82780939  0.66426274  0.73584735  1
  H+  H221  1  0.97836484  0.11095927  0.65936027  1
  H+  H222  1  0.10748776  0.48222437  0.83352674  1
  H+  H223  1  0.63115705  0.61819916  0.32793595  1
  H+  H224  1  1.02662243  0.14533808  0.34397544  1
  H+  H225  1  0.34608640  0.12555206  0.01157598  1
  H+  H226  1  0.96597991  0.85545394  0.99656752  1
  H+  H227  1  0.84942599  0.87728016  0.50372558  1
  H+  H228  1  0.62518399  0.34394165  0.16583735  1
  H+  H229  1  0.61934699  0.12891648  0.82729797  1
  H+  H230  1  0.52180864  0.01219284  0.27735631  1
  H+  H231  1  0.13292224  0.29202071  0.51168450  1
  H+  H232  1  0.41431788  0.12959959  0.93130208  1
  H+  H233  1  0.09800977  1.00307415  0.51549654  1
  H+  H234  1  0.52961574  0.39335816  0.48543491  1
  H+  H235  1  0.14884533  0.83549384  0.92467137  1
  H+  H236  1  0.73565266  0.11656241  0.34093982  1
  H+  H237  1  0.71793120  0.10320696  0.64214098  1
  H+  H238  1  0.86341090  0.13260621  0.65073728  1
  H+  H239  1  0.88369846  0.36133817  0.84983316  1
  H+  H240  1  0.07826996  0.18203815  0.44541407  1
  H+  H241  1  0.64244289  0.10979734  0.49678278  1
  H+  H242  1  0.77070596  0.38612552  0.67165395  1
  H+  H243  1  0.64897559  0.02611136  0.84528100  1
  H+  H244  1  0.61938079  0.87276602  -0.00914232  1
  H+  H245  1  0.63317331  0.28484472  0.99625127  1
  H+  H246  1  0.46613441  0.11807084  0.33433413  1
  H+  H247  1  0.08984858  0.17585815  0.06338697  1
  H+  H248  1  0.28123368  0.39242785  0.49785568  1
  H+  H249  1  0.88561400  0.77869402  0.16923372  1
  H+  H250  1  0.13867894  0.00098725  0.51527456  1
  H+  H251  1  0.87109455  -0.01557647  0.15022586  1
  H+  H252  1  0.72275285  0.36153258  0.17676215  1
  H+  H253  1  0.14810991  0.51585182  0.00096836  1
  H+  H254  1  0.20615689  0.63635788  0.84535509  1
  H+  H255  1  0.89926028  0.09571813  0.78598743  1
  H+  H256  1  0.91180653  0.82820521  0.90256738  1
  H+  H257  1  0.27657661  0.39616195  0.34392355  1
  H+  H258  1  0.85248986  0.63728902  0.48606692  1
  H+  H259  1  0.58280100  -0.00556593  0.31796261  1
  H+  H260  1  0.88522320  0.52119859  0.66549052  1
  H+  H261  1  0.77428278  0.12995690  0.49020710  1
  H+  H262  1  0.58339240  0.66500227  0.04761188  1
  H+  H263  1  0.42082055  0.10633525  0.46421348  1
  H+  H264  1  0.12274753  0.29057415  0.66014166  1
  H+  H265  1  0.88102772  0.86087041  0.84536584  1
  H+  H266  1  0.88253498  0.27529392  0.64715593  1
  H+  H267  1  0.60510041  0.22609154  0.33817149  1
  H+  H268  1  0.10943892  0.71317727  0.49097372  1
  H+  H269  1  0.62575526  1.00538294  -0.00819159  1
  H+  H270  1  0.35059427  0.92541747  0.82066899  1
  H+  H271  1  0.11252505  0.89129946  0.16461510  1
  H+  H272  1  0.38490124  1.02199956  0.18199413  1
  H+  H273  1  0.85409953  -0.02702402  0.50118327  1
  H+  H274  1  1.00569502  0.64044303  0.81364505  1
  H+  H275  1  0.52755588  0.86429107  0.00593675  1
  H+  H276  1  0.01977988  0.14197702  0.50328478  1
  H+  H277  1  0.46312327  0.36389234  0.32692628  1
  H+  H278  1  0.38803810  0.35023645  0.99234454  1
  H+  H279  1  0.34381027  0.42826134  0.78083302  1
  H+  H280  1  0.97787492  0.35243001  0.50339114  1
  H+  H281  1  0.62797412  0.01726729  0.65462569  1
  H+  H282  1  0.53901578  0.14160688  0.49716167  1
  H+  H283  1  0.13311548  0.08205818  0.68515995  1
  H+  H284  1  0.46088560  0.62936616  0.84176259  1
  H+  H285  1  0.88779364  0.02700477  0.31629631  1
  H+  H286  1  0.60480372  0.88302340  0.33613248  1
  H+  H287  1  0.48376192  0.34778540  0.84719355  1
  H+  H288  1  0.08037406  0.66342553  0.39714995  1
  H+  H289  1  0.16105795  0.35175471  0.60211572  1
  H+  H290  1  0.13390243  0.02814287  0.17658869  1
  H+  H291  1  0.07655942  0.91281177  0.06875676  1
  H+  H292  1  0.17166091  0.57957892  0.27470270  1
  H+  H293  1  0.92575677  0.08441907  0.22356900  1
  H+  H294  1  0.63520034  0.52693962  0.50118672  1
  H+  H295  1  0.77010736  0.38633528  0.00796382  1
  H+  H296  1  0.83448024  0.19957292  0.77497936  1
  H+  H297  1  0.82781087  0.91455045  0.73933667  1
  H+  H298  1  0.65088418  0.33031749  0.26053913  1
  H+  H299  1  0.17266423  0.09819342  0.61835820  1
  H+  H300  1  0.07232229  0.67663254  0.74916172  1
  H+  H301  1  0.14023749  0.86425767  0.32906277  1
  H+  H302  1  0.35031834  0.46899715  0.10990107  1
  H+  H303  1  0.66518300  0.32545174  0.89775261  1
  H+  H304  1  0.36416662  0.89046296  0.16465201  1
  H+  H305  1  0.34295952  0.14942641  0.78234674  1
  H+  H306  1  0.63688283  0.02207008  0.16074981  1
  H+  H307  1  0.61135609  0.64014360  0.49018936  1
  H+  H308  1  0.03132139  0.38133741  0.01305629  1
  H+  H309  1  0.07155084  0.42560776  0.77282283  1
  H+  H310  1  0.66555919  0.84222966  0.56830783  1
  H+  H311  1  0.66410956  0.58434902  0.59956723  1
  H+  H312  1  0.92168476  0.33718293  0.56346493  1
  H+  H313  1  0.57341225  0.90428160  0.42914486  1
  H+  H314  1  0.11811153  0.60988319  0.87895570  1
  H+  H315  1  0.09274962  0.41795825  0.10398317  1
  H+  H316  1  0.90151009  0.82662373  0.56812453  1
  H+  H317  1  0.11991133  0.44920621  0.44072468  1
  H+  H318  1  0.90508081  0.57693805  0.60536910  1
  H+  H319  1  0.35819438  0.97694501  0.34212960  1
  H+  H320  1  0.94975003  0.36227132  0.27715555  1
  H+  H321  1  0.76821558  0.88035309  -0.01036383  1
  H+  H322  1  0.09909325  0.65115873  0.04627987  1
  H+  H323  1  0.32014132  0.90885036  0.72247020  1
  H+  H324  1  0.62660818  0.88938108  0.83856399  1
  H+  H325  1  0.92329126  0.85094367  0.25766453  1
  H+  H326  1  0.87654770  0.76950855  0.66329736  1
  H+  H327  1  0.07198608  0.90469957  0.73054667  1
  H+  H328  1  0.43443078  0.03097626  0.89955854  1
  H+  H329  1  0.41988949  0.08722187  0.59573603  1
  H+  H330  1  0.17077915  0.34039743  0.27185951  1
  H+  H331  1  0.00523750  0.85332344  0.48366955  1
  H+  H332  1  0.83069899  0.91678263  0.09473293  1
  H+  H333  1  0.09250017  0.17369959  0.73094618  1
  H+  H334  1  0.41663751  0.33878692  0.22690166  1
  H+  H335  1  0.85150164  0.42454233  0.42511960  1
  H+  H336  1  0.16103566  0.82169184  0.56175702  1
  H+  H337  1  0.82288710  0.41854778  0.10437018  1
  H+  H338  1  0.48555374  0.61810978  0.98496287  1
  H+  H339  1  0.87568237  0.61417992  1.01027783  1
  H+  H340  1  0.55692211  0.18269980  0.07804143  1
  H+  H341  1  0.15851194  0.07480854  0.90064116  1
  H+  H342  1  0.33702496  0.42404609  0.43669165  1
  H+  H343  1  0.88132007  0.26664296  0.16544149  1
  H+  H344  1  0.87948717  0.18875848  0.40431192  1
  H+  H345  1  0.90978946  0.57780602  0.23800317  1
  H+  H346  1  0.66072081  0.59616868  0.22818074  1
  H+  H347  1  0.32603673  0.15832061  0.10772606  1
  H+  H348  1  0.90964588  0.09402906  0.94703708  1
  H+  H349  1  0.32952435  0.91403289  0.43269722  1
  H+  H350  1  0.43622863  0.61672967  0.60927222  1
  H+  H351  1  0.42353960  0.56623757  0.25664937  1
  H+  H352  1  0.31043027  0.70829568  0.76781522  1
  H+  H353  1  0.16993169  0.09115322  0.27432822  1
  H+  H354  1  0.10379070  0.39718650  0.67781403  1
  H+  H355  1  0.58191812  0.67197506  0.39349681  1
  H+  H356  1  0.58880279  0.90974350  0.09339351  1
  H+  H357  1  0.66896794  0.84659977  0.26701320  1
  H+  H358  1  0.37516088  0.27466038  0.32947740  1
  H+  H359  1  0.47589718  0.61760158  0.51041611  1
  H+  H360  1  0.16894715  0.84157227  0.23908005  1
  H+  H361  1  0.93016717  0.59374677  0.88362328  1
  H+  H362  1  0.15679417  0.28487033  0.99627287  1
  H+  H363  1  0.10949828  0.73048198  0.66814919  1
  H+  H364  1  0.13513363  0.36895514  0.81594888  1
  H+  H365  1  0.79962049  0.15274486  0.77605592  1
  H+  H366  1  0.80157114  0.52931325  0.54408873  1
  H+  H367  1  0.66049391  0.07116772  0.55608611  1
  H+  H368  1  0.33214520  0.65732362  0.10098167  1
  H+  H369  1  0.40863579  0.08635315  0.27414326  1
  H+  H370  1  0.57657143  0.42028408  0.39504021  1
  H+  H371  1  0.32411030  0.68843622  0.40060961  1
  H+  H372  1  0.67706951  0.57479265  0.90982971  1
  H+  H373  1  0.41351385  0.58403425  0.93158223  1
  H+  H374  1  0.91067665  0.07281299  0.56730376  1
  H+  H375  1  0.82941464  0.41064866  0.73213693  1
  H+  H376  1  0.07757199  0.90016483  0.39303916  1
  H+  H377  1  0.58914007  0.17129009  0.43420267  1
  H+  H378  1  0.64114050  0.06793557  0.22288454  1
  H+  H379  1  0.86166598  0.50694012  0.50654425  1
  H+  H380  1  0.67252581  0.33889143  0.59783217  1
  H+  H381  1  0.12485969  0.01586411  0.99604668  1
  H+  H382  1  0.14194935  0.69171896  0.05062854  1
  H+  H383  1  0.82855482  0.66913798  0.42518286  1
  O2-  O384  1  0.09287473  0.17780213  0.14196685  1
  O2-  O385  1  0.08021230  0.18161753  0.49101382  1
  O2-  O386  1  0.08787643  0.16619450  0.80612157  1
  O2-  O387  1  0.08606252  0.41805704  0.14951714  1
  O2-  O388  1  0.14071831  0.47691155  0.48351092  1
  O2-  O389  1  0.07649929  0.42205515  0.81807963  1
  O2-  O390  1  0.08190790  0.66575750  0.16944825  1
  O2-  O391  1  0.07481019  0.65419607  0.47357734  1
  O2-  O392  1  0.06754428  0.67733598  0.79832823  1
  O2-  O393  1  0.08359417  0.92156508  0.14678240  1
  O2-  O394  1  0.04495039  0.84708324  0.45636602  1
  O2-  O395  1  0.07162514  0.91442242  0.80870176  1
  O2-  O396  1  0.32740879  0.16141176  0.15289490  1
  O2-  O397  1  0.31851872  0.17292965  0.48790689  1
  O2-  O398  1  0.34132595  0.14663447  0.82756746  1
  O2-  O399  1  0.33142540  0.47442443  0.15177728  1
  O2-  O400  1  0.34070336  0.42190499  0.48216813  1
  O2-  O401  1  0.34909963  0.43870435  0.82553084  1
  O2-  O402  1  0.33390208  0.65923966  0.14689237  1
  O2-  O403  1  0.29391155  0.69653224  0.47811093  1
  O2-  O404  1  0.29755602  0.72862214  0.80788431  1
  O2-  O405  1  0.33726510  0.92562092  0.15506530  1
  O2-  O406  1  0.32911552  0.91819892  0.47839846  1
  O2-  O407  1  0.30091345  0.88002168  0.79779859  1
  O2-  O408  1  0.57754562  0.16262693  0.14892319  1
  O2-  O409  1  0.59726283  0.17305476  0.47956439  1
  O2-  O410  1  0.57913129  0.14897140  0.81279066  1
  O2-  O411  1  0.55760127  0.35007182  0.12431243  1
  O2-  O412  1  0.59243110  0.42718496  0.47014188  1
  O2-  O413  1  0.58743436  0.41453949  0.81126088  1
  O2-  O414  1  0.56716189  0.65052992  0.12045803  1
  O2-  O415  1  0.58317161  0.67128350  0.47317766  1
  O2-  O416  1  0.64365256  0.70223813  0.81515838  1
  O2-  O417  1  0.58745694  0.91933842  0.13802963  1
  O2-  O418  1  0.57685888  0.90606799  0.47494138  1
  O2-  O419  1  0.59715111  0.91600176  0.81746343  1
  O2-  O420  1  0.83956691  0.17868158  0.19331672  1
  O2-  O421  1  0.83738260  0.16067083  0.48121094  1
  O2-  O422  1  0.84420707  0.16295529  0.88807246  1
  O2-  O423  1  0.82686311  0.41808208  0.15000779  1
  O2-  O424  1  0.84485435  0.42373892  0.47335060  1
  O2-  O425  1  0.82929012  0.40872300  0.81111220  1
  O2-  O426  1  0.83585838  0.67456087  0.14538299  1
  O2-  O427  1  0.82829921  0.67239383  0.47034923  1
  O2-  O428  1  0.82901993  0.66288668  0.81460910  1
  O2-  O429  1  0.83895214  0.92173490  0.13954770  1
  O2-  O430  1  0.81846576  0.90950400  0.49017470  1
  O2-  O431  1  0.82622873  0.91508972  0.82447085  1
  O2-  O432  1  0.16329615  0.08833584  0.19197433  1
  O2-  O433  1  0.19260886  0.16316895  0.56529729  1
  O2-  O434  1  0.16186493  0.07458105  0.85514031  1
  O2-  O435  1  0.17078014  0.34213934  0.19316938  1
  O2-  O436  1  0.17077330  0.35062025  0.52846114  1
  O2-  O437  1  0.16630467  0.33610602  0.81168881  1
  O2-  O438  1  0.17291296  0.58187355  0.19279423  1
  O2-  O439  1  0.27475118  0.62991783  0.51669039  1
  O2-  O440  1  0.15616227  0.58790303  0.86598166  1
  O2-  O441  1  0.16603507  0.84114360  0.19330426  1
  O2-  O442  1  0.16040312  0.81767922  0.51659507  1
  O2-  O443  1  0.14633125  0.82830487  0.84517365  1
  O2-  O444  1  0.41423895  0.08362549  0.19761101  1
  O2-  O445  1  0.41529381  0.08116040  0.50443653  1
  O2-  O446  1  0.44132579  0.00592869  0.86167683  1
  O2-  O447  1  0.42097109  0.33548315  0.18217619  1
  O2-  O448  1  0.43716618  0.34827083  0.50618815  1
  O2-  O449  1  0.42982892  0.31061891  0.86960037  1
  O2-  O450  1  0.39675361  0.56049543  0.17181962  1
  O2-  O451  1  0.42093112  0.58814712  0.53266036  1
  O2-  O452  1  0.40533724  0.59418586  0.86093615  1
  O2-  O453  1  0.42062798  0.83250027  0.18250241  1
  O2-  O454  1  0.41394112  0.84354496  0.52286578  1
  O2-  O455  1  0.44477217  0.85388194  0.87349994  1
  O2-  O456  1  0.66162251  0.08040067  0.18027318  1
  O2-  O457  1  0.66762467  0.07428344  0.51076052  1
  O2-  O458  1  0.67173054  0.08451898  0.86281719  1
  O2-  O459  1  0.66204564  0.32701372  0.19131003  1
  O2-  O460  1  0.68099646  0.34532868  0.51620239  1
  O2-  O461  1  0.66527147  0.32341253  0.85217830  1
  O2-  O462  1  0.66295361  0.59900248  0.18335386  1
  O2-  O463  1  0.66328837  0.58660287  0.51867527  1
  O2-  O464  1  0.67694861  0.57566568  0.86114826  1
  O2-  O465  1  0.67884564  0.85356942  0.19595098  1
  O2-  O466  1  0.66804326  0.83946902  0.52134627  1
  O2-  O467  1  0.67348836  0.83764578  0.88628601  1
  O2-  O468  1  0.92233466  0.08695066  0.17773669  1
  O2-  O469  1  0.90929359  0.07126278  0.52194788  1
  O2-  O470  1  0.91328787  0.09173016  0.82818540  1
  O2-  O471  1  0.91138063  0.32816752  0.14650065  1
  O2-  O472  1  0.91917318  0.32990082  0.51776468  1
  O2-  O473  1  0.91690567  0.33755874  0.87002587  1
  O2-  O474  1  0.91377709  0.58340823  0.19221348  1
  O2-  O475  1  0.86113817  0.55594007  0.53057133  1
  O2-  O476  1  0.91268529  0.58398434  0.84081245  1
  O2-  O477  1  0.91638247  0.83946344  0.18442287  1
  O2-  O478  1  0.89962768  0.83082069  0.52279520  1
  O2-  O479  1  0.91180420  0.82959001  0.85656367  1
  O2-  O480  1  0.17303489  0.09222757  0.31939477  1
  O2-  O481  1  0.16680993  0.06661533  0.65868991  1
  O2-  O482  1  0.15542184  0.07566325  0.97915406  1
  O2-  O483  1  0.17518628  0.34274226  0.31713154  1
  O2-  O484  1  0.15542080  0.35128638  0.64795661  1
  O2-  O485  1  0.18591240  0.34627290  0.98390231  1
  O2-  O486  1  0.17081837  0.58194644  0.31961592  1
  O2-  O487  1  0.17082188  0.58870898  0.65149617  1
  O2-  O488  1  0.18335251  0.57651540  0.98741000  1
  O2-  O489  1  0.17079345  0.83353848  0.31464636  1
  O2-  O490  1  0.15968609  0.82565183  0.64120754  1
  O2-  O491  1  0.14489753  0.82556547  0.96948405  1
  O2-  O492  1  0.40567475  0.08508075  0.31997535  1
  O2-  O493  1  0.41924370  0.08156007  0.64011218  1
  O2-  O494  1  0.41905306  0.09589160  0.96451364  1
  O2-  O495  1  0.40314256  0.33313073  0.31091401  1
  O2-  O496  1  0.40598743  0.32837912  0.66179591  1
  O2-  O497  1  0.41589063  0.31638843  0.98390685  1
  O2-  O498  1  0.43524576  0.57716126  0.30029852  1
  O2-  O499  1  0.45282270  0.64113855  0.65105042  1
  O2-  O500  1  0.42114128  0.58321969  0.97759026  1
  O2-  O501  1  0.41237377  0.83099748  0.30625970  1
  O2-  O502  1  0.41851648  0.83749590  0.64550288  1
  O2-  O503  1  0.41954115  0.81376048  0.99203381  1
  O2-  O504  1  0.57964443  0.04152873  0.29427698  1
  O2-  O505  1  0.65546965  0.07466699  0.63344338  1
  O2-  O506  1  0.64674134  0.06566986  0.97883250  1
  O2-  O507  1  0.64471255  0.33010969  0.30720610  1
  O2-  O508  1  0.66974193  0.33393812  0.64303222  1
  O2-  O509  1  0.67148938  0.33986970  0.97532560  1
  O2-  O510  1  0.65866943  0.58426396  0.31236113  1
  O2-  O511  1  0.66388387  0.57937812  0.64469726  1
  O2-  O512  1  0.67662751  0.57381857  0.97553291  1
  O2-  O513  1  0.66427083  0.84370660  0.31337901  1
  O2-  O514  1  0.66980038  0.84795995  0.63760816  1
  O2-  O515  1  0.67144245  0.82873649  0.95420171  1
  O2-  O516  1  0.92861176  0.08597075  0.29812748  1
  O2-  O517  1  0.91759892  0.07891629  0.64566750  1
  O2-  O518  1  0.91320780  0.08072692  0.98949834  1
  O2-  O519  1  0.94652911  0.35901227  0.32127450  1
  O2-  O520  1  0.91375974  0.33783740  0.63798242  1
  O2-  O521  1  0.91859534  0.33536372  0.99393825  1
  O2-  O522  1  0.91222723  0.57102888  0.31294963  1
  O2-  O523  1  0.91459622  0.58206212  0.65012982  1
  O2-  O524  1  0.91462436  0.58602559  1.00771256  1
  O2-  O525  1  0.93279515  0.86495310  0.30278650  1
  O2-  O526  1  0.90486933  0.82983842  0.64730449  1
  O2-  O527  1  0.90738301  0.82350522  0.97820090  1
  O2-  O528  1  0.08527039  0.17354392  0.01793641  1
  O2-  O529  1  0.05912922  0.19535832  0.37153791  1
  O2-  O530  1  0.08552262  0.17563594  0.68520274  1
  O2-  O531  1  0.09144966  0.41185642  0.02823135  1
  O2-  O532  1  0.08359147  0.38955056  0.38812481  1
  O2-  O533  1  0.07100657  0.42365939  0.69587027  1
  O2-  O534  1  0.05391757  0.64936576  -0.07287322  1
  O2-  O535  1  0.08270715  0.66837699  0.35155447  1
  O2-  O536  1  0.07740756  0.67110008  0.68738036  1
  O2-  O537  1  0.07141628  0.91148179  0.02324041  1
  O2-  O538  1  0.09428952  0.92142609  0.34983909  1
  O2-  O539  1  0.07127671  0.89935220  0.68514937  1
  O2-  O540  1  0.31842550  0.15693083  0.02744681  1
  O2-  O541  1  0.32617123  0.17288993  0.36554838  1
  O2-  O542  1  0.33890132  0.15616498  0.70087071  1
  O2-  O543  1  0.37785146  0.44647867  0.03942237  1
  O2-  O544  1  0.33686586  0.42479507  0.35950643  1
  O2-  O545  1  0.30859774  0.38810122  0.70902682  1
  O2-  O546  1  0.33804478  0.65635754  0.02639609  1
  O2-  O547  1  0.33149341  0.68392745  0.35654662  1
  O2-  O548  1  0.32637758  0.67969204  0.70160470  1
  O2-  O549  1  0.32426280  0.90475160  -0.01102857  1
  O2-  O550  1  0.33292294  0.91629173  0.35616168  1
  O2-  O551  1  0.32429301  0.91350169  0.67714382  1
  O2-  O552  1  0.54115016  0.20751737  0.04254912  1
  O2-  O553  1  0.57492298  0.16864196  0.35813943  1
  O2-  O554  1  0.58239903  0.16428649  0.68288394  1
  O2-  O555  1  0.59549001  0.42281186  0.01389587  1
  O2-  O556  1  0.56761103  0.41907796  0.34971561  1
  O2-  O557  1  0.58888111  0.41396216  0.68619003  1
  O2-  O558  1  0.58517386  0.66398671  0.00157489  1
  O2-  O559  1  0.58790928  0.67419916  0.34830731  1
  O2-  O560  1  0.56243424  0.62357194  0.72038517  1
  O2-  O561  1  0.59008119  0.89878822  0.01487783  1
  O2-  O562  1  0.56935395  0.90813057  0.35281270  1
  O2-  O563  1  0.58051479  0.91969253  0.68821918  1
  O2-  O564  1  0.80905768  0.15606513  0.02803008  1
  O2-  O565  1  0.91369354  0.20552091  0.36641861  1
  O2-  O566  1  0.82963145  0.16284951  0.65713324  1
  O2-  O567  1  0.82830171  0.41498370  0.02786985  1
  O2-  O568  1  0.85736068  0.42161574  0.35960099  1
  O2-  O569  1  0.83186930  0.41552022  0.68663147  1
  O2-  O570  1  0.82186846  0.65481797  0.02234955  1
  O2-  O571  1  0.81416986  0.64677732  0.34647888  1
  O2-  O572  1  0.83028503  0.66667542  0.69033979  1
  O2-  O573  1  0.82455664  0.90722131  0.01248305  1
  O2-  O574  1  0.83371379  0.93542262  0.34529305  1
  O2-  O575  1  0.83354929  0.92047891  0.69447785  1
