# generated using pymatgen
data_H2O
_symmetry_space_group_name_H-M   'P 1'
_cell_length_a   17.98862274
_cell_length_b   17.98793264
_cell_length_c   21.99650774
_cell_angle_alpha   89.98297831
_cell_angle_beta   89.99672971
_cell_angle_gamma   119.99368144
_symmetry_Int_Tables_number   1
_chemical_formula_structural   H2O
_chemical_formula_sum   'H384 O192'
_cell_volume   6164.40481020
_cell_formula_units_Z   192
loop_
 _symmetry_equiv_pos_site_id
 _symmetry_equiv_pos_as_xyz
  1  'x, y, z'
loop_
 _atom_type_symbol
 _atom_type_oxidation_number
  H+  1.0
  O2-  -2.0
loop_
 _atom_site_type_symbol
 _atom_site_label
 _atom_site_symmetry_multiplicity
 _atom_site_fract_x
 _atom_site_fract_y
 _atom_site_fract_z
 _atom_site_occupancy
  H+  H0  1  0.87758528  0.61091805  0.67517572  1
  H+  H1  1  0.62838388  0.16352977  0.33664481  1
  H+  H2  1  0.15944152  0.82292571  0.23608833  1
  H+  H3  1  0.12511383  0.59672329  0.84027349  1
  H+  H4  1  0.63225681  0.36324341  0.65636741  1
  H+  H5  1  0.36253612  0.22243981  0.16300602  1
  H+  H6  1  0.98209929  0.61534397  0.17681302  1
  H+  H7  1  0.98466265  0.12407374  0.84590823  1
  H+  H8  1  0.85274225  0.72572141  0.68236711  1
  H+  H9  1  0.63326725  0.06731503  0.87652776  1
  H+  H10  1  0.38080251  0.60294452  0.83929986  1
  H+  H11  1  0.87824647  0.76013600  0.83825927  1
  H+  H12  1  0.61889382  0.24664757  0.34384831  1
  H+  H13  1  0.07956001  0.69083270  -0.02617518  1
  H+  H14  1  0.77874991  0.40621163  0.15022645  1
  H+  H15  1  0.91025985  0.54618032  0.49666644  1
  H+  H16  1  0.62908148  0.25818560  0.17299276  1
  H+  H17  1  0.10734949  0.38509641  0.66557798  1
  H+  H18  1  0.43291929  0.09823358  0.55760710  1
  H+  H19  1  0.12369136  0.85924118  0.17387356  1
  H+  H20  1  0.46157596  0.67969304  0.61445338  1
  H+  H21  1  0.22718503  0.61887070  0.98923723  1
  H+  H22  1  0.48697783  0.12828441  0.66063741  1
  H+  H23  1  0.88708754  0.37017336  0.16815997  1
  H+  H24  1  0.38465745  0.86801606  0.16624312  1
  H+  H25  1  0.08004476  0.42416517  0.27411600  1
  H+  H26  1  0.12949941  0.76540988  0.16705727  1
  H+  H27  1  0.70776740  0.84747913  0.39523174  1
  H+  H28  1  0.86873415  0.97250212  0.83318073  1
  H+  H29  1  0.63192407  0.61078269  0.85207181  1
  H+  H30  1  0.48185924  0.36040966  0.16410738  1
  H+  H31  1  0.55810467  0.63858181  0.34664887  1
  H+  H32  1  0.58540815  0.66367690  0.77635363  1
  H+  H33  1  0.39524159  0.87631142  -0.01246479  1
  H+  H34  1  0.63282671  0.76340834  0.99877311  1
  H+  H35  1  0.14283916  0.53188475  0.18075601  1
  H+  H36  1  0.62365909  0.95934244  0.36836818  1
  H+  H37  1  0.58666398  0.91845381  0.10157892  1
  H+  H38  1  0.63189812  0.34587075  0.84573355  1
  H+  H39  1  0.36138904  0.74168613  0.16417900  1
  H+  H40  1  0.32754391  0.57527812  0.30073217  1
  H+  H41  1  0.23338773  0.60725862  0.53267056  1
  H+  H42  1  0.39339935  0.04454214  0.84429074  1
  H+  H43  1  0.01684950  0.64396818  0.35093262  1
  H+  H44  1  0.35998977  0.38296407  0.82085344  1
  H+  H45  1  0.72120602  0.85308200  1.00125905  1
  H+  H46  1  0.47692859  0.67477762  0.21731886  1
  H+  H47  1  0.60933876  0.86787713  0.35778504  1
  H+  H48  1  0.13619687  0.64760007  0.50600413  1
  H+  H49  1  0.89436932  0.38415918  0.66572508  1
  H+  H50  1  0.34829114  0.92664668  0.76836899  1
  H+  H51  1  0.99545317  0.39434253  0.51251291  1
  H+  H52  1  0.63095391  0.49025877  0.82410265  1
  H+  H53  1  0.88266879  0.85988627  0.83591277  1
  H+  H54  1  0.47911469  0.86601448  0.32094859  1
  H+  H55  1  0.13203597  0.10559483  0.16782422  1
  H+  H56  1  0.73230474  0.12675557  0.32331618  1
  H+  H57  1  0.96058963  0.60128205  0.99585538  1
  H+  H58  1  0.87439355  0.41008562  0.49270457  1
  H+  H59  1  0.38790383  0.12890583  0.83825133  1
  H+  H60  1  0.85518450  0.97029881  0.01236766  1
  H+  H61  1  0.26677235  0.13692746  0.49302492  1
  H+  H62  1  0.96373309  0.60406988  0.84346836  1
  H+  H63  1  0.27646004  0.15591728  0.00612763  1
  H+  H64  1  0.21717899  0.60852322  0.63490401  1
  H+  H65  1  0.12016028  0.89465415  1.00469014  1
  H+  H66  1  0.10046203  0.71027762  0.83543097  1
  H+  H67  1  0.56387869  0.93825424  0.50462148  1
  H+  H68  1  0.16305504  0.77663479  0.51544188  1
  H+  H69  1  0.10551707  0.96040328  0.34101541  1
  H+  H70  1  0.02773575  0.39220184  0.18777374  1
  H+  H71  1  0.36701738  0.72052517  0.31878249  1
  H+  H72  1  0.33634764  0.17215281  0.43080896  1
  H+  H73  1  0.12874356  0.54527793  0.31473940  1
  H+  H74  1  0.63945257  0.86112144  0.84289581  1
  H+  H75  1  0.41646985  0.84010167  0.22667402  1
  H+  H76  1  0.86993482  0.51780161  0.84358996  1
  H+  H77  1  0.84695052  0.62435397  0.00972973  1
  H+  H78  1  0.77945534  0.14252843  0.16162274  1
  H+  H79  1  0.12882804  0.10959797  0.98697252  1
  H+  H80  1  0.13139735  1.02548217  0.66352971  1
  H+  H81  1  0.35159586  0.22611108  0.82867970  1
  H+  H82  1  0.92286309  0.58733932  0.23589480  1
  H+  H83  1  0.16625859  0.80034832  0.99879737  1
  H+  H84  1  0.88048893  0.35967095  0.99444847  1
  H+  H85  1  0.88671969  0.02271963  0.67206213  1
  H+  H86  1  0.95420411  0.36526803  0.32078547  1
  H+  H87  1  0.40183404  0.03928376  0.65430244  1
  H+  H88  1  0.11083506  0.96938574  0.16315663  1
  H+  H89  1  0.62976547  0.12087190  0.82094691  1
  H+  H90  1  0.35542172  0.46910818  0.82345442  1
  H+  H91  1  0.21589217  0.59917559  0.84056086  1
  H+  H92  1  0.35768919  0.38998282  -0.00372516  1
  H+  H93  1  0.76714950  0.39979810  0.34009392  1
  H+  H94  1  0.73733866  0.37964630  0.50671010  1
  H+  H95  1  0.47157961  0.60523651  0.84033546  1
  H+  H96  1  0.33651553  0.48979710  0.30124301  1
  H+  H97  1  0.53396346  0.15125039  0.82010407  1
  H+  H98  1  0.62398336  0.63030686  0.49799922  1
  H+  H99  1  0.53269949  0.40274142  0.33962901  1
  H+  H100  1  0.37173718  0.46508195  0.14572815  1
  H+  H101  1  0.85636519  0.74183089  0.15602152  1
  H+  H102  1  0.87570720  0.76890690  0.99991716  1
  H+  H103  1  0.69882571  0.85082889  0.50396447  1
  H+  H104  1  0.14432760  0.01876956  0.50955146  1
  H+  H105  1  0.79850584  0.89218183  0.32975855  1
  H+  H106  1  0.63383926  0.11272208  0.66402574  1
  H+  H107  1  0.27180956  0.13390368  0.16318538  1
  H+  H108  1  0.74263755  0.12369523  1.01598301  1
  H+  H109  1  0.76990653  0.88682078  0.67748234  1
  H+  H110  1  0.14246070  0.33020610  0.31829962  1
  H+  H111  1  0.38269262  0.84363219  0.83022192  1
  H+  H112  1  0.79412129  0.17880667  0.51423960  1
  H+  H113  1  0.36415762  0.98215489  0.16161057  1
  H+  H114  1  1.01132414  0.39200349  0.66823262  1
  H+  H115  1  0.71902424  0.30973492  0.20345258  1
  H+  H116  1  0.75123534  0.37405887  0.83723737  1
  H+  H117  1  0.10900020  0.23370105  0.67133058  1
  H+  H118  1  0.67108241  0.09756277  0.22250227  1
  H+  H119  1  0.84553805  0.17411210  0.10664927  1
  H+  H120  1  0.38200110  0.63083033  0.65525705  1
  H+  H121  1  0.76862382  0.63811270  0.84246997  1
  H+  H122  1  0.04915147  0.65027214  0.49550562  1
  H+  H123  1  0.90270516  0.13417735  0.52019644  1
  H+  H124  1  0.62723522  0.48738949  0.34090928  1
  H+  H125  1  0.52416294  0.89104413  0.15909672  1
  H+  H126  1  0.12848410  0.76500125  0.32305228  1
  H+  H127  1  0.44989078  0.56926193  0.35780159  1
  H+  H128  1  0.66047471  0.91181407  0.18981379  1
  H+  H129  1  0.87221036  0.13774757  0.01365118  1
  H+  H130  1  0.34552087  0.60558086  0.48880126  1
  H+  H131  1  0.24963725  0.88964145  -0.00972996  1
  H+  H132  1  0.88525307  0.62519174  0.33295459  1
  H+  H133  1  0.85524134  0.11595721  0.67808221  1
  H+  H134  1  0.79417588  0.64688017  0.49311503  1
  H+  H135  1  0.28459018  0.92147537  0.48422402  1
  H+  H136  1  0.01980153  0.88027605  0.16065039  1
  H+  H137  1  0.38563724  0.85675645  0.32439884  1
  H+  H138  1  0.64788915  0.52528752  0.50809157  1
  H+  H139  1  0.78882871  0.91385915  0.17259068  1
  H+  H140  1  0.66072571  0.61272610  0.32089601  1
  H+  H141  1  0.06815658  0.65203935  0.77554293  1
  H+  H142  1  0.13780076  0.27067033  0.50547303  1
  H+  H143  1  0.36130384  0.72977137  -0.00610568  1
  H+  H144  1  0.11510517  0.38764957  0.18798712  1
  H+  H145  1  0.85602845  0.21578452  0.81596391  1
  H+  H146  1  0.61524268  0.88583109  0.00831753  1
  H+  H147  1  0.89217835  0.02874446  0.32197886  1
  H+  H148  1  0.48153457  0.87124392  -0.01115439  1
  H+  H149  1  0.85718326  0.63476859  0.83707354  1
  H+  H150  1  0.46844254  0.36144165  0.65740879  1
  H+  H151  1  0.36161117  0.37493181  0.48652515  1
  H+  H152  1  0.87264886  0.22848974  0.01261574  1
  H+  H153  1  0.88259236  0.53518829  0.33328343  1
  H+  H154  1  0.89932538  0.33063629  0.76446757  1
  H+  H155  1  0.87767029  0.52255939  0.67450576  1
  H+  H156  1  0.35828692  0.71353375  0.83235570  1
  H+  H157  1  0.01060478  0.12809099  0.34424652  1
  H+  H158  1  0.02858907  0.39439797  0.03123533  1
  H+  H159  1  0.39212055  0.29091921  0.99265991  1
  H+  H160  1  0.84803502  0.38728424  0.82818049  1
  H+  H161  1  0.35607538  0.22682510  0.67396615  1
  H+  H162  1  0.42435263  0.82694237  0.48273681  1
  H+  H163  1  0.11865560  0.22307711  0.15068261  1
  H+  H164  1  0.22356628  0.84229791  0.32227733  1
  H+  H165  1  0.27016167  0.64724624  0.32559637  1
  H+  H166  1  0.89060828  0.10995341  0.84130292  1
  H+  H167  1  0.48835057  0.12400521  0.99468933  1
  H+  H168  1  0.88611685  0.27982222  0.17256720  1
  H+  H169  1  0.32061612  0.90854168  0.39651474  1
  H+  H170  1  0.36889668  0.65195931  0.16805976  1
  H+  H171  1  0.41674896  0.57074748  0.55619691  1
  H+  H172  1  0.37895955  0.36080799  0.65597526  1
  H+  H173  1  0.11095885  0.46816403  0.82258024  1
  H+  H174  1  0.85195588  0.39311946  0.33753509  1
  H+  H175  1  0.04316710  0.85583709  0.49330826  1
  H+  H176  1  0.85615855  0.47110685  1.00031662  1
  H+  H177  1  0.51986522  0.87730993  0.82454477  1
  H+  H178  1  0.45058956  0.61112153  0.36342196  1
  H+  H179  1  0.62835145  0.16130907  0.01376891  1
  H+  H180  1  -0.02621572  0.11766567  0.67549985  1
  H+  H181  1  0.77629509  0.88498828  0.83545584  1
  H+  H182  1  0.62272308  0.97907666  0.01175555  1
  H+  H183  1  0.59740315  0.42713052  0.09037583  1
  H+  H184  1  0.12249945  0.64544183  0.15227029  1
  H+  H185  1  0.07884943  0.91114655  0.76911427  1
  H+  H186  1  0.91406341  0.07860281  0.94056520  1
  H+  H187  1  0.39790421  0.36670503  0.32098106  1
  H+  H188  1  0.35845363  0.47635832  0.67065509  1
  H+  H189  1  0.60632347  0.13439257  0.15517724  1
  H+  H190  1  0.36644094  1.01291716  0.47308575  1
  H+  H191  1  0.61840940  0.24587785  0.00790527  1
  H+  H192  1  0.35936872  0.64051261  -0.00312349  1
  H+  H193  1  0.88610652  0.89042957  0.32799721  1
  H+  H194  1  0.82374127  0.86124967  0.48390405  1
  H+  H195  1  0.51393185  0.61053536  0.00030572  1
  H+  H196  1  0.76749570  0.38339920  0.67746233  1
  H+  H197  1  0.90688521  0.30627391  0.51136130  1
  H+  H198  1  0.63752228  0.03020383  0.16703378  1
  H+  H199  1  0.62712348  0.24135754  0.83002803  1
  H+  H200  1  0.91858066  0.63804895  0.49745187  1
  H+  H201  1  0.47068895  0.10972935  0.17448818  1
  H+  H202  1  0.88349020  0.77927143  0.50689838  1
  H+  H203  1  0.57144627  0.57211486  0.15461560  1
  H+  H204  1  0.61586370  0.38875003  0.49591217  1
  H+  H205  1  0.15924432  0.57366786  0.93447286  1
  H+  H206  1  0.62220258  0.38378819  0.14401178  1
  H+  H207  1  0.75255972  0.61218542  1.01201812  1
  H+  H208  1  0.47315181  0.35726676  0.83584493  1
  H+  H209  1  0.36365061  0.46411856  0.48484318  1
  H+  H210  1  0.76064713  0.64082753  0.15839546  1
  H+  H211  1  0.61433945  0.72579288  0.68084371  1
  H+  H212  1  0.08608465  0.91737171  0.06478811  1
  H+  H213  1  0.11033726  0.48302348  0.02867592  1
  H+  H214  1  0.60479789  0.47514761  0.66481179  1
  H+  H215  1  0.22645203  0.35773879  0.16694722  1
  H+  H216  1  0.85769329  0.13937535  0.34318583  1
  H+  H217  1  0.21935414  0.36850412  0.65859918  1
  H+  H218  1  0.23936488  0.92127525  0.65314188  1
  H+  H219  1  0.39359833  0.14703692  0.34380957  1
  H+  H220  1  0.48054530  0.59744940  0.49980962  1
  H+  H221  1  0.63117861  0.85803549  0.66358501  1
  H+  H222  1  0.02875170  0.13690870  0.15372875  1
  H+  H223  1  0.69245093  0.10658566  0.95595583  1
  H+  H224  1  0.38006562  -0.00587795  1.00073497  1
  H+  H225  1  0.61911768  0.23179620  0.66790185  1
  H+  H226  1  0.63413178  0.05228139  0.31306981  1
  H+  H227  1  0.48086784  0.38247460  0.98634067  1
  H+  H228  1  1.01741092  0.88164604  0.67601555  1
  H+  H229  1  0.63199573  0.61082957  0.66067673  1
  H+  H230  1  0.21689184  0.34793580  -0.01987211  1
  H+  H231  1  0.97643170  0.10652913  0.99721174  1
  H+  H232  1  0.65169681  0.51919711  0.16778937  1
  H+  H233  1  0.41410565  0.28718183  0.32593539  1
  H+  H234  1  0.16008437  0.86343626  0.51516451  1
  H+  H235  1  0.22940519  0.35732791  0.50273716  1
  H+  H236  1  0.10775375  0.87824655  0.82806957  1
  H+  H237  1  0.08995495  0.67547122  0.40488635  1
  H+  H238  1  0.31520653  0.16380868  0.33224674  1
  H+  H239  1  0.75502412  0.11298917  0.67599140  1
  H+  H240  1  0.49417900  0.59096665  0.15575412  1
  H+  H241  1  0.61324435  0.74841503  0.16034298  1
  H+  H242  1  0.11243451  0.13298536  0.49688794  1
  H+  H243  1  0.22352392  0.10602273  0.84356254  1
  H+  H244  1  0.72187362  0.37236667  0.99108366  1
  H+  H245  1  0.85043116  0.68364479  0.43210284  1
  H+  H246  1  0.91665700  0.82843119  0.22915062  1
  H+  H247  1  0.13303807  0.23944047  0.32630800  1
  H+  H248  1  0.88270317  0.86301359  0.66805252  1
  H+  H249  1  0.42988311  0.33772091  0.22665256  1
  H+  H250  1  0.27406904  0.35920966  0.33308888  1
  H+  H251  1  0.58504852  0.42115013  0.43823570  1
  H+  H252  1  0.19265241  0.08950492  0.33327064  1
  H+  H253  1  0.52448771  0.64064869  0.68160919  1
  H+  H254  1  0.30235533  0.81466682  0.39553323  1
  H+  H255  1  0.98312914  0.85309354  0.32098971  1
  H+  H256  1  0.49165529  0.12770235  0.33059583  1
  H+  H257  1  0.64557863  0.73856423  0.17418890  1
  H+  H258  1  0.61286517  0.72350954  0.83521573  1
  H+  H259  1  0.12790627  0.39480944  0.50560664  1
  H+  H260  1  0.14329026  0.53542300  0.55342174  1
  H+  H261  1  0.36400538  0.23585534  0.49534454  1
  H+  H262  1  0.11343643  0.62915756  -0.00217549  1
  H+  H263  1  -0.02722461  0.35562047  0.81129784  1
  H+  H264  1  0.62652555  0.14024164  0.49307771  1
  H+  H265  1  0.88755220  0.86789800  0.17321231  1
  H+  H266  1  0.10885676  0.88518580  0.67618783  1
  H+  H267  1  0.87146172  0.48900508  0.15848149  1
  H+  H268  1  0.02550282  0.13810637  0.50199247  1
  H+  H269  1  0.11290182  0.21725101  -0.00574290  1
  H+  H270  1  0.88838689  0.76761751  0.32454501  1
  H+  H271  1  0.26784997  0.64140271  0.16627110  1
  H+  H272  1  0.89828279  0.03360998  0.17324781  1
  H+  H273  1  0.69224078  0.04725026  0.51514153  1
  H+  H274  1  0.94903979  0.88209204  0.51180254  1
  H+  H275  1  0.41808990  0.83337823  0.89562730  1
  H+  H276  1  0.21782164  0.84525402  0.82869754  1
  H+  H277  1  0.65389949  0.28570641  0.50669275  1
  H+  H278  1  0.37651083  0.52017287  0.99155291  1
  H+  H279  1  0.15966969  0.31062021  0.92039842  1
  H+  H280  1  0.26420358  0.82650831  0.69723363  1
  H+  H281  1  0.63266940  0.37620882  0.33052853  1
  H+  H282  1  0.67115158  0.33999389  0.59879694  1
  H+  H283  1  0.13388428  0.01101471  0.84411572  1
  H+  H284  1  0.62812014  0.42313487  -0.00874527  1
  H+  H285  1  0.76455601  0.12790285  0.82523505  1
  H+  H286  1  0.65479800  0.77040082  0.35131463  1
  H+  H287  1  0.00564495  0.62741842  0.68767616  1
  H+  H288  1  0.81630587  0.14279284  0.74080253  1
  H+  H289  1  0.66260230  0.33591621  0.93153054  1
  H+  H290  1  0.39205120  0.58130770  0.23054789  1
  H+  H291  1  0.16200817  0.07305710  0.91516300  1
  H+  H292  1  0.92945463  0.36473716  0.60297167  1
  H+  H293  1  0.65318353  0.56601406  0.90871340  1
  H+  H294  1  0.27586433  0.89346547  0.15517779  1
  H+  H295  1  0.60553616  0.18059158  0.43444445  1
  H+  H296  1  0.10870584  0.21733152  0.77207078  1
  H+  H297  1  0.32218017  0.16619422  0.76928687  1
  H+  H298  1  0.82034106  0.66708397  0.74224754  1
  H+  H299  1  0.32004779  0.40629872  0.05656967  1
  H+  H300  1  0.17871740  0.83956242  0.89560819  1
  H+  H301  1  0.32915499  0.41727914  0.72986809  1
  H+  H302  1  0.17009136  0.08005185  0.56836470  1
  H+  H303  1  0.65993550  0.82619713  0.60554928  1
  H+  H304  1  0.92246777  0.09419548  0.26631957  1
  H+  H305  1  0.42544862  0.09250742  0.27388658  1
  H+  H306  1  0.10801003  0.37613569  0.81533868  1
  H+  H307  1  0.60530388  0.96952501  0.81577897  1
  H+  H308  1  0.43024463  0.09941609  0.93534725  1
  H+  H309  1  0.11032580  0.14600764  0.67850157  1
  H+  H310  1  0.90593803  0.82985266  0.60827629  1
  H+  H311  1  0.92535259  0.09459048  0.57653917  1
  H+  H312  1  0.08825356  0.67457378  0.09408140  1
  H+  H313  1  0.67804882  0.57771682  0.22882269  1
  H+  H314  1  0.33106841  0.18205822  0.06693918  1
  H+  H315  1  0.21630146  0.33900606  0.82133782  1
  H+  H316  1  0.60999984  0.66077135  0.40754052  1
  H+  H317  1  0.82784366  0.90817884  0.42218631  1
  H+  H318  1  0.68477899  0.87394993  0.24637962  1
  H+  H319  1  0.56972195  0.90281811  0.73440078  1
  H+  H320  1  0.82830588  0.91359780  0.73778208  1
  H+  H321  1  0.36155248  0.14135780  0.67543900  1
  H+  H322  1  0.66614319  0.83120296  0.90424358  1
  H+  H323  1  0.62252890  0.01687557  0.66652980  1
  H+  H324  1  0.83633968  0.43136538  0.43312530  1
  H+  H325  1  0.67735058  0.44922477  0.79005561  1
  H+  H326  1  0.83289459  0.41723260  0.06110613  1
  H+  H327  1  0.45263965  0.87849057  0.68515964  1
  H+  H328  1  0.47848813  0.35730165  0.50640530  1
  H+  H329  1  0.55024243  0.88633586  0.44342451  1
  H+  H330  1  0.85529740  0.88122515  0.01469787  1
  H+  H331  1  0.16424030  0.33655689  0.59737197  1
  H+  H332  1  0.61065466  0.71336840  0.49790416  1
  H+  H333  1  0.71999583  0.61061080  0.66465832  1
  H+  H334  1  0.09413629  0.90530575  0.43446710  1
  H+  H335  1  0.36376051  0.37545533  0.15263070  1
  H+  H336  1  0.33354517  0.40600162  0.39047689  1
  H+  H337  1  0.09874984  0.71061303  0.68728858  1
  H+  H338  1  0.13231563  0.01948623  0.99176228  1
  H+  H339  1  0.67747397  0.58587070  0.56651092  1
  H+  H340  1  0.83277044  0.18288373  0.44837835  1
  H+  H341  1  0.81798142  0.41180390  0.74142695  1
  H+  H342  1  0.49839116  0.12809622  0.50259263  1
  H+  H343  1  0.08777080  0.16160261  0.05742060  1
  H+  H344  1  0.89279040  0.32919740  0.26513414  1
  H+  H345  1  0.32884957  0.68252602  0.47299838  1
  H+  H346  1  0.09524618  0.41579123  0.34693558  1
  H+  H347  1  0.17129454  0.31244674  0.22600374  1
  H+  H348  1  0.90384260  0.57876802  0.93500383  1
  H+  H349  1  0.19260161  0.84620628  0.60658238  1
  H+  H350  1  0.22138448  0.11303800  0.66343748  1
  H+  H351  1  0.60485653  0.83800576  0.51360776  1
  H+  H352  1  0.55461778  0.61035679  0.06360005  1
  H+  H353  1  0.34462188  0.93148319  0.05981974  1
  H+  H354  1  0.10678263  0.09124713  0.33092366  1
  H+  H355  1  0.83266990  0.91970875  0.10696735  1
  H+  H356  1  0.15285551  0.07309892  0.23006768  1
  H+  H357  1  0.16955934  0.60467388  0.22999016  1
  H+  H358  1  0.38189819  0.10952723  0.17688619  1
  H+  H359  1  0.60902986  0.57192789  0.00250458  1
  H+  H360  1  0.89655868  0.12211913  0.17424466  1
  H+  H361  1  0.41879572  0.33814809  0.89693016  1
  H+  H362  1  0.82068295  0.67209608  0.09284585  1
  H+  H363  1  0.64870515  0.06152708  0.57329047  1
  H+  H364  1  0.65655166  0.34007681  0.27008181  1
  H+  H365  1  0.74902611  0.61566436  0.32100021  1
  H+  H366  1  0.07192829  0.15243635  0.40527258  1
  H+  H367  1  0.13262775  0.63470725  0.32389483  1
  H+  H368  1  0.92370031  0.33492848  0.94094252  1
  H+  H369  1  0.58032821  0.41927670  0.72458292  1
  H+  H370  1  0.41425812  0.32747981  0.56493517  1
  H+  H371  1  0.59164095  0.17741236  0.73013141  1
  H+  H372  1  0.41158682  0.57680012  0.93176694  1
  H+  H373  1  0.79337024  0.70719684  0.37294850  1
  H+  H374  1  0.33480897  0.80289587  0.51072067  1
  H+  H375  1  0.96550190  0.85572580  0.99991352  1
  H+  H376  1  0.11916426  0.87851440  0.33830880  1
  H+  H377  1  0.32289581  0.65431834  0.77366313  1
  H+  H378  1  0.08292250  0.41713655  0.73001408  1
  H+  H379  1  0.32367615  0.71901619  0.68872057  1
  H+  H380  1  0.85442355  0.22673705  0.34210618  1
  H+  H381  1  0.57686690  0.17250347  0.09976389  1
  H+  H382  1  0.97657104  0.85697354  0.83356708  1
  H+  H383  1  0.13375768  0.47078658  0.46549000  1
  O2-  O384  1  0.08829282  0.16181480  0.13676604  1
  O2-  O385  1  0.08388274  0.16422334  0.48143130  1
  O2-  O386  1  0.11321766  0.21956273  0.81737155  1
  O2-  O387  1  0.08852327  0.42183281  0.20225195  1
  O2-  O388  1  0.10372581  0.43416940  0.50010517  1
  O2-  O389  1  0.08093441  0.40995841  0.80168198  1
  O2-  O390  1  0.09381793  0.67867737  0.13906675  1
  O2-  O391  1  0.11290814  0.67970832  0.48408022  1
  O2-  O392  1  0.06845669  0.64964370  0.82233685  1
  O2-  O393  1  0.08228166  0.90751775  0.14905839  1
  O2-  O394  1  0.09563203  0.90717937  0.48044298  1
  O2-  O395  1  0.07669902  0.90906484  0.81500793  1
  O2-  O396  1  0.33211690  0.16166880  0.14853378  1
  O2-  O397  1  0.32775365  0.17424476  0.47652489  1
  O2-  O398  1  0.32125900  0.16468291  0.81494426  1
  O2-  O399  1  0.33154765  0.40435538  0.13836282  1
  O2-  O400  1  0.33057328  0.40331872  0.46980950  1
  O2-  O401  1  0.32677263  0.40975038  0.80525916  1
  O2-  O402  1  0.33161144  0.67661894  0.15281745  1
  O2-  O403  1  0.30013898  0.61986089  0.48079409  1
  O2-  O404  1  0.32464236  0.65250525  0.81872410  1
  O2-  O405  1  0.33619960  0.92278831  0.14232956  1
  O2-  O406  1  0.31757892  0.96292679  0.45196632  1
  O2-  O407  1  0.31305638  0.86556352  0.77884321  1
  O2-  O408  1  0.57356762  0.16467403  0.14530709  1
  O2-  O409  1  0.60843688  0.18123570  0.48002784  1
  O2-  O410  1  0.59430408  0.17877002  0.80598754  1
  O2-  O411  1  0.59503865  0.41818243  0.13509864  1
  O2-  O412  1  0.58208148  0.41705045  0.48362677  1
  O2-  O413  1  0.61969937  0.43797260  0.80001794  1
  O2-  O414  1  0.52004597  0.56280099  0.13198665  1
  O2-  O415  1  0.58940695  0.65525117  0.47965746  1
  O2-  O416  1  0.58294070  0.66229204  0.82174101  1
  O2-  O417  1  0.58555366  0.92407671  0.14689513  1
  O2-  O418  1  0.53893764  0.87940253  0.48799837  1
  O2-  O419  1  0.57964893  0.90719806  0.80675788  1
  O2-  O420  1  0.84212452  0.17420768  0.15220648  1
  O2-  O421  1  0.84709021  0.19456482  0.49224568  1
  O2-  O422  1  0.82475597  0.15164708  0.81009147  1
  O2-  O423  1  0.83915281  0.42984176  0.13877505  1
  O2-  O424  1  0.83915224  0.43527181  0.47848464  1
  O2-  O425  1  0.81437546  0.41535091  0.81896914  1
  O2-  O426  1  0.82146594  0.67967325  0.13941552  1
  O2-  O427  1  0.85361513  0.68586198  0.47849521  1
  O2-  O428  1  0.82821794  0.66860488  0.82481119  1
  O2-  O429  1  0.84351376  0.92613294  0.15197285  1
  O2-  O430  1  0.79156781  0.88154565  0.45877736  1
  O2-  O431  1  0.83639180  0.91186678  0.81854189  1
  O2-  O432  1  0.15922671  0.07291188  0.18530936  1
  O2-  O433  1  0.17266289  0.07970934  0.52259031  1
  O2-  O434  1  0.16399533  0.07056344  0.86173779  1
  O2-  O435  1  0.16646368  0.32511391  0.18273797  1
  O2-  O436  1  0.17018190  0.33143580  0.52036340  1
  O2-  O437  1  0.15389136  0.31195765  0.83339015  1
  O2-  O438  1  0.17270028  0.59605761  0.18459644  1
  O2-  O439  1  0.18359638  0.59685018  0.56040161  1
  O2-  O440  1  0.15458166  0.56465602  0.85349820  1
  O2-  O441  1  0.15560731  0.82622948  0.18792067  1
  O2-  O442  1  0.19219911  0.83709786  0.53256650  1
  O2-  O443  1  0.16439662  0.82903380  0.85151630  1
  O2-  O444  1  0.41162934  0.07845492  0.19228632  1
  O2-  O445  1  0.43657850  0.09921086  0.51304233  1
  O2-  O446  1  0.42577115  0.10586699  0.85238943  1
  O2-  O447  1  0.42314482  0.33151316  0.18149221  1
  O2-  O448  1  0.41604069  0.32469983  0.51914667  1
  O2-  O449  1  0.41431914  0.33185616  0.85091716  1
  O2-  O450  1  0.43197180  0.62476853  0.19621615  1
  O2-  O451  1  0.41852031  0.56531887  0.51171800  1
  O2-  O452  1  0.41016518  0.57080360  0.85276789  1
  O2-  O453  1  0.41270152  0.83485018  0.18084560  1
  O2-  O454  1  0.36143155  0.79431229  0.47481203  1
  O2-  O455  1  0.41856615  0.82347753  0.85041461  1
  O2-  O456  1  0.66873384  0.09300813  0.17739735  1
  O2-  O457  1  0.64381460  0.05369610  0.52786810  1
  O2-  O458  1  0.65347652  0.08053869  0.83468518  1
  O2-  O459  1  0.67114174  0.31736176  0.19084514  1
  O2-  O460  1  0.67647892  0.34556475  0.52178261  1
  O2-  O461  1  0.66515094  0.31958210  0.85983277  1
  O2-  O462  1  0.67409869  0.57904440  0.18306017  1
  O2-  O463  1  0.68095920  0.58675698  0.52105803  1
  O2-  O464  1  0.66378848  0.58053790  0.86465468  1
  O2-  O465  1  0.70944343  0.91654259  0.21416097  1
  O2-  O466  1  0.64411067  0.81648449  0.52638229  1
  O2-  O467  1  0.67110215  0.83300327  0.85882493  1
  O2-  O468  1  0.92976140  0.09421075  0.18840713  1
  O2-  O469  1  0.93038719  0.10092576  0.53187686  1
  O2-  O470  1  0.92430816  0.08384033  0.85671649  1
  O2-  O471  1  0.91274896  0.33954193  0.18946483  1
  O2-  O472  1  0.93402976  0.36675677  0.52523161  1
  O2-  O473  1  0.90831959  0.32383925  0.80747639  1
  O2-  O474  1  0.92246015  0.58164493  0.19104297  1
  O2-  O475  1  0.95036021  0.60751646  0.50588089  1
  O2-  O476  1  0.90291457  0.57898386  0.85867161  1
  O2-  O477  1  0.91455353  0.83157145  0.18306969  1
  O2-  O478  1  0.89529337  0.83513761  0.52747098  1
  O2-  O479  1  0.91373185  0.82685521  0.84722100  1
  O2-  O480  1  0.13727447  0.06132294  0.31286164  1
  O2-  O481  1  0.16163117  0.08470242  0.64663548  1
  O2-  O482  1  0.16061030  0.07823176  0.97196670  1
  O2-  O483  1  0.16973331  0.29747592  0.30615100  1
  O2-  O484  1  0.15916485  0.33832268  0.64280824  1
  O2-  O485  1  0.15785567  0.30829446  0.96505503  1
  O2-  O486  1  0.16303271  0.60719316  0.30379967  1
  O2-  O487  1  0.22480870  0.60452376  0.68012103  1
  O2-  O488  1  0.16342622  0.58604850  0.97886771  1
  O2-  O489  1  0.16582492  0.82310670  0.30294815  1
  O2-  O490  1  0.19655339  0.86033049  0.65176803  1
  O2-  O491  1  0.18651515  0.85463178  0.97702718  1
  O2-  O492  1  0.42974646  0.09866101  0.31890459  1
  O2-  O493  1  0.42567827  0.10009695  0.64548854  1
  O2-  O494  1  0.42873381  0.08863254  0.97939286  1
  O2-  O495  1  0.43599470  0.34409998  0.30614713  1
  O2-  O496  1  0.40778523  0.32888177  0.64175454  1
  O2-  O497  1  0.42156687  0.34835383  0.97087395  1
  O2-  O498  1  0.32705206  0.52880429  0.27456507  1
  O2-  O499  1  0.42825186  0.62427086  0.63477256  1
  O2-  O500  1  0.41392361  0.58065249  0.97709774  1
  O2-  O501  1  0.42252309  0.83949400  0.30086586  1
  O2-  O502  1  0.48665803  0.85744407  0.66384956  1
  O2-  O503  1  0.42305921  0.84445540  0.97078709  1
  O2-  O504  1  0.67642949  0.11053642  0.30129947  1
  O2-  O505  1  0.66009651  0.07679821  0.65075932  1
  O2-  O506  1  0.68172528  0.09729353  0.99942783  1
  O2-  O507  1  0.66220695  0.34453383  0.31486827  1
  O2-  O508  1  0.66563310  0.33494177  0.64432711  1
  O2-  O509  1  0.66136551  0.34848569  0.97701340  1
  O2-  O510  1  0.68778408  0.58057970  0.30399588  1
  O2-  O511  1  0.66205811  0.58102069  0.64462768  1
  O2-  O512  1  0.64497318  0.54296910  0.98765548  1
  O2-  O513  1  0.67998609  0.83448284  0.35473958  1
  O2-  O514  1  0.66404942  0.82956105  0.65088448  1
  O2-  O515  1  0.66120912  0.82322372  0.98398610  1
  O2-  O516  1  0.91674316  0.09094771  0.31191632  1
  O2-  O517  1  0.91281755  0.08488742  0.66020164  1
  O2-  O518  1  0.91388290  0.07806499  0.98564311  1
  O2-  O519  1  0.89224015  0.32856608  0.31100225  1
  O2-  O520  1  0.93021459  0.36042268  0.64848548  1
  O2-  O521  1  0.91219056  0.32823105  0.98437060  1
  O2-  O522  1  0.91709379  0.59656905  0.31974599  1
  O2-  O523  1  0.91106515  0.58372829  0.66252972  1
  O2-  O524  1  0.90095060  0.57638982  0.98090890  1
  O2-  O525  1  0.92454470  0.82844755  0.30355625  1
  O2-  O526  1  0.91174160  0.83125173  0.65335556  1
  O2-  O527  1  0.90430736  0.83027018  0.98926481  1
  O2-  O528  1  0.08281596  0.15603997  0.01211195  1
  O2-  O529  1  0.07112732  0.14872628  0.35947407  1
  O2-  O530  1  0.08133087  0.17736047  0.69323546  1
  O2-  O531  1  0.07625761  0.43516489  0.05668293  1
  O2-  O532  1  0.06682708  0.43402668  0.31791535  1
  O2-  O533  1  0.07830478  0.41645306  0.68355705  1
  O2-  O534  1  0.08007249  0.66074528  0.01058942  1
  O2-  O535  1  0.08020214  0.67568067  0.36015411  1
  O2-  O536  1  0.06644025  0.65351912  0.70478849  1
  O2-  O537  1  0.08564699  0.92037803  0.01975235  1
  O2-  O538  1  0.08560608  0.90212460  0.35830189  1
  O2-  O539  1  0.07785060  0.91364421  0.69210325  1
  O2-  O540  1  0.33150290  0.19833449  0.02391248  1
  O2-  O541  1  0.36354274  0.18244075  0.35988745  1
  O2-  O542  1  0.32701093  0.16691613  0.69063167  1
  O2-  O543  1  0.32108196  0.41314602  0.01171337  1
  O2-  O544  1  0.33367264  0.40259535  0.34503664  1
  O2-  O545  1  0.32670860  0.41648069  0.68378696  1
  O2-  O546  1  0.32713519  0.66987304  0.00822345  1
  O2-  O547  1  0.33018864  0.66020284  0.33116101  1
  O2-  O548  1  0.31686585  0.66107580  0.69163898  1
  O2-  O549  1  0.34521531  0.93108181  0.01468822  1
  O2-  O550  1  0.30904115  0.85967340  0.36695336  1
  O2-  O551  1  0.31129277  0.82387973  0.71950662  1
  O2-  O552  1  0.59205620  0.18618177  0.02512444  1
  O2-  O553  1  0.59476442  0.18559168  0.35807513  1
  O2-  O554  1  0.58913659  0.17137395  0.68435954  1
  O2-  O555  1  0.59720634  0.45257366  0.00930597  1
  O2-  O556  1  0.59056177  0.42912142  0.35962535  1
  O2-  O557  1  0.57303325  0.41408641  0.67966515  1
  O2-  O558  1  0.57118667  0.62821505  0.01998577  1
  O2-  O559  1  0.61740501  0.66675195  0.36144698  1
  O2-  O560  1  0.58413148  0.66525269  0.69631479  1
  O2-  O561  1  0.58679329  0.91786036  0.02343048  1
  O2-  O562  1  0.57742404  0.89993839  0.36557685  1
  O2-  O563  1  0.57462444  0.91146582  0.68792079  1
  O2-  O564  1  0.84402867  0.16936876  0.03084408  1
  O2-  O565  1  0.82547459  0.16707577  0.35939047  1
  O2-  O566  1  0.81610577  0.14082812  0.69367856  1
  O2-  O567  1  0.82767948  0.41072343  0.01589309  1
  O2-  O568  1  0.82807975  0.42852848  0.35424800  1
  O2-  O569  1  0.82592823  0.41167093  0.69624196  1
  O2-  O570  1  0.81321459  0.65148602  0.02446657  1
  O2-  O571  1  0.83174840  0.68706800  0.35872459  1
  O2-  O572  1  0.81867536  0.66534069  0.69720963  1
  O2-  O573  1  0.82312342  0.91075358  0.02899440  1
  O2-  O574  1  0.85895923  0.92482992  0.34271050  1
  O2-  O575  1  0.83063956  0.91746619  0.69254773  1
