# generated using pymatgen
data_H2O
_symmetry_space_group_name_H-M   'P 1'
_cell_length_a   17.99115468
_cell_length_b   17.96445774
_cell_length_c   21.99996524
_cell_angle_alpha   90.03722551
_cell_angle_beta   90.00632688
_cell_angle_gamma   119.95057526
_symmetry_Int_Tables_number   1
_chemical_formula_structural   H2O
_chemical_formula_sum   'H384 O192'
_cell_volume   6160.86523460
_cell_formula_units_Z   192
loop_
 _symmetry_equiv_pos_site_id
 _symmetry_equiv_pos_as_xyz
  1  'x, y, z'
loop_
 _atom_type_symbol
 _atom_type_oxidation_number
  H+  1.0
  O2-  -2.0
loop_
 _atom_site_type_symbol
 _atom_site_label
 _atom_site_symmetry_multiplicity
 _atom_site_fract_x
 _atom_site_fract_y
 _atom_site_fract_z
 _atom_site_occupancy
  H+  H0  1  0.86671696  0.97676764  0.81730238  1
  H+  H1  1  0.12551017  0.13706215  0.83887621  1
  H+  H2  1  0.35795457  0.64162857  0.16140925  1
  H+  H3  1  0.36267338  0.75186185  0.82633197  1
  H+  H4  1  0.62064965  0.64819703  0.01325902  1
  H+  H5  1  0.65276200  0.52605752  0.17024722  1
  H+  H6  1  0.13700934  0.78360335  0.64701721  1
  H+  H7  1  0.06158934  0.18353522  0.00037224  1
  H+  H8  1  0.37520581  0.06322646  0.30286067  1
  H+  H9  1  0.48100455  0.36244227  0.83699207  1
  H+  H10  1  0.23727489  0.61826149  0.33144557  1
  H+  H11  1  1.04018348  0.13781329  0.50293662  1
  H+  H12  1  0.39266814  0.36210113  0.83856240  1
  H+  H13  1  0.11780434  0.00388055  0.33145778  1
  H+  H14  1  0.52188565  0.14790650  0.83381024  1
  H+  H15  1  0.87361046  0.72457634  0.00888609  1
  H+  H16  1  0.86798460  1.02486410  0.65392165  1
  H+  H17  1  0.36201115  0.87845018  0.47867852  1
  H+  H18  1  0.37697328  0.53121073  0.17458010  1
  H+  H19  1  0.61026383  0.85721510  0.65205091  1
  H+  H20  1  0.73555427  0.86007549  0.84887495  1
  H+  H21  1  0.90801353  0.37223757  0.33072565  1
  H+  H22  1  0.13569319  0.02310384  0.83997702  1
  H+  H23  1  0.06325267  0.92377935  0.76277708  1
  H+  H24  1  0.92888980  0.33750711  0.27033589  1
  H+  H25  1  0.61332546  0.48475797  0.67129004  1
  H+  H26  1  0.17004142  0.07834573  0.90259379  1
  H+  H27  1  0.52076513  0.63026718  0.16629544  1
  H+  H28  1  0.85707634  0.93446007  0.44196492  1
  H+  H29  1  0.15546251  0.27833401  0.85614248  1
  H+  H30  1  0.47891972  0.94157025  0.29219741  1
  H+  H31  1  0.11864177  0.88269268  0.34822639  1
  H+  H32  1  0.01991095  0.64347788  0.18796687  1
  H+  H33  1  0.11414472  0.47818943  0.65902270  1
  H+  H34  1  0.49710594  0.60007496  0.33302757  1
  H+  H35  1  0.64617251  0.27140760  0.16466463  1
  H+  H36  1  0.86106108  0.15126077  0.81945094  1
  H+  H37  1  0.41856333  0.85957617  0.21997842  1
  H+  H38  1  0.64576307  0.27359504  0.32181737  1
  H+  H39  1  0.58272395  0.07820221  0.31936672  1
  H+  H40  1  0.14079666  0.61292194  0.98166731  1
  H+  H41  1  0.25358709  0.39627470  0.15384890  1
  H+  H42  1  0.97687862  0.62440583  0.65807139  1
  H+  H43  1  0.22105423  0.61306022  0.65528859  1
  H+  H44  1  0.52079995  0.87307742  0.15828645  1
  H+  H45  1  0.46897931  0.61977124  0.50617255  1
  H+  H46  1  0.51852805  0.64008620  0.67344341  1
  H+  H47  1  0.77769640  0.87495479  0.35340547  1
  H+  H48  1  0.62055206  1.04627687  0.83276133  1
  H+  H49  1  0.09373072  0.45713146  0.85745915  1
  H+  H50  1  0.97308985  0.32274743  0.93389547  1
  H+  H51  1  0.88406007  0.01798092  0.33692795  1
  H+  H52  1  0.37643554  0.62701310  0.33421064  1
  H+  H53  1  0.11847495  0.35728949  0.16482189  1
  H+  H54  1  0.38212432  1.01233904  0.65750808  1
  H+  H55  1  0.61132035  0.71626136  0.17358216  1
  H+  H56  1  0.37762672  0.10075136  0.13358221  1
  H+  H57  1  0.86706202  0.49171843  0.49281774  1
  H+  H58  1  0.95788543  0.10765465  0.18007511  1
  H+  H59  1  0.64476776  0.61057466  0.32524172  1
  H+  H60  1  0.10182610  0.63317554  0.82351427  1
  H+  H61  1  0.35432105  0.63043786  0.49272980  1
  H+  H62  1  0.73734978  0.89701033  0.66714900  1
  H+  H63  1  0.37055086  0.20001384  0.47503396  1
  H+  H64  1  0.78232834  0.63940984  0.34824154  1
  H+  H65  1  0.85822603  0.88177839  0.17756901  1
  H+  H66  1  0.03922855  0.08287230  0.71579673  1
  H+  H67  1  0.88380830  0.27327733  0.17471014  1
  H+  H68  1  0.40669034  0.37504797  0.99774064  1
  H+  H69  1  0.78584175  0.39086395  0.16062875  1
  H+  H70  1  0.09989814  0.85441486  0.48917826  1
  H+  H71  1  0.62994774  0.01477786  0.16452273  1
  H+  H72  1  0.13532089  0.54678595  0.50728466  1
  H+  H73  1  0.33014792  0.39424005  0.18260764  1
  H+  H74  1  0.41387689  0.51702875  0.29029624  1
  H+  H75  1  0.37605320  0.76171804  0.49639685  1
  H+  H76  1  0.88043784  0.47848327  0.00652726  1
  H+  H77  1  0.78877486  0.38976341  0.33890047  1
  H+  H78  1  0.51154180  0.45012105  0.55186338  1
  H+  H79  1  0.11030684  0.64185644  0.66724439  1
  H+  H80  1  0.78037245  0.63895787  0.16136134  1
  H+  H81  1  0.87507074  0.48172041  0.34335744  1
  H+  H82  1  0.61485953  0.48324430  0.82779898  1
  H+  H83  1  0.92735145  0.09849858  0.76702472  1
  H+  H84  1  0.74193675  0.66425851  0.51127191  1
  H+  H85  1  0.86012738  0.72180209  0.82811758  1
  H+  H86  1  0.59406238  0.34651556  0.48045678  1
  H+  H87  1  0.38367297  0.11298442  0.83850058  1
  H+  H88  1  0.89604636  0.17001650  0.49668142  1
  H+  H89  1  0.13938890  0.00463081  0.49150739  1
  H+  H90  1  0.63908985  0.37686185  0.83590278  1
  H+  H91  1  0.28286548  0.88590941  0.15607152  1
  H+  H92  1  0.13924099  0.40528329  0.01758431  1
  H+  H93  1  0.26184499  0.38771962  1.00696891  1
  H+  H94  1  0.59478588  -0.05377847  0.34700653  1
  H+  H95  1  0.63864121  0.13826657  0.84538704  1
  H+  H96  1  0.13718620  1.01472768  -0.00733901  1
  H+  H97  1  0.33462731  0.08237119  1.03306430  1
  H+  H98  1  0.38413553  0.76771077  0.98801949  1
  H+  H99  1  0.41942403  0.59540559  0.23112102  1
  H+  H100  1  0.60140555  0.86027853  0.02222630  1
  H+  H101  1  0.91716464  0.82848752  0.24467928  1
  H+  H102  1  0.39187760  0.93754570  0.28019007  1
  H+  H103  1  -0.00809670  0.38330322  0.65114653  1
  H+  H104  1  0.48611231  0.62080425  0.00422177  1
  H+  H105  1  0.01766227  0.13148150  0.34629225  1
  H+  H106  1  0.72594919  0.61536877  0.84075073  1
  H+  H107  1  0.08692662  0.16758402  0.40029604  1
  H+  H108  1  0.37694525  0.47456731  0.36667680  1
  H+  H109  1  0.63151055  0.62173575  0.66296278  1
  H+  H110  1  0.58459268  0.65996711  0.07798682  1
  H+  H111  1  0.88842768  0.61470117  0.18142502  1
  H+  H112  1  0.98067634  0.85562921  0.33129120  1
  H+  H113  1  0.98801670  0.62249489  0.33754414  1
  H+  H114  1  0.86146378  0.14465269  0.66708549  1
  H+  H115  1  0.92385409  0.35433508  0.58732974  1
  H+  H116  1  0.38260734  0.40116828  0.51456892  1
  H+  H117  1  0.38678382  1.01872402  0.14210864  1
  H+  H118  1  0.22182144  0.61458539  0.17763450  1
  H+  H119  1  0.35565051  0.87581585  0.99459979  1
  H+  H120  1  0.63058960  0.38782818  0.32991403  1
  H+  H121  1  0.65390684  0.36368522  0.16548716  1
  H+  H122  1  0.67889144  0.48453603  0.54328943  1
  H+  H123  1  0.76533808  0.39388059  0.82639572  1
  H+  H124  1  0.86525566  0.65952327  0.50635018  1
  H+  H125  1  0.49968065  0.37492026  0.50617955  1
  H+  H126  1  0.14514208  0.52670246  0.99172472  1
  H+  H127  1  0.24752425  0.14096308  0.20609802  1
  H+  H128  1  0.40435795  0.82169121  0.58745890  1
  H+  H129  1  0.16869156  0.27303118  0.65165434  1
  H+  H130  1  0.73408312  0.62485540  0.99443898  1
  H+  H131  1  0.10767408  0.47961141  0.16623308  1
  H+  H132  1  0.39179901  0.26752377  0.66044849  1
  H+  H133  1  0.13032789  0.12860958  0.49797906  1
  H+  H134  1  0.60384554  0.73105328  0.66743112  1
  H+  H135  1  0.37081844  0.47905065  0.82739634  1
  H+  H136  1  0.09419577  0.42951230  0.07150046  1
  H+  H137  1  0.12720116  0.09728119  -0.00456893  1
  H+  H138  1  0.85370765  0.18996560  0.43999144  1
  H+  H139  1  0.31101503  0.27505235  0.23093256  1
  H+  H140  1  0.54201442  1.03279972  0.75121741  1
  H+  H141  1  0.10936314  0.09668734  0.18056526  1
  H+  H142  1  0.90939151  0.57942402  0.92627136  1
  H+  H143  1  0.25975728  0.10119810  0.04204566  1
  H+  H144  1  0.86960456  0.88303925  0.34653368  1
  H+  H145  1  0.61270590  0.67700858  0.49261188  1
  H+  H146  1  0.63345372  1.03148452  -0.01303366  1
  H+  H147  1  0.99587533  0.85880346  0.99596067  1
  H+  H148  1  0.51033731  0.10317821  0.68412747  1
  H+  H149  1  0.34447182  0.87336060  0.82022678  1
  H+  H150  1  0.47626786  0.96204939  0.79543822  1
  H+  H151  1  0.36632630  0.63986984  0.00995968  1
  H+  H152  1  0.62196198  0.72889315  0.82811061  1
  H+  H153  1  0.86992234  0.21806014  -0.00082692  1
  H+  H154  1  0.28176163  0.39224807  0.83295641  1
  H+  H155  1  0.43890714  0.36761709  0.14057263  1
  H+  H156  1  0.84372157  0.98783460  0.00346169  1
  H+  H157  1  0.09643006  0.68598656  0.40584372  1
  H+  H158  1  0.88418010  0.85958843  0.84086913  1
  H+  H159  1  0.96851836  0.61079107  0.83211133  1
  H+  H160  1  0.01799038  0.63277607  -0.01640430  1
  H+  H161  1  0.89237776  0.37821966  0.50504928  1
  H+  H162  1  0.10843698  0.38565266  0.65876362  1
  H+  H163  1  0.64122715  0.60900943  0.17549561  1
  H+  H164  1  0.34845859  0.62865337  0.81512537  1
  H+  H165  1  0.50423305  0.87970219  0.65825903  1
  H+  H166  1  0.63737120  0.28617946  0.83618272  1
  H+  H167  1  0.26424114  0.88725480  0.81567269  1
  H+  H168  1  0.88912526  0.76888286  0.33337917  1
  H+  H169  1  1.01713861  0.04229201  0.73452077  1
  H+  H170  1  0.38882157  0.52247917  0.66021749  1
  H+  H171  1  0.52071994  0.13864296  0.14361436  1
  H+  H172  1  0.37473650  0.85181235  0.64781279  1
  H+  H173  1  0.35868087  0.63149508  0.66682620  1
  H+  H174  1  0.63247549  0.84953313  0.19598353  1
  H+  H175  1  0.23510541  0.03935626  0.64752054  1
  H+  H176  1  0.38640602  0.71972101  0.33576221  1
  H+  H177  1  0.78863428  0.84667232  0.02076109  1
  H+  H178  1  0.76710538  0.63616272  0.67953593  1
  H+  H179  1  0.11940234  0.09453242  0.33094933  1
  H+  H180  1  0.89199829  0.52679227  0.18247893  1
  H+  H181  1  0.72140240  0.85084033  0.19411576  1
  H+  H182  1  0.50668104  0.04047502  0.53425662  1
  H+  H183  1  0.12900068  0.86560430  0.82406189  1
  H+  H184  1  0.91514333  0.04252922  0.50238690  1
  H+  H185  1  0.22777233  0.86001552  0.97777069  1
  H+  H186  1  0.13703396  0.47217340  0.33636031  1
  H+  H187  1  0.65078744  0.37827047  0.65418926  1
  H+  H188  1  0.36894733  0.38520894  0.67458766  1
  H+  H189  1  -0.01410324  0.09134708  0.00913718  1
  H+  H190  1  0.38478583  0.77734467  0.17140027  1
  H+  H191  1  0.65008505  0.27382693  0.50047411  1
  H+  H192  1  0.10420304  0.72438821  0.82023185  1
  H+  H193  1  0.17687948  0.30108087  1.01667337  1
  H+  H194  1  0.12291225  0.88198997  -0.00187464  1
  H+  H195  1  0.04989166  0.38502881  0.33305861  1
  H+  H196  1  0.73178330  0.36937012  0.50092334  1
  H+  H197  1  0.14101292  0.12559347  0.65158525  1
  H+  H198  1  0.00240855  0.35036276  -0.00011817  1
  H+  H199  1  0.90081227  0.80204430  0.53478892  1
  H+  H200  1  0.50614619  0.89852680  0.99458662  1
  H+  H201  1  0.49173140  0.63743893  0.84075633  1
  H+  H202  1  0.29352391  0.90205994  0.38626339  1
  H+  H203  1  0.41849541  0.22372163  0.33705494  1
  H+  H204  1  0.38274814  0.38810972  0.36694455  1
  H+  H205  1  0.77697925  0.39584131  0.66187127  1
  H+  H206  1  0.41335388  0.01008414  0.50763050  1
  H+  H207  1  0.86631022  0.14275701  0.35208644  1
  H+  H208  1  0.60501788  -0.00582947  0.51002164  1
  H+  H209  1  0.88776534  0.39444190  0.01016954  1
  H+  H210  1  0.16234988  0.79036441  0.34122686  1
  H+  H211  1  0.63776402  0.74958701  0.34550637  1
  H+  H212  1  0.12276974  0.67283690  0.50330486  1
  H+  H213  1  0.53908997  0.14327235  0.48656328  1
  H+  H214  1  0.71303696  0.10691993  0.17128337  1
  H+  H215  1  0.65380006  0.58123127  0.50191263  1
  H+  H216  1  0.65501335  0.33217022  0.92821096  1
  H+  H217  1  0.38389947  0.49015611  0.01833599  1
  H+  H218  1  0.86221274  0.38518765  0.82787617  1
  H+  H219  1  0.65017499  0.85485642  0.87212597  1
  H+  H220  1  0.32040994  0.16298384  0.25390713  1
  H+  H221  1  0.72315842  0.10885484  0.65352065  1
  H+  H222  1  0.96692836  0.08634021  0.65947401  1
  H+  H223  1  0.13465187  0.61637972  0.18799196  1
  H+  H224  1  0.88737416  0.61034557  -0.01036716  1
  H+  H225  1  0.45611865  0.41311268  0.15174659  1
  H+  H226  1  0.60428137  0.11097212  0.68037510  1
  H+  H227  1  0.63917565  0.83848823  0.58890812  1
  H+  H228  1  0.85979275  0.48683107  0.82520302  1
  H+  H229  1  -0.02559808  0.86604623  0.18502488  1
  H+  H230  1  0.53542727  0.40080245  0.00313952  1
  H+  H231  1  0.15418585  0.35516111  0.31045785  1
  H+  H232  1  0.61957477  0.13649852  0.48084013  1
  H+  H233  1  0.20605774  0.59664120  0.82917769  1
  H+  H234  1  0.89114168  0.91645866  0.50436125  1
  H+  H235  1  0.57949978  0.16704931  0.77483993  1
  H+  H236  1  0.86664897  0.28118546  0.83089276  1
  H+  H237  1  0.87717525  0.23531563  0.34705370  1
  H+  H238  1  0.14572815  0.99473570  0.15411452  1
  H+  H239  1  0.45293331  0.83775927  0.82710699  1
  H+  H240  1  0.87193232  0.64130087  0.35411290  1
  H+  H241  1  0.52951378  0.39096343  0.67625186  1
  H+  H242  1  0.89563593  0.38535621  0.65358168  1
  H+  H243  1  0.34791187  0.42874007  0.07767893  1
  H+  H244  1  0.60579431  0.25188388  -0.00709598  1
  H+  H245  1  0.03039362  0.40579792  0.50185363  1
  H+  H246  1  0.24176776  0.35179727  0.51035607  1
  H+  H247  1  0.35747468  0.72071686  0.66312967  1
  H+  H248  1  0.13676729  0.25901337  0.31282471  1
  H+  H249  1  0.62644998  0.49102429  0.00233183  1
  H+  H250  1  0.37015137  0.88494743  0.14441290  1
  H+  H251  1  0.50835762  0.14204210  1.00090537  1
  H+  H252  1  0.11882021  0.40732520  0.49285694  1
  H+  H253  1  0.32500202  0.90408967  0.05484627  1
  H+  H254  1  0.49115869  0.36822935  0.33013110  1
  H+  H255  1  0.28132437  0.11511186  0.47184228  1
  H+  H256  1  0.51501799  0.16661956  0.34348529  1
  H+  H257  1  0.73708450  0.12047998  -0.01308960  1
  H+  H258  1  0.63303939  1.01796072  0.65256780  1
  H+  H259  1  0.36700254  0.12929785  0.66819247  1
  H+  H260  1  0.59926214  0.79473769  0.49009854  1
  H+  H261  1  0.88904122  0.53369321  0.65710610  1
  H+  H262  1  0.01718461  0.88918560  0.82587902  1
  H+  H263  1  0.55188907  0.39439970  0.14871258  1
  H+  H264  1  0.07427596  0.89974467  0.40487736  1
  H+  H265  1  0.68976756  0.49237447  0.51004161  1
  H+  H266  1  0.13733696  0.77212797  0.97230617  1
  H+  H267  1  0.89746415  0.28780591  0.50635141  1
  H+  H268  1  0.26867307  0.87621921  0.65666628  1
  H+  H269  1  0.27590987  0.13679725  0.82580095  1
  H+  H270  1  0.09197685  0.21699263  0.15609188  1
  H+  H271  1  0.09724691  0.37055625  0.85986693  1
  H+  H272  1  0.84642129  0.12010011  0.00576788  1
  H+  H273  1  0.38404670  0.01312221  0.98983558  1
  H+  H274  1  0.87028514  1.01863026  0.18527064  1
  H+  H275  1  0.02693160  0.88125446  0.50286375  1
  H+  H276  1  0.15271733  0.79325389  0.19922312  1
  H+  H277  1  0.81711036  0.90991590  0.76627115  1
  H+  H278  1  0.61774164  0.86957989  0.35263106  1
  H+  H279  1  0.85047323  0.13302925  0.16472389  1
  H+  H280  1  0.38214735  0.14991763  0.38521454  1
  H+  H281  1  0.23705012  0.36938214  0.65615158  1
  H+  H282  1  0.63683894  0.61568115  0.83900060  1
  H+  H283  1  0.12604733  0.64756056  0.35056529  1
  H+  H284  1  0.91420011  0.86803848  0.99980615  1
  H+  H285  1  0.87824782  0.61176400  0.83409023  1
  H+  H286  1  0.58362395  0.89410420  0.43485246  1
  H+  H287  1  0.97545701  0.63799810  0.51057267  1
  H+  H288  1  0.58325308  0.17212987  0.39097353  1
  H+  H289  1  0.60911941  0.42853925  0.09015197  1
  H+  H290  1  0.92464017  0.59154374  0.27996516  1
  H+  H291  1  0.33846281  0.41800070  0.73178268  1
  H+  H292  1  0.63647559  0.06324421  0.56479690  1
  H+  H293  1  0.41548364  0.58381277  0.60103164  1
  H+  H294  1  0.19188561  0.34159379  0.91365347  1
  H+  H295  1  0.14445655  0.23986434  0.50570359  1
  H+  H296  1  0.23965699  0.17712856  0.66272335  1
  H+  H297  1  0.27195441  0.32720809  0.26575248  1
  H+  H298  1  0.40516366  0.81911239  0.92401503  1
  H+  H299  1  0.16197497  0.83811012  0.88302690  1
  H+  H300  1  0.68266856  0.58744176  0.26688559  1
  H+  H301  1  0.40562364  0.07933087  0.93548809  1
  H+  H302  1  0.20903499  0.86492673  0.29240846  1
  H+  H303  1  0.27605344  0.63793701  0.00312327  1
  H+  H304  1  0.16338881  0.81416245  0.57843691  1
  H+  H305  1  0.34525797  0.41577894  0.45204668  1
  H+  H306  1  0.46894337  0.84534509  0.50049211  1
  H+  H307  1  0.90797319  0.07893734  0.27859317  1
  H+  H308  1  0.18274268  0.05323823  0.55035746  1
  H+  H309  1  0.67221037  0.59769516  0.93555430  1
  H+  H310  1  0.17213476  0.58863428  0.27630293  1
  H+  H311  1  0.61435682  0.04849840  0.26212808  1
  H+  H312  1  0.84059445  0.66464376  0.06779086  1
  H+  H313  1  0.58993000  0.42715767  0.76586805  1
  H+  H314  1  0.91495917  0.59814700  0.56824798  1
  H+  H315  1  0.36550030  0.22553636  0.82381298  1
  H+  H316  1  0.32625344  0.66928000  0.10228914  1
  H+  H317  1  0.38536634  0.52416915  0.51199803  1
  H+  H318  1  0.98841730  0.12370417  0.82236428  1
  H+  H319  1  0.15164679  0.31893758  0.21826204  1
  H+  H320  1  0.59267225  0.86881780  0.11483603  1
  H+  H321  1  0.75631963  0.97239766  0.71096161  1
  H+  H322  1  0.17553473  0.32171186  0.56715717  1
  H+  H323  1  0.85339127  0.42776261  0.10548826  1
  H+  H324  1  0.08036880  0.67121505  0.72642547  1
  H+  H325  1  0.63085129  0.36762233  -0.01054667  1
  H+  H326  1  0.43107297  0.34345716  0.93680452  1
  H+  H327  1  0.63167637  0.47808919  0.33516290  1
  H+  H328  1  0.86925184  0.72730316  0.16387050  1
  H+  H329  1  0.16430864  0.59445614  0.59554141  1
  H+  H330  1  0.22539459  0.63140314  0.50266967  1
  H+  H331  1  0.56747436  0.67571303  0.43027583  1
  H+  H332  1  0.81693357  0.90336534  0.12053278  1
  H+  H333  1  0.82532293  0.17049531  0.72468175  1
  H+  H334  1  0.57760337  0.17675241  0.05800187  1
  H+  H335  1  0.88963649  0.36561006  0.17609784  1
  H+  H336  1  0.76798289  0.14381786  0.82452934  1
  H+  H337  1  0.13344855  0.05974077  0.24131587  1
  H+  H338  1  0.82609665  0.66158622  0.76795020  1
  H+  H339  1  0.05557943  0.14508218  0.10420594  1
  H+  H340  1  0.18927678  -0.05687404  0.62100885  1
  H+  H341  1  0.94788235  0.87895256  0.58620769  1
  H+  H342  1  0.55412922  0.92419086  0.71925023  1
  H+  H343  1  0.33242961  0.15496701  0.72792188  1
  H+  H344  1  0.55497421  0.94147618  0.05687797  1
  H+  H345  1  0.21490018  0.99712941  0.10939084  1
  H+  H346  1  0.44960094  0.68049394  0.87812099  1
  H+  H347  1  0.08631664  0.69251106  0.13573642  1
  H+  H348  1  0.60615470  0.13177002  0.14673026  1
  H+  H349  1  0.66408717  0.80868384  0.28687212  1
  H+  H350  1  0.17489844  0.88831819  0.18093991  1
  H+  H351  1  0.95830902  0.36700101  0.84464006  1
  H+  H352  1  0.55884495  0.58085384  0.38663277  1
  H+  H353  1  0.33288834  0.65847179  0.42898637  1
  H+  H354  1  0.84261240  0.69333581  0.44713016  1
  H+  H355  1  0.42846186  0.59007122  0.94389708  1
  H+  H356  1  0.16327761  0.58149873  0.89441608  1
  H+  H357  1  0.60386620  0.77143296  1.03696504  1
  H+  H358  1  0.01752994  0.38978974  0.16094426  1
  H+  H359  1  0.58516490  0.67470306  0.76536574  1
  H+  H360  1  0.66829952  0.60565652  0.60219021  1
  H+  H361  1  0.83395529  0.42302936  0.72323701  1
  H+  H362  1  0.43252619  0.07247205  0.60210560  1
  H+  H363  1  0.32038664  0.90239338  0.72107177  1
  H+  H364  1  0.85719692  0.63891539  0.67788658  1
  H+  H365  1  0.68291365  0.33178681  0.26235265  1
  H+  H366  1  0.84287728  0.42974431  0.43415935  1
  H+  H367  1  0.11750315  0.18541985  0.78174335  1
  H+  H368  1  0.91864611  0.83217365  0.89978803  1
  H+  H369  1  0.56433557  0.37769780  0.42194480  1
  H+  H370  1  0.40133941  0.33797641  0.29339250  1
  H+  H371  1  0.38427456  1.02453065  0.83766749  1
  H+  H372  1  0.82568596  0.16426739  0.10355186  1
  H+  H373  1  0.10878906  0.91918914  0.06186637  1
  H+  H374  1  0.08246547  0.66437260  0.03864919  1
  H+  H375  1  0.94005111  0.10011565  0.56280194  1
  H+  H376  1  0.67645060  0.34465445  0.59455497  1
  H+  H377  1  0.66923795  0.09187523  0.92227606  1
  H+  H378  1  0.31931249  0.65624654  0.75376311  1
  H+  H379  1  0.72472970  0.87609855  0.04314650  1
  H+  H380  1  0.87574741  0.03822734  0.94062725  1
  H+  H381  1  0.43227250  0.33966366  0.60747043  1
  H+  H382  1  0.37989189  0.04612932  0.23389458  1
  H+  H383  1  0.08878007  0.95017537  0.65874818  1
  O2-  O384  1  0.05856878  0.15313444  0.14870882  1
  O2-  O385  1  0.10519285  0.16667197  0.48808293  1
  O2-  O386  1  0.10031736  0.17413893  0.82441374  1
  O2-  O387  1  0.07863799  0.42203268  0.14596218  1
  O2-  O388  1  0.09250934  0.44329059  0.49246325  1
  O2-  O389  1  0.05795383  0.39394106  0.86369299  1
  O2-  O390  1  0.08396487  0.67886796  0.17866660  1
  O2-  O391  1  0.08820708  0.69915064  0.48802326  1
  O2-  O392  1  0.07134575  0.66274679  0.80750405  1
  O2-  O393  1  0.15950218  0.95570852  0.12907925  1
  O2-  O394  1  0.08039623  0.89727056  0.47898349  1
  O2-  O395  1  0.07542922  0.92280666  0.80685721  1
  O2-  O396  1  0.30794410  0.18457893  0.21681514  1
  O2-  O397  1  0.34145490  0.14272726  0.45735948  1
  O2-  O398  1  0.33489378  0.16485964  0.80828140  1
  O2-  O399  1  0.31791816  0.42771134  0.15117618  1
  O2-  O400  1  0.34038089  0.41702447  0.49856047  1
  O2-  O401  1  0.33973972  0.41989605  0.81265505  1
  O2-  O402  1  0.32481421  0.66972304  0.14756009  1
  O2-  O403  1  0.32653202  0.66103413  0.47371281  1
  O2-  O404  1  0.31494717  0.65469809  0.80001931  1
  O2-  O405  1  0.33491248  0.91063725  0.12915189  1
  O2-  O406  1  0.33855174  0.91744583  0.46878294  1
  O2-  O407  1  0.32659849  0.91345164  0.80383272  1
  O2-  O408  1  0.58287001  0.16869467  0.13136764  1
  O2-  O409  1  0.59709978  0.17456281  0.46764123  1
  O2-  O410  1  0.58292339  0.18092710  0.81938705  1
  O2-  O411  1  0.61207046  0.42553232  0.13630859  1
  O2-  O412  1  0.54418418  0.34814479  0.46167339  1
  O2-  O413  1  0.58675669  0.42302272  0.81154699  1
  O2-  O414  1  0.58279128  0.65776385  0.15449278  1
  O2-  O415  1  0.56933458  0.68989951  0.47484774  1
  O2-  O416  1  0.58495904  0.66994624  0.81094518  1
  O2-  O417  1  0.58422567  0.90155086  0.14767329  1
  O2-  O418  1  0.57571480  0.89113741  0.48347232  1
  O2-  O419  1  0.53478564  0.98510017  0.78044110  1
  O2-  O420  1  0.82231756  0.16511323  0.14827794  1
  O2-  O421  1  0.86203914  0.19722627  0.48575223  1
  O2-  O422  1  0.82742674  0.17921197  0.80855325  1
  O2-  O423  1  0.84844561  0.42700279  0.15102011  1
  O2-  O424  1  0.83963344  0.43056879  0.47973527  1
  O2-  O425  1  0.82755309  0.42314104  0.81064445  1
  O2-  O426  1  0.84143261  0.66806580  0.14669007  1
  O2-  O427  1  0.84025618  0.69575869  0.49230516  1
  O2-  O428  1  0.82775253  0.66065829  0.81496836  1
  O2-  O429  1  0.82266981  0.90798162  0.16530985  1
  O2-  O430  1  0.86459997  0.94826961  0.48603725  1
  O2-  O431  1  0.83183880  0.91400535  0.81007297  1
  O2-  O432  1  0.14018609  0.06715336  0.19492230  1
  O2-  O433  1  0.17332579  0.06502360  0.50796977  1
  O2-  O434  1  0.17012353  0.08271671  0.85703149  1
  O2-  O435  1  0.14775456  0.32315235  0.17250237  1
  O2-  O436  1  0.17813815  0.31553820  0.52128524  1
  O2-  O437  1  0.18478283  0.33980697  0.86866369  1
  O2-  O438  1  0.16337324  0.58239905  0.19632024  1
  O2-  O439  1  0.16684698  0.60894681  0.52008735  1
  O2-  O440  1  0.14967871  0.57233975  0.84997051  1
  O2-  O441  1  0.19647783  0.85456957  0.20321842  1
  O2-  O442  1  0.13906452  0.79036565  0.50640617  1
  O2-  O443  1  0.16016054  0.83537293  0.83757565  1
  O2-  O444  1  0.41259293  0.08063180  0.15445397  1
  O2-  O445  1  0.46042589  0.05587524  0.53276319  1
  O2-  O446  1  0.41445609  0.08342429  0.85506265  1
  O2-  O447  1  0.32347682  0.33462961  0.24350519  1
  O2-  O448  1  0.46878916  0.39243850  0.53897200  1
  O2-  O449  1  0.42085416  0.32977774  0.85277352  1
  O2-  O450  1  0.41490667  0.59352230  0.18582664  1
  O2-  O451  1  0.41055834  0.58591795  0.52455921  1
  O2-  O452  1  0.43621434  0.62418608  0.86254898  1
  O2-  O453  1  0.42234794  0.84067775  0.17598101  1
  O2-  O454  1  0.40740205  0.82287833  0.51153612  1
  O2-  O455  1  0.39525098  0.81236634  0.84415268  1
  O2-  O456  1  0.64992504  0.07411407  0.17887488  1
  O2-  O457  1  0.60784478  0.04806455  0.52424404  1
  O2-  O458  1  0.66305713  0.09915868  0.85496173  1
  O2-  O459  1  0.68043864  0.33062337  0.18182469  1
  O2-  O460  1  0.67165329  0.33359371  0.51591124  1
  O2-  O461  1  0.67044087  0.34674658  0.85172952  1
  O2-  O462  1  0.67855292  0.58502397  0.18804935  1
  O2-  O463  1  0.67827856  0.63718668  0.52167427  1
  O2-  O464  1  0.66570054  0.58596039  0.85735684  1
  O2-  O465  1  0.66039510  0.81623260  0.20830048  1
  O2-  O466  1  0.62692035  0.85436002  0.50765831  1
  O2-  O467  1  0.67978662  0.82206607  0.86967939  1
  O2-  O468  1  0.89813058  0.08038415  0.19674253  1
  O2-  O469  1  0.95106909  0.10536730  0.51837683  1
  O2-  O470  1  0.92591983  0.09557294  0.81148089  1
  O2-  O471  1  0.91904346  0.33344500  0.18961062  1
  O2-  O472  1  0.92433227  0.35090220  0.52262881  1
  O2-  O473  1  0.89415934  0.34217352  0.84584043  1
  O2-  O474  1  0.91881916  0.58644432  0.20009068  1
  O2-  O475  1  0.91436618  0.60147920  0.52248473  1
  O2-  O476  1  0.90787859  0.57880524  0.84806618  1
  O2-  O477  1  0.91483793  0.83106641  0.19787903  1
  O2-  O478  1  0.93946011  0.86418084  0.54118386  1
  O2-  O479  1  0.91565717  0.83027900  0.85474361  1
  O2-  O480  1  0.14318024  0.06113314  0.31130380  1
  O2-  O481  1  0.18674112  -0.00264604  0.62278311  1
  O2-  O482  1  0.16581384  0.07679967  0.98088635  1
  O2-  O483  1  0.17006498  0.31416345  0.29045650  1
  O2-  O484  1  0.17761757  0.33040738  0.64044766  1
  O2-  O485  1  0.19861103  0.35423899  0.99361979  1
  O2-  O486  1  0.17546581  0.59093202  0.32158061  1
  O2-  O487  1  0.16046185  0.58483058  0.64084333  1
  O2-  O488  1  0.17551254  0.58519746  0.97226953  1
  O2-  O489  1  0.19495146  0.85402840  0.33607478  1
  O2-  O490  1  0.17505215  0.83515194  0.62239787  1
  O2-  O491  1  0.16769778  0.83412776  0.96109029  1
  O2-  O492  1  0.36021261  0.01661444  0.27332776  1
  O2-  O493  1  0.41808992  0.07452431  0.64622447  1
  O2-  O494  1  0.40847682  0.07575924  0.98063787  1
  O2-  O495  1  0.42725178  0.33306640  0.33211098  1
  O2-  O496  1  0.42138553  0.33027458  0.65210366  1
  O2-  O497  1  0.43992929  0.34916194  0.98139815  1
  O2-  O498  1  0.42923067  0.57229882  0.30877174  1
  O2-  O499  1  0.41626193  0.58380936  0.64676669  1
  O2-  O500  1  0.42511181  0.58995990  0.98878569  1
  O2-  O501  1  0.41848528  0.90026092  0.28115885  1
  O2-  O502  1  0.40595181  0.82183257  0.63335370  1
  O2-  O503  1  0.41144093  0.82679862  0.96890122  1
  O2-  O504  1  0.58791372  0.02958637  0.30269248  1
  O2-  O505  1  0.66116656  0.07926216  0.63993774  1
  O2-  O506  1  0.67416576  0.09062028  0.96951308  1
  O2-  O507  1  0.68303598  0.33454089  0.30762148  1
  O2-  O508  1  0.68353938  0.35094810  0.63961324  1
  O2-  O509  1  0.64858067  0.32576634  0.97356251  1
  O2-  O510  1  0.68246909  0.58730845  0.31236623  1
  O2-  O511  1  0.66017476  0.59067532  0.64598277  1
  O2-  O512  1  0.67301082  0.59917158  0.98119270  1
  O2-  O513  1  0.66803776  0.81003244  0.33217837  1
  O2-  O514  1  0.64341480  0.83165328  0.63342574  1
  O2-  O515  1  0.62590987  0.83322334  1.04854022  1
  O2-  O516  1  0.91421076  0.07932531  0.32349871  1
  O2-  O517  1  0.91541100  0.08316665  0.64207168  1
  O2-  O518  1  0.88019612  0.04635441  0.98464094  1
  O2-  O519  1  0.93663161  0.34081848  0.31521204  1
  O2-  O520  1  0.92752058  0.35684808  0.63576314  1
  O2-  O521  1  0.95029330  0.31134994  0.97548846  1
  O2-  O522  1  0.92613494  0.59101725  0.32523603  1
  O2-  O523  1  0.91566348  0.59478242  0.64383059  1
  O2-  O524  1  0.91802350  0.58198931  0.97138830  1
  O2-  O525  1  0.91956884  0.82835235  0.31542189  1
  O2-  O526  1  0.97089775  0.92465276  0.65548725  1
  O2-  O527  1  0.93356199  0.83123711  0.98162627  1
  O2-  O528  1  0.04721834  0.12966075  0.02053736  1
  O2-  O529  1  0.08084635  0.16221635  0.35585048  1
  O2-  O530  1  0.18830210  0.18327287  0.65963238  1
  O2-  O531  1  0.10076276  0.42889325  0.02594768  1
  O2-  O532  1  0.11220538  0.40957168  0.34061989  1
  O2-  O533  1  0.07885627  0.41656609  0.67192422  1
  O2-  O534  1  0.08201141  0.66449473  -0.00554707  1
  O2-  O535  1  0.09611334  0.68025267  0.36087367  1
  O2-  O536  1  0.08172929  0.67440813  0.68124581  1
  O2-  O537  1  0.09225325  0.91000384  0.01755932  1
  O2-  O538  1  0.07669271  0.90200453  0.35906368  1
  O2-  O539  1  0.03608054  0.91427604  0.68357663  1
  O2-  O540  1  0.29619352  0.08420588  0.06468380  1
  O2-  O541  1  0.41110167  0.16601388  0.34470172  1
  O2-  O542  1  0.33041190  0.15385824  0.68243950  1
  O2-  O543  1  0.35466700  0.42897626  0.03229160  1
  O2-  O544  1  0.35031544  0.41586493  0.38294363  1
  O2-  O545  1  0.33984780  0.41817217  0.68652727  1
  O2-  O546  1  0.33533885  0.67115906  0.02098466  1
  O2-  O547  1  0.35005615  0.66080869  0.34969971  1
  O2-  O548  1  0.32698551  0.66125265  0.68081840  1
  O2-  O549  1  0.32577148  0.90676252  0.00887449  1
  O2-  O550  1  0.35293407  0.92961553  0.40328431  1
  O2-  O551  1  0.32748323  0.90544014  0.67620116  1
  O2-  O552  1  0.57098190  0.18005683  0.01226458  1
  O2-  O553  1  0.57264021  0.17180099  0.34622987  1
  O2-  O554  1  0.56139225  0.11291595  0.70903418  1
  O2-  O555  1  0.59833051  0.43037641  0.01729386  1
  O2-  O556  1  0.59844753  0.41603880  0.34592623  1
  O2-  O557  1  0.59071244  0.42606145  0.68888900  1
  O2-  O558  1  0.58464895  0.66987392  0.03291228  1
  O2-  O559  1  0.56691596  0.62955390  0.36199748  1
  O2-  O560  1  0.57943948  0.67412918  0.68812905  1
  O2-  O561  1  0.56467271  0.93748270  0.01337013  1
  O2-  O562  1  0.58317688  0.89386675  0.36971059  1
  O2-  O563  1  0.56348507  0.91119040  0.67729678  1
  O2-  O564  1  0.82431658  0.15982228  0.01480510  1
  O2-  O565  1  0.84259209  0.17855087  0.36699855  1
  O2-  O566  1  0.82022120  0.16222754  0.68025468  1
  O2-  O567  1  0.85972696  0.42351798  0.02861277  1
  O2-  O568  1  0.84732511  0.42070023  0.35728530  1
  O2-  O569  1  0.83925689  0.42579251  0.67865175  1
  O2-  O570  1  0.83907360  0.66368426  0.02217953  1
  O2-  O571  1  0.84079661  0.67206528  0.36661519  1
  O2-  O572  1  0.82481620  0.66341697  0.69826484  1
  O2-  O573  1  0.78893418  0.89571642  0.04011176  1
  O2-  O574  1  0.83966932  0.91292416  0.36280251  1
  O2-  O575  1  0.78381059  0.94197987  0.69390341  1
