# generated using pymatgen
data_H2O
_symmetry_space_group_name_H-M   'P 1'
_cell_length_a   17.98697947
_cell_length_b   17.98817132
_cell_length_c   22.00558269
_cell_angle_alpha   89.98762562
_cell_angle_beta   90.00975251
_cell_angle_gamma   119.98347422
_symmetry_Int_Tables_number   1
_chemical_formula_structural   H2O
_chemical_formula_sum   'H384 O192'
_cell_volume   6167.10075510
_cell_formula_units_Z   192
loop_
 _symmetry_equiv_pos_site_id
 _symmetry_equiv_pos_as_xyz
  1  'x, y, z'
loop_
 _atom_type_symbol
 _atom_type_oxidation_number
  H+  1.0
  O2-  -2.0
loop_
 _atom_site_type_symbol
 _atom_site_label
 _atom_site_symmetry_multiplicity
 _atom_site_fract_x
 _atom_site_fract_y
 _atom_site_fract_z
 _atom_site_occupancy
  H+  H0  1  0.22673525  0.35450750  0.15594464  1
  H+  H1  1  0.12643109  0.41518840  0.49245061  1
  H+  H2  1  0.29014117  0.90109455  0.34096466  1
  H+  H3  1  0.06420749  0.71251988  0.15531369  1
  H+  H4  1  0.10539617  0.24383530  0.50838338  1
  H+  H5  1  0.13764025  0.01399918  0.33657819  1
  H+  H6  1  0.61958352  0.90475804  0.50454301  1
  H+  H7  1  0.07880154  0.90746717  0.40477714  1
  H+  H8  1  0.47535582  0.87058660  0.67149614  1
  H+  H9  1  0.14981637  0.52575222  0.66406780  1
  H+  H10  1  0.02646396  0.64482871  0.83677855  1
  H+  H11  1  0.23702820  0.88912369  0.47870450  1
  H+  H12  1  0.78078298  0.63189015  0.49937866  1
  H+  H13  1  -0.01970059  0.36740091  -0.00736181  1
  H+  H14  1  0.22026210  0.36438174  0.49835656  1
  H+  H15  1  1.02427083  0.40333663  0.16974524  1
  H+  H16  1  0.73717440  0.12152608  -0.01638677  1
  H+  H17  1  0.87238729  -0.01781843  0.48973046  1
  H+  H18  1  0.08558975  0.44611180  0.40443926  1
  H+  H19  1  0.36592833  0.64064122  0.33683658  1
  H+  H20  1  0.86327330  0.14570900  1.00412948  1
  H+  H21  1  0.86462392  0.88503219  0.33579957  1
  H+  H22  1  0.25959025  0.88462085  -0.01608005  1
  H+  H23  1  0.66494033  0.32599034  0.57146115  1
  H+  H24  1  0.28347304  0.12692164  0.50356362  1
  H+  H25  1  -0.00080833  0.61531138  0.15927562  1
  H+  H26  1  0.23773313  0.64192916  0.51306555  1
  H+  H27  1  0.11077574  0.89493137  0.00413267  1
  H+  H28  1  0.38770225  0.61547271  0.67610625  1
  H+  H29  1  0.27848709  0.64179954  0.68032616  1
  H+  H30  1  0.39074186  0.87242100  0.33629833  1
  H+  H31  1  0.43228943  0.53947712  0.31135838  1
  H+  H32  1  0.61585788  0.48639739  0.16196526  1
  H+  H33  1  0.38877802  0.86743845  -0.02085623  1
  H+  H34  1  0.88747398  0.77694375  0.83716957  1
  H+  H35  1  0.65524650  0.61334107  0.51315965  1
  H+  H36  1  0.86217333  0.86528489  0.67310038  1
  H+  H37  1  0.62669296  0.11900800  0.51147351  1
  H+  H38  1  0.04516131  0.42654611  0.50182607  1
  H+  H39  1  0.34765089  0.46155647  0.67688585  1
  H+  H40  1  0.10700200  0.13025398  0.81958359  1
  H+  H41  1  0.48524832  0.86962497  0.34158275  1
  H+  H42  1  0.18329797  0.79733029  0.18124391  1
  H+  H43  1  0.71317559  0.11256465  0.50677690  1
  H+  H44  1  0.86847974  0.97682582  0.34137623  1
  H+  H45  1  0.61643558  0.38753981  0.15550403  1
  H+  H46  1  0.45986262  0.50503480  0.56018165  1
  H+  H47  1  0.99890912  0.87312983  0.67503610  1
  H+  H48  1  0.20719694  0.85755336  0.66620086  1
  H+  H49  1  0.92169214  0.35292734  0.27716991  1
  H+  H50  1  0.88698890  0.77069179  0.50731989  1
  H+  H51  1  0.33418680  0.66702276  0.77179462  1
  H+  H52  1  0.34616013  0.93385251  0.87723477  1
  H+  H53  1  0.02311898  0.88129747  0.34301419  1
  H+  H54  1  0.52283135  0.39524467  0.16637958  1
  H+  H55  1  0.74202808  0.10994310  0.65755638  1
  H+  H56  1  0.79403802  0.33291812  0.11863429  1
  H+  H57  1  0.12901254  0.86718494  0.83677825  1
  H+  H58  1  0.87938893  0.36322141  0.84700658  1
  H+  H59  1  0.52287915  0.64217630  0.15600740  1
  H+  H60  1  0.53955275  0.65858982  0.33564544  1
  H+  H61  1  0.61931536  0.89177362  0.67497858  1
  H+  H62  1  0.86551038  0.50612809  0.17338660  1
  H+  H63  1  0.37815279  0.15174863  0.18146776  1
  H+  H64  1  0.83623577  0.66477148  0.40180328  1
  H+  H65  1  0.73403334  0.87850858  0.31810334  1
  H+  H66  1  0.11553638  0.35781696  0.85125804  1
  H+  H67  1  0.36239419  0.17496116  0.11573715  1
  H+  H68  1  0.62322730  0.28277377  0.16008704  1
  H+  H69  1  0.60380866  0.46554962  0.68076394  1
  H+  H70  1  0.13032591  0.02360914  0.83381407  1
  H+  H71  1  0.88312772  0.35715081  0.50017777  1
  H+  H72  1  0.86561875  0.23684861  0.34112752  1
  H+  H73  1  0.88779801  0.77137471  0.32968139  1
  H+  H74  1  0.63971411  0.13340176  0.83787825  1
  H+  H75  1  0.48132351  0.86747132  0.16433652  1
  H+  H76  1  0.52780154  0.64682697  0.82963141  1
  H+  H77  1  0.38534111  0.53338653  0.16662361  1
  H+  H78  1  1.02667484  0.87906494  0.16545544  1
  H+  H79  1  0.26205393  0.88971000  0.83894396  1
  H+  H80  1  0.14084353  0.53100266  0.84400004  1
  H+  H81  1  0.88608373  0.27709882  0.83770371  1
  H+  H82  1  0.85633854  0.87869400  0.83381260  1
  H+  H83  1  0.88410827  0.10910038  0.83891969  1
  H+  H84  1  0.85565976  0.94705720  0.14477119  1
  H+  H85  1  0.61389601  0.72467768  0.67871538  1
  H+  H86  1  0.13314480  0.62391908  0.17726851  1
  H+  H87  1  0.87369154  0.20607334  0.66616762  1
  H+  H88  1  0.85932677  0.97625161  0.00369471  1
  H+  H89  1  0.71216408  0.12665199  0.16804907  1
  H+  H90  1  0.73108830  0.86946569  0.16105879  1
  H+  H91  1  0.51830216  0.15197471  0.17743134  1
  H+  H92  1  0.09484579  0.74966046  0.52215670  1
  H+  H93  1  0.61252174  0.44485361  0.83095197  1
  H+  H94  1  0.12528646  0.10136918  0.65368049  1
  H+  H95  1  0.14513222  0.10676966  0.33878821  1
  H+  H96  1  0.35146441  0.22055600  0.66721429  1
  H+  H97  1  0.77418305  0.37859030  0.50214733  1
  H+  H98  1  0.29163359  0.39794460  0.00424329  1
  H+  H99  1  0.72774039  0.61042993  0.66606068  1
  H+  H100  1  1.01922212  0.63042298  0.49406844  1
  H+  H101  1  0.77473730  0.14984916  0.33443034  1
  H+  H102  1  0.53658961  0.16354235  0.81718714  1
  H+  H103  1  0.79898873  0.50227163  0.72272834  1
  H+  H104  1  0.63927312  0.61692378  0.17177491  1
  H+  H105  1  0.82291745  0.19175308  0.09048150  1
  H+  H106  1  0.11781329  0.39421930  0.01517704  1
  H+  H107  1  0.40327291  0.90827100  0.49648087  1
  H+  H108  1  0.10427241  0.21737559  0.81914318  1
  H+  H109  1  0.52560174  0.14258172  0.50318207  1
  H+  H110  1  0.91231489  0.08544859  0.13674185  1
  H+  H111  1  0.87356164  0.59924026  0.17321042  1
  H+  H112  1  0.13245416  0.25769475  0.33279616  1
  H+  H113  1  0.38952472  0.78288410  0.16629523  1
  H+  H114  1  0.37122801  0.21951027  0.50319185  1
  H+  H115  1  0.62517682  0.27353923  0.33928278  1
  H+  H116  1  0.89032985  0.75948105  0.17432816  1
  H+  H117  1  0.27554805  0.63903846  0.83278103  1
  H+  H118  1  0.30093797  0.12719185  0.34842899  1
  H+  H119  1  0.52901613  0.64659792  0.00127712  1
  H+  H120  1  0.27653437  0.64171942  0.33738091  1
  H+  H121  1  0.65881737  0.55811359  0.90196251  1
  H+  H122  1  0.41649821  0.03474264  0.51174781  1
  H+  H123  1  0.27466527  0.38844463  0.63739202  1
  H+  H124  1  0.87669134  0.65130677  0.82508039  1
  H+  H125  1  0.32233784  0.47146477  0.35034294  1
  H+  H126  1  1.01593775  0.88922151  0.82840104  1
  H+  H127  1  0.04707310  0.36860473  0.67159543  1
  H+  H128  1  0.67326892  0.85417160  0.22928644  1
  H+  H129  1  0.89125272  0.78079502  0.00214605  1
  H+  H130  1  0.86453779  0.63482079  0.34168298  1
  H+  H131  1  0.38673674  0.27647757  0.83588442  1
  H+  H132  1  0.12868040  0.21783833  0.15763793  1
  H+  H133  1  0.61100040  0.30615501  0.84118306  1
  H+  H134  1  0.85825774  0.11056898  0.67180978  1
  H+  H135  1  0.13752751  0.53795815  0.17842736  1
  H+  H136  1  0.38825117  0.62366094  0.83984648  1
  H+  H137  1  0.96602963  0.11966313  0.51045812  1
  H+  H138  1  0.21899927  0.11486162  0.83301415  1
  H+  H139  1  0.85960160  0.88568349  -0.00003947  1
  H+  H140  1  0.61911327  0.47298588  0.50245147  1
  H+  H141  1  0.87012621  0.63474721  0.49418862  1
  H+  H142  1  0.14914787  0.38977615  0.59757534  1
  H+  H143  1  0.12279193  0.64631996  1.00581064  1
  H+  H144  1  0.01666924  0.40793923  0.34374699  1
  H+  H145  1  0.01109841  0.11384024  0.66585165  1
  H+  H146  1  0.11751293  0.64885112  0.83773177  1
  H+  H147  1  0.97595825  0.60437498  0.65682876  1
  H+  H148  1  0.59326138  0.92842223  0.73315606  1
  H+  H149  1  0.52920398  0.38387377  0.49865356  1
  H+  H150  1  0.39645125  0.53207512  0.99245289  1
  H+  H151  1  0.06967081  0.91242766  0.76644871  1
  H+  H152  1  0.36763484  0.36777615  0.16288262  1
  H+  H153  1  0.39230991  0.38169161  0.32912589  1
  H+  H154  1  0.38631790  0.47387964  0.85011257  1
  H+  H155  1  0.42262301  0.13059420  0.35456243  1
  H+  H156  1  0.35644018  0.14692511  0.81832052  1
  H+  H157  1  0.44597019  0.56588802  0.51751944  1
  H+  H158  1  0.67289572  0.35975234  -0.04576920  1
  H+  H159  1  0.13430612  0.78043219  0.98907435  1
  H+  H160  1  0.25146499  0.91035469  0.50923629  1
  H+  H161  1  0.15097051  0.33094038  0.11197351  1
  H+  H162  1  0.64311771  0.36240730  0.51138569  1
  H+  H163  1  0.36947428  0.64393726  0.00482188  1
  H+  H164  1  0.58621107  0.92626760  0.40756482  1
  H+  H165  1  0.97190220  0.87314270  0.99279132  1
  H+  H166  1  0.65440638  0.74301055  0.48788726  1
  H+  H167  1  0.77972484  0.40018265  0.87568064  1
  H+  H168  1  0.11718552  0.64976617  0.49988691  1
  H+  H169  1  0.10916324  0.13982413  -0.00346498  1
  H+  H170  1  0.88473910  0.41430005  -0.00092555  1
  H+  H171  1  0.88914878  0.50837327  1.00438962  1
  H+  H172  1  0.52649153  0.89311003  0.82316175  1
  H+  H173  1  0.90341692  0.63805461  0.00279800  1
  H+  H174  1  0.61999738  0.48535623  0.34486561  1
  H+  H175  1  0.61708470  -0.09850139  0.34487375  1
  H+  H176  1  0.58623439  0.24587143  0.01185835  1
  H+  H177  1  0.61584068  0.22961596  0.49436543  1
  H+  H178  1  -0.01155083  0.63189109  -0.00939547  1
  H+  H179  1  0.91540153  0.08648944  0.93583574  1
  H+  H180  1  0.03090058  0.13167337  0.36638022  1
  H+  H181  1  0.88633937  0.30016991  0.17919820  1
  H+  H182  1  0.77389345  0.14188881  0.82380631  1
  H+  H183  1  0.83566553  0.42048490  0.08264856  1
  H+  H184  1  0.42098301  0.59227963  0.93401308  1
  H+  H185  1  0.88796838  0.51566477  0.50608798  1
  H+  H186  1  0.23258449  0.61944009  0.99658824  1
  H+  H187  1  0.40421472  0.22761914  0.98456842  1
  H+  H188  1  0.88493543  0.37261045  0.33818806  1
  H+  H189  1  0.84707110  0.17167115  0.15465378  1
  H+  H190  1  0.73520943  0.62155756  -0.00910798  1
  H+  H191  1  0.48353800  0.38434557  0.33204062  1
  H+  H192  1  0.91367535  0.34099663  0.65014393  1
  H+  H193  1  0.87203338  -0.00503075  0.66067250  1
  H+  H194  1  0.34993307  0.88036674  0.68187663  1
  H+  H195  1  0.77850964  0.63503156  0.15711327  1
  H+  H196  1  0.41658081  0.32165477  -0.00108032  1
  H+  H197  1  0.56438032  0.66453563  0.49297684  1
  H+  H198  1  0.54569342  0.30427122  -0.00199560  1
  H+  H199  1  0.94462425  0.32532686  0.47061236  1
  H+  H200  1  0.81487136  0.33327966  0.68946502  1
  H+  H201  1  0.82915456  0.40856011  0.43969267  1
  H+  H202  1  0.83381021  0.37028083  0.66695063  1
  H+  H203  1  0.63201597  0.03824511  0.32822385  1
  H+  H204  1  0.58964319  0.67334039  0.77085061  1
  H+  H205  1  0.60692404  0.98642036  0.50253318  1
  H+  H206  1  0.38132250  0.34129888  0.50517924  1
  H+  H207  1  0.64267663  0.01909907  0.66092282  1
  H+  H208  1  0.73128625  0.85806185  0.66540621  1
  H+  H209  1  0.63377317  0.76208740  0.83603338  1
  H+  H210  1  0.11130200  0.96390505  0.49958710  1
  H+  H211  1  0.39769079  0.11382679  0.51699566  1
  H+  H212  1  0.15113540  0.09980639  0.50494498  1
  H+  H213  1  0.89249540  0.38857707  0.17904864  1
  H+  H214  1  0.88689018  0.86035445  0.50608289  1
  H+  H215  1  0.14202294  0.62868434  0.33087020  1
  H+  H216  1  0.27369206  0.64697390  0.15793509  1
  H+  H217  1  0.36016550  0.64308511  0.49240122  1
  H+  H218  1  0.36630533  0.01370084  0.66581797  1
  H+  H219  1  0.36759412  0.73198452  0.68278266  1
  H+  H220  1  0.63274822  0.03901544  0.83442867  1
  H+  H221  1  0.14343154  0.28005218  1.00311671  1
  H+  H222  1  0.81194646  0.89297577  0.08606319  1
  H+  H223  1  0.01330832  0.88133668  0.49715433  1
  H+  H224  1  0.48206410  0.86431597  0.52138867  1
  H+  H225  1  0.88494231  0.84424690  0.16838051  1
  H+  H226  1  0.13133416  0.77678793  0.84148492  1
  H+  H227  1  0.60236928  0.14667774  0.16438862  1
  H+  H228  1  0.69926210  0.34858348  0.67229419  1
  H+  H229  1  0.63454267  0.77807422  0.98846942  1
  H+  H230  1  0.14815430  0.87143403  0.33525083  1
  H+  H231  1  0.86275079  0.73228455  0.67112919  1
  H+  H232  1  0.61769349  0.89880684  0.82676708  1
  H+  H233  1  0.61026603  0.73039781  0.15833651  1
  H+  H234  1  0.40297920  0.04217132  0.20891401  1
  H+  H235  1  0.12118335  0.88832914  0.16431888  1
  H+  H236  1  0.11158184  0.40032879  0.16608416  1
  H+  H237  1  0.38769944  0.86092683  0.83334343  1
  H+  H238  1  0.30207131  0.31872274  0.11139996  1
  H+  H239  1  0.12049171  0.73566322  0.34357782  1
  H+  H240  1  0.34992817  0.13020779  0.67181960  1
  H+  H241  1  -0.02564037  0.60927316  0.32660808  1
  H+  H242  1  0.50211846  0.11363831  0.69080689  1
  H+  H243  1  0.64931060  0.62561376  0.32371092  1
  H+  H244  1  1.04760501  0.12258647  0.15507627  1
  H+  H245  1  0.62741285  0.58165297  0.84244058  1
  H+  H246  1  0.52236929  0.36106931  0.82666556  1
  H+  H247  1  0.36920263  0.73289204  0.00236503  1
  H+  H248  1  0.64237891  0.02560168  0.98309146  1
  H+  H249  1  0.61810902  -0.01301706  0.15355283  1
  H+  H250  1  0.01883337  0.39427319  0.82953677  1
  H+  H251  1  0.11518653  0.50595261  0.33908205  1
  H+  H252  1  0.71317989  0.37102465  0.14923267  1
  H+  H253  1  0.73456601  0.61921267  0.32629170  1
  H+  H254  1  0.63779700  0.60843505  0.66739962  1
  H+  H255  1  0.63811027  0.36714341  0.33875374  1
  H+  H256  1  0.76929406  0.42135541  0.96535570  1
  H+  H257  1  0.37685676  0.35604440  0.65636761  1
  H+  H258  1  0.10667252  0.63027848  0.67344064  1
  H+  H259  1  0.21636180  0.10361060  0.65736861  1
  H+  H260  1  -0.02490325  0.11877219  -0.00486341  1
  H+  H261  1  0.34760835  0.43594300  0.49737752  1
  H+  H262  1  0.92145156  0.33845451  0.93201459  1
  H+  H263  1  0.87053579  0.10470368  0.50366537  1
  H+  H264  1  0.12685642  0.03248581  0.98753945  1
  H+  H265  1  0.81702679  0.15885767  0.43038440  1
  H+  H266  1  0.09137104  0.84349564  0.52201715  1
  H+  H267  1  0.13220305  1.00548328  0.18635907  1
  H+  H268  1  0.41924686  0.10936717  0.88576273  1
  H+  H269  1  0.40441409  0.28312166  0.18424150  1
  H+  H270  1  0.25603458  0.89248197  0.18418505  1
  H+  H271  1  0.36364018  0.02801754  0.97390174  1
  H+  H272  1  0.72468011  0.86708424  0.98561377  1
  H+  H273  1  0.84368884  0.21163255  0.49192893  1
  H+  H274  1  -0.02898987  0.10547042  0.83632616  1
  H+  H275  1  0.64053800  0.88525943  0.16327126  1
  H+  H276  1  0.76529686  0.37961497  0.34969858  1
  H+  H277  1  0.74859874  0.87970830  0.49241449  1
  H+  H278  1  0.25276148  0.37443498  0.33795697  1
  H+  H279  1  0.39316858  1.04797143  0.82883665  1
  H+  H280  1  0.66458390  0.84876773  0.45444581  1
  H+  H281  1  0.88703594  0.52798166  0.85102968  1
  H+  H282  1  0.38660012  0.90317354  0.17534748  1
  H+  H283  1  0.86392137  0.64165206  0.66726468  1
  H+  H284  1  0.39130430  0.77860430  0.51630709  1
  H+  H285  1  0.88931801  0.12165229  0.34408140  1
  H+  H286  1  0.64931013  0.62401724  0.99145752  1
  H+  H287  1  0.38961407  0.77258627  0.83378499  1
  H+  H288  1  0.38990976  0.77497656  0.33656026  1
  H+  H289  1  0.88923019  0.51324787  0.65095505  1
  H+  H290  1  0.34860576  0.15822030  0.41233011  1
  H+  H291  1  0.64494296  0.79144444  0.31705017  1
  H+  H292  1  0.67065939  0.58835106  0.23136241  1
  H+  H293  1  0.41481892  0.83621733  0.61393718  1
  H+  H294  1  0.08582297  0.92474253  0.06520183  1
  H+  H295  1  0.08479559  0.42256758  0.77383022  1
  H+  H296  1  0.08630326  0.67429337  0.40171552  1
  H+  H297  1  0.66631234  0.83006484  0.89905050  1
  H+  H298  1  0.86409794  0.23624991  -0.00132185  1
  H+  H299  1  0.07616739  0.15477546  0.72017397  1
  H+  H300  1  0.09025187  0.16525849  0.06176960  1
  H+  H301  1  0.60344883  0.68654627  0.39298823  1
  H+  H302  1  0.90976522  0.83294111  0.89990980  1
  H+  H303  1  0.94759290  0.73767191  0.05327090  1
  H+  H304  1  0.06490161  0.27371177  0.88837332  1
  H+  H305  1  0.33275686  0.67275518  0.09732990  1
  H+  H306  1  0.41679408  0.32714234  0.56909374  1
  H+  H307  1  0.52840286  0.89923348  0.99745485  1
  H+  H308  1  0.67380638  0.57922891  0.57596006  1
  H+  H309  1  0.35851590  0.42597276  0.05712273  1
  H+  H310  1  0.44409796  0.10966969  0.26371034  1
  H+  H311  1  0.46746738  0.35690164  0.66302108  1
  H+  H312  1  0.91795087  0.57717298  0.56435025  1
  H+  H313  1  0.52434487  0.63576543  0.68432420  1
  H+  H314  1  0.84830335  0.68047949  0.76457828  1
  H+  H315  1  0.16733178  0.07011667  0.57071642  1
  H+  H316  1  0.58813968  0.67704881  0.06046373  1
  H+  H317  1  0.49541430  0.11644570  0.01237109  1
  H+  H318  1  0.10006836  0.16854386  0.41849307  1
  H+  H319  1  0.33738810  0.67483630  0.43173669  1
  H+  H320  1  0.90988099  0.82958348  0.61052282  1
  H+  H321  1  0.16775362  0.59618494  0.26937389  1
  H+  H322  1  0.66840167  0.83148811  0.60773746  1
  H+  H323  1  0.83435813  0.16324534  0.76593687  1
  H+  H324  1  0.42585645  0.59469626  0.25893418  1
  H+  H325  1  0.59253859  0.19332477  0.69535887  1
  H+  H326  1  0.66955899  0.08525198  0.59781276  1
  H+  H327  1  0.15292690  0.55204459  0.51095861  1
  H+  H328  1  0.12085265  0.81114318  0.59129376  1
  H+  H329  1  0.85498344  0.47106501  0.34677090  1
  H+  H330  1  0.37714615  0.93772402  0.43542181  1
  H+  H331  1  0.89702731  0.05712942  0.60102437  1
  H+  H332  1  0.91011769  0.57241207  0.26972221  1
  H+  H333  1  0.38217015  0.62076555  0.16660716  1
  H+  H334  1  0.82671857  0.90111623  0.73156151  1
  H+  H335  1  0.15328797  0.08779650  0.92629770  1
  H+  H336  1  0.59472961  0.92897475  0.09181374  1
  H+  H337  1  0.09387342  0.96275417  0.67213256  1
  H+  H338  1  0.73696136  0.86259780  0.83832977  1
  H+  H339  1  0.14188782  0.53099555  0.99833368  1
  H+  H340  1  0.91873327  0.59773988  0.90305899  1
  H+  H341  1  0.17651091  0.59176949  0.60823684  1
  H+  H342  1  0.13475384  0.38004743  0.69963815  1
  H+  H343  1  0.61139038  0.34066018  0.66094556  1
  H+  H344  1  0.65786677  0.08889781  0.22947564  1
  H+  H345  1  0.16874704  0.34303446  0.94795104  1
  H+  H346  1  0.58905987  0.42570073  0.40493687  1
  H+  H347  1  0.08179234  0.42626196  0.07002680  1
  H+  H348  1  0.41224653  0.57355724  0.62124799  1
  H+  H349  1  0.11540406  0.85771750  0.67118644  1
  H+  H350  1  0.32992128  0.92517670  0.03501324  1
  H+  H351  1  0.57153418  0.39932570  0.73786387  1
  H+  H352  1  0.08490599  0.67125713  0.06330551  1
  H+  H353  1  0.71076227  0.44279993  0.75309698  1
  H+  H354  1  0.42912736  0.35078510  0.24190923  1
  H+  H355  1  0.61551855  0.89512448  -0.00355128  1
  H+  H356  1  0.42467802  0.83635818  0.92517275  1
  H+  H357  1  0.55064436  0.15323638  0.40430900  1
  H+  H358  1  0.31360908  0.39344512  0.43137213  1
  H+  H359  1  0.38705129  0.98641835  0.34446603  1
  H+  H360  1  0.17363912  0.58961374  0.90347877  1
  H+  H361  1  0.15184565  0.30721992  0.26999549  1
  H+  H362  1  0.94493426  0.10985677  0.29523161  1
  H+  H363  1  0.16434713  0.06929437  0.25360205  1
  H+  H364  1  0.09166623  0.16465711  0.54500321  1
  H+  H365  1  0.43243656  0.31727581  0.89796631  1
  H+  H366  1  0.79949611  0.41289480  0.80362245  1
  H+  H367  1  0.41157515  0.07769047  0.60954161  1
  H+  H368  1  0.94223961  0.31586889  0.59041707  1
  H+  H369  1  0.31877502  0.16928406  0.76041603  1
  H+  H370  1  0.85365106  0.96835849  0.83168384  1
  H+  H371  1  0.09765606  0.71438734  0.67560989  1
  H+  H372  1  0.31730506  0.91132941  0.73789634  1
  H+  H373  1  0.37783484  0.96899365  0.13101274  1
  H+  H374  1  0.84524690  0.92056335  0.42994872  1
  H+  H375  1  0.67157180  0.09183784  0.91895075  1
  H+  H376  1  0.15520463  0.83809804  0.92770682  1
  H+  H377  1  0.54947253  0.14556202  0.07343280  1
  H+  H378  1  0.14949442  0.10681793  0.18381038  1
  H+  H379  1  0.62624737  0.12240007  0.32483167  1
  H+  H380  1  0.91761537  0.82756774  0.26877050  1
  H+  H381  1  0.18320219  0.84765817  0.27582701  1
  H+  H382  1  0.85355888  0.67449851  0.10044261  1
  H+  H383  1  0.91714234  0.05622028  0.20214563  1
  O2-  O384  1  0.11000887  0.15707959  0.14695593  1
  O2-  O385  1  0.07973116  0.17997465  0.50494070  1
  O2-  O386  1  0.07358228  0.15806568  0.80360911  1
  O2-  O387  1  0.08414122  0.43355787  0.15330338  1
  O2-  O388  1  0.09894666  0.44992367  0.47858252  1
  O2-  O389  1  0.08159385  0.42300783  0.81854854  1
  O2-  O390  1  0.06019421  0.65754105  0.14621367  1
  O2-  O391  1  0.08073545  0.67173207  0.48172434  1
  O2-  O392  1  0.08832529  0.68078223  0.82585407  1
  O2-  O393  1  0.08823259  0.91710179  0.15287121  1
  O2-  O394  1  0.07535401  0.90407918  0.48341315  1
  O2-  O395  1  0.07583895  0.91714380  0.81193403  1
  O2-  O396  1  0.35463644  0.18324163  0.15869906  1
  O2-  O397  1  0.34339864  0.15889612  0.48791882  1
  O2-  O398  1  0.31896356  0.17048442  0.80591845  1
  O2-  O399  1  0.32317083  0.37151264  0.13514624  1
  O2-  O400  1  0.30900592  0.38130234  0.47617883  1
  O2-  O401  1  0.36999328  0.50974435  0.82638476  1
  O2-  O402  1  0.33386096  0.67292190  0.14314097  1
  O2-  O403  1  0.33680205  0.67810287  0.47718647  1
  O2-  O404  1  0.33689029  0.66964825  0.81753213  1
  O2-  O405  1  0.36107515  0.94355283  0.17135854  1
  O2-  O406  1  0.41263421  0.95851798  0.47213195  1
  O2-  O407  1  0.32767885  0.92117062  0.83487400  1
  O2-  O408  1  0.57189836  0.17739286  0.15212476  1
  O2-  O409  1  0.58237716  0.16846432  0.48029873  1
  O2-  O410  1  0.60068013  0.19728634  0.81506172  1
  O2-  O411  1  0.58195648  0.42526066  0.14621394  1
  O2-  O412  1  0.58983366  0.41439221  0.48399363  1
  O2-  O413  1  0.58421954  0.38671661  0.81089860  1
  O2-  O414  1  0.58413852  0.67133696  0.14300619  1
  O2-  O415  1  0.62000863  0.68126655  0.47490206  1
  O2-  O416  1  0.58948174  0.67810447  0.81674984  1
  O2-  O417  1  0.59679118  0.92705453  0.13744278  1
  O2-  O418  1  0.58276776  0.92565943  0.48722221  1
  O2-  O419  1  0.58852032  0.92878803  0.81075701  1
  O2-  O420  1  0.81873322  0.19987346  0.13569638  1
  O2-  O421  1  0.81329516  0.15231308  0.47575140  1
  O2-  O422  1  0.83497067  0.16758111  0.81097234  1
  O2-  O423  1  0.81744898  0.39421429  0.12622618  1
  O2-  O424  1  0.83461945  0.40693601  0.48515475  1
  O2-  O425  1  0.82573595  0.41427802  0.84328714  1
  O2-  O426  1  0.84085175  0.66128393  0.14885698  1
  O2-  O427  1  0.83907576  0.66492576  0.48059902  1
  O2-  O428  1  0.85384118  0.68773850  0.80933166  1
  O2-  O429  1  0.81040173  0.88858505  0.13266324  1
  O2-  O430  1  0.84424860  0.92082156  0.47539664  1
  O2-  O431  1  0.82137279  0.90662806  0.81885879  1
  O2-  O432  1  0.16488298  0.06619269  0.20523438  1
  O2-  O433  1  0.17471054  0.06710030  0.52403649  1
  O2-  O434  1  0.15773824  0.08461755  0.84781336  1
  O2-  O435  1  0.16243018  0.32973929  0.15540093  1
  O2-  O436  1  0.16173996  0.35254111  0.51624006  1
  O2-  O437  1  0.12261010  0.31286895  0.87336956  1
  O2-  O438  1  0.16762320  0.59891591  0.19318254  1
  O2-  O439  1  0.17847432  0.60990952  0.52981050  1
  O2-  O440  1  0.17544293  0.59150516  0.85811702  1
  O2-  O441  1  0.19325873  0.85348073  0.19420861  1
  O2-  O442  1  0.09128084  0.79529159  0.54782019  1
  O2-  O443  1  0.16183098  0.84051234  0.85438669  1
  O2-  O444  1  0.42913624  0.10392366  0.21939656  1
  O2-  O445  1  0.43269097  0.08980024  0.53450177  1
  O2-  O446  1  0.42422219  0.10891109  0.84062789  1
  O2-  O447  1  0.43014213  0.34589857  0.19517667  1
  O2-  O448  1  0.42126723  0.32471308  0.52308301  1
  O2-  O449  1  0.43012996  0.33152450  0.85452260  1
  O2-  O450  1  0.41500841  0.59208992  0.18229313  1
  O2-  O451  1  0.41669535  0.51936627  0.54664098  1
  O2-  O452  1  0.42222234  0.59506319  0.85477098  1
  O2-  O453  1  0.42331009  0.84266415  0.18190129  1
  O2-  O454  1  0.42192179  0.83487834  0.53700520  1
  O2-  O455  1  0.42285748  0.83524252  0.84595821  1
  O2-  O456  1  0.65451888  0.08541682  0.18410843  1
  O2-  O457  1  0.65620672  0.08683526  0.52766516  1
  O2-  O458  1  0.66645741  0.09794763  0.85172912  1
  O2-  O459  1  0.65575392  0.34661976  0.16837680  1
  O2-  O460  1  0.67267845  0.33106944  0.52601875  1
  O2-  O461  1  0.62190429  0.26296672  0.86207982  1
  O2-  O462  1  0.66859475  0.58560982  0.18578363  1
  O2-  O463  1  0.67766370  0.57757216  0.53009123  1
  O2-  O464  1  0.64920396  0.54525556  0.85773209  1
  O2-  O465  1  0.67035295  0.85156912  0.18216700  1
  O2-  O466  1  0.68262921  0.84746246  0.49617785  1
  O2-  O467  1  0.66916389  0.82919240  0.85227769  1
  O2-  O468  1  0.93360476  0.05379930  0.16025541  1
  O2-  O469  1  0.90452421  0.07855230  0.51906446  1
  O2-  O470  1  0.91223243  0.07741290  0.85518895  1
  O2-  O471  1  0.92001473  0.35787819  0.19772516  1
  O2-  O472  1  0.91796936  0.32660785  0.50897603  1
  O2-  O473  1  0.91650755  0.33626566  0.85478754  1
  O2-  O474  1  0.90098306  0.56460570  0.18895951  1
  O2-  O475  1  0.91983281  0.57731822  0.51854882  1
  O2-  O476  1  0.91932944  0.59123478  0.85797190  1
  O2-  O477  1  0.91978754  0.82244721  0.18747225  1
  O2-  O478  1  0.91765571  0.83143100  0.52200568  1
  O2-  O479  1  0.91076713  0.83802182  0.85478701  1
  O2-  O480  1  0.16998744  0.07408133  0.31932966  1
  O2-  O481  1  0.15682435  0.07066781  0.63958466  1
  O2-  O482  1  0.14923649  0.09109453  0.97133436  1
  O2-  O483  1  0.15587005  0.31545394  0.31387864  1
  O2-  O484  1  0.18507794  0.36706310  0.58165244  1
  O2-  O485  1  0.17486440  0.34322024  0.99302552  1
  O2-  O486  1  0.16983407  0.59484990  0.31537777  1
  O2-  O487  1  0.17601277  0.58702313  0.65342054  1
  O2-  O488  1  0.17149107  0.59098607  0.98253903  1
  O2-  O489  1  0.18300855  0.84532478  0.32096487  1
  O2-  O490  1  0.14548783  0.82642441  0.65396327  1
  O2-  O491  1  0.16058156  0.84069725  0.97381556  1
  O2-  O492  1  0.45842440  0.10140462  0.33949664  1
  O2-  O493  1  0.39927385  0.07517220  0.65420420  1
  O2-  O494  1  0.40066969  0.09035351  0.96531166  1
  O2-  O495  1  0.42689276  0.35923180  0.31089982  1
  O2-  O496  1  0.40986472  0.32743727  0.64264304  1
  O2-  O497  1  0.43938356  0.29225944  0.97477476  1
  O2-  O498  1  0.43123543  0.59274179  0.30448730  1
  O2-  O499  1  0.41712364  0.58213676  0.66540540  1
  O2-  O500  1  0.42327892  0.59402966  0.97928930  1
  O2-  O501  1  0.42307790  0.83831185  0.32571935  1
  O2-  O502  1  0.41403008  0.83756153  0.65948534  1
  O2-  O503  1  0.42440020  0.84047484  0.97060824  1
  O2-  O504  1  0.66081688  0.09663459  0.31046950  1
  O2-  O505  1  0.67857203  0.08068040  0.64361698  1
  O2-  O506  1  0.67648389  0.08671399  0.96620819  1
  O2-  O507  1  0.66714508  0.33361416  0.32960478  1
  O2-  O508  1  0.64670574  0.31456903  0.64839840  1
  O2-  O509  1  0.72657272  0.40281025  0.93254108  1
  O2-  O510  1  0.67443242  0.59055759  0.30984453  1
  O2-  O511  1  0.66604001  0.57678369  0.65172111  1
  O2-  O512  1  0.67491423  0.58892563  0.97926264  1
  O2-  O513  1  0.67390946  0.85223513  0.30160313  1
  O2-  O514  1  0.66775337  0.83274708  0.65205051  1
  O2-  O515  1  0.66389604  0.83825248  0.97029395  1
  O2-  O516  1  0.92417233  0.09278512  0.33665718  1
  O2-  O517  1  0.89955022  0.05711749  0.64600959  1
  O2-  O518  1  0.91360440  0.08853130  0.98134294  1
  O2-  O519  1  0.92355732  0.34971407  0.32249260  1
  O2-  O520  1  0.94585980  0.31374053  0.63524385  1
  O2-  O521  1  0.91978018  0.33803956  0.97775863  1
  O2-  O522  1  0.91292771  0.57612623  0.31502352  1
  O2-  O523  1  0.91307843  0.57358424  0.64048689  1
  O2-  O524  1  0.92620924  0.60285001  0.98058174  1
  O2-  O525  1  0.91756691  0.83205576  0.31398759  1
  O2-  O526  1  0.90753254  0.82732655  0.65516941  1
  O2-  O527  1  0.91045931  0.83826255  0.98045308  1
  O2-  O528  1  0.08246411  0.17285191  0.01838104  1
  O2-  O529  1  0.09364225  0.16044111  0.37408013  1
  O2-  O530  1  0.07327807  0.14873167  0.67522136  1
  O2-  O531  1  0.08430261  0.42345165  0.02506299  1
  O2-  O532  1  0.08008519  0.44428186  0.35845704  1
  O2-  O533  1  0.10426013  0.41047779  0.68894050  1
  O2-  O534  1  0.09306553  0.67840390  0.01885538  1
  O2-  O535  1  0.08907741  0.67402182  0.35628530  1
  O2-  O536  1  0.06591987  0.65124532  0.67980099  1
  O2-  O537  1  0.07996073  0.92392489  0.02062411  1
  O2-  O538  1  0.08320075  0.91183873  0.35931815  1
  O2-  O539  1  0.06389117  0.90404390  0.68970883  1
  O2-  O540  1  0.35929705  0.12845101  0.00115410  1
  O2-  O541  1  0.35780387  0.15664659  0.36747139  1
  O2-  O542  1  0.31760663  0.16059232  0.68294628  1
  O2-  O543  1  0.35422142  0.42985057  0.01280084  1
  O2-  O544  1  0.31176766  0.41326550  0.35648024  1
  O2-  O545  1  0.31418691  0.39872943  0.67121998  1
  O2-  O546  1  0.33872479  0.67405966  0.02013802  1
  O2-  O547  1  0.33717423  0.67119982  0.35318503  1
  O2-  O548  1  0.33855859  0.67070715  0.69660666  1
  O2-  O549  1  0.32485500  0.91677410  -0.00882547  1
  O2-  O550  1  0.35197876  0.92360701  0.35224564  1
  O2-  O551  1  0.31355870  0.90583016  0.69359682  1
  O2-  O552  1  0.55286664  0.13586173  0.02957448  1
  O2-  O553  1  0.54940759  0.15511200  0.35817954  1
  O2-  O554  1  0.55908614  0.13388266  0.70947793  1
  O2-  O555  1  0.60002415  0.30659750  0.00897116  1
  O2-  O556  1  0.58661305  0.42516441  0.35957175  1
  O2-  O557  1  0.56941040  0.40392630  0.69196387  1
  O2-  O558  1  0.59015650  0.68093775  0.01544894  1
  O2-  O559  1  0.60077172  0.69093337  0.34809889  1
  O2-  O560  1  0.58652271  0.66569947  0.69621843  1
  O2-  O561  1  0.58982306  0.92985987  0.01201338  1
  O2-  O562  1  0.58245239  0.92566615  0.36191584  1
  O2-  O563  1  0.59257002  0.92682522  0.68746858  1
  O2-  O564  1  0.83019959  0.17533515  0.01520146  1
  O2-  O565  1  0.83303266  0.17493765  0.35294462  1
  O2-  O566  1  0.83361484  0.14902751  0.68378593  1
  O2-  O567  1  0.85819017  0.44563332  0.01778226  1
  O2-  O568  1  0.82845634  0.41137192  0.36310600  1
  O2-  O569  1  0.76051063  0.44290500  0.73495168  1
  O2-  O570  1  0.88743666  0.70283264  0.04134613  1
  O2-  O571  1  0.83643302  0.66739089  0.35623308  1
  O2-  O572  1  0.83164506  0.66757304  0.68449645  1
  O2-  O573  1  0.82584891  0.91424555  0.01504090  1
  O2-  O574  1  0.83332381  0.91481427  0.35112793  1
  O2-  O575  1  0.82564280  0.89841590  0.68677514  1
