# generated using pymatgen
data_H2O
_symmetry_space_group_name_H-M   'P 1'
_cell_length_a   17.98349536
_cell_length_b   17.98101215
_cell_length_c   21.99806019
_cell_angle_alpha   89.97672499
_cell_angle_beta   90.01162620
_cell_angle_gamma   119.96745294
_symmetry_Int_Tables_number   1
_chemical_formula_structural   H2O
_chemical_formula_sum   'H384 O192'
_cell_volume   6162.33868715
_cell_formula_units_Z   192
loop_
 _symmetry_equiv_pos_site_id
 _symmetry_equiv_pos_as_xyz
  1  'x, y, z'
loop_
 _atom_type_symbol
 _atom_type_oxidation_number
  H+  1.0
  O2-  -2.0
loop_
 _atom_site_type_symbol
 _atom_site_label
 _atom_site_symmetry_multiplicity
 _atom_site_fract_x
 _atom_site_fract_y
 _atom_site_fract_z
 _atom_site_occupancy
  H+  H0  1  0.61576725  0.60448326  0.34338877  1
  H+  H1  1  0.35498469  0.37984851  0.33976798  1
  H+  H2  1  0.00239582  0.63807835  0.50285468  1
  H+  H3  1  0.71297158  0.77859228  0.29991200  1
  H+  H4  1  0.90423236  0.75903361  0.85323403  1
  H+  H5  1  0.65211083  0.37197338  0.82099916  1
  H+  H6  1  0.13687304  0.25241663  0.00817379  1
  H+  H7  1  0.61319706  0.63116441  1.00213620  1
  H+  H8  1  0.71906601  0.87030715  0.17107643  1
  H+  H9  1  0.58963920  0.56683390  0.36391446  1
  H+  H10  1  0.52749549  0.14426791  0.15831399  1
  H+  H11  1  0.88184860  0.52454672  0.65239528  1
  H+  H12  1  0.07277474  0.81098497  0.14811197  1
  H+  H13  1  0.12104982  0.26147560  0.15887378  1
  H+  H14  1  0.39104735  0.61384693  0.50974702  1
  H+  H15  1  0.88139096  0.54978112  0.82837637  1
  H+  H16  1  0.21736460  0.61888065  0.84262548  1
  H+  H17  1  0.73768034  0.83993698  0.49220184  1
  H+  H18  1  0.12346470  0.38678892  0.48651470  1
  H+  H19  1  0.54802946  0.39205994  0.41767708  1
  H+  H20  1  0.60914384  0.62826190  0.49304401  1
  H+  H21  1  0.88185112  0.12261704  0.17550543  1
  H+  H22  1  0.40956572  0.37404559  0.83346815  1
  H+  H23  1  0.22910462  0.60213070  0.50394464  1
  H+  H24  1  0.76226510  0.93187811  0.34844422  1
  H+  H25  1  0.63871786  0.49482996  0.31059791  1
  H+  H26  1  0.73256597  0.10807251  0.82544364  1
  H+  H27  1  0.54248893  0.30857392  0.39120569  1
  H+  H28  1  0.87644054  0.17896732  0.47382934  1
  H+  H29  1  0.09646155  0.65927394  0.11501166  1
  H+  H30  1  0.88947565  0.73036420  0.69411460  1
  H+  H31  1  0.84006009  0.13793912  0.66416305  1
  H+  H32  1  0.14378939  0.14499236  0.49139630  1
  H+  H33  1  0.87684322  0.37389860  0.51777572  1
  H+  H34  1  0.20397817  0.35168656  0.17350665  1
  H+  H35  1  0.15317483  0.13940503  0.17595449  1
  H+  H36  1  0.58485504  0.90557040  0.76604856  1
  H+  H37  1  0.10439530  0.64292457  0.82197313  1
  H+  H38  1  0.98189295  0.12227337  0.69366413  1
  H+  H39  1  0.14240762  0.27598768  0.65546769  1
  H+  H40  1  0.89585891  0.61972450  0.66396525  1
  H+  H41  1  0.89328258  0.05776916  0.33542802  1
  H+  H42  1  0.61407086  0.47849813  0.15242910  1
  H+  H43  1  0.41318897  0.05790300  0.65925042  1
  H+  H44  1  0.03541912  0.89657641  0.67806805  1
  H+  H45  1  0.65200398  0.36964914  0.33192137  1
  H+  H46  1  0.73149309  0.57576469  0.31550005  1
  H+  H47  1  0.73546294  0.84905720  0.66499603  1
  H+  H48  1  0.35983480  0.72514439  0.15934265  1
  H+  H49  1  0.43616607  0.31073324  0.49648492  1
  H+  H50  1  0.74857306  0.61275571  0.49653120  1
  H+  H51  1  0.88315985  0.64524751  0.00594168  1
  H+  H52  1  0.08282355  0.66164118  0.72007053  1
  H+  H53  1  0.14934622  0.14264801  0.67533904  1
  H+  H54  1  0.86336348  0.22997595  0.00584138  1
  H+  H55  1  0.37516873  0.14886307  0.81433400  1
  H+  H56  1  0.98075702  0.85675972  0.84894630  1
  H+  H57  1  0.86674981  0.63851068  0.15573438  1
  H+  H58  1  0.89919643  0.97316728  0.54271382  1
  H+  H59  1  0.61462944  -0.00321219  0.15436177  1
  H+  H60  1  0.12832019  1.02050788  0.85088124  1
  H+  H61  1  0.27178555  0.14977799  0.00268284  1
  H+  H62  1  0.86619842  0.39427018  0.99874623  1
  H+  H63  1  0.38519045  0.15517245  0.65970163  1
  H+  H64  1  0.60576249  0.71715715  0.50384367  1
  H+  H65  1  0.86716593  0.97018854  0.69151643  1
  H+  H66  1  0.13288018  0.15990075  0.00499572  1
  H+  H67  1  0.64114984  0.58260478  0.56811762  1
  H+  H68  1  0.62624144  0.86115233  0.17401481  1
  H+  H69  1  0.14788966  1.00193456  0.37783952  1
  H+  H70  1  0.38266831  0.61113669  0.99744402  1
  H+  H71  1  0.09259489  0.36187577  0.14616071  1
  H+  H72  1  0.35767171  0.47350376  0.67529755  1
  H+  H73  1  0.25132127  0.12176743  0.65267184  1
  H+  H74  1  0.87569790  1.00181541  0.83572100  1
  H+  H75  1  0.17084409  0.52144968  0.21054044  1
  H+  H76  1  0.47916454  0.37368353  0.17539809  1
  H+  H77  1  0.26795212  0.13851233  0.50105351  1
  H+  H78  1  0.59360927  0.73024296  0.34156692  1
  H+  H79  1  0.12019638  0.39889041  0.82465310  1
  H+  H80  1  0.97122674  0.90754747  0.37697691  1
  H+  H81  1  0.38827007  0.37487626  0.65446706  1
  H+  H82  1  0.22942409  0.86378774  0.83706017  1
  H+  H83  1  0.63968258  0.11997092  0.17433189  1
  H+  H84  1  0.47638056  0.86135733  0.84117221  1
  H+  H85  1  0.08282318  0.15943389  0.77623088  1
  H+  H86  1  0.94953001  0.40683642  0.33375849  1
  H+  H87  1  0.08186934  0.35957266  0.67291375  1
  H+  H88  1  0.26783806  0.38519991  0.67173221  1
  H+  H89  1  0.87369388  0.48461212  0.49762193  1
  H+  H90  1  0.47649235  0.60776211  0.51196003  1
  H+  H91  1  0.34922396  0.38504919  0.18094567  1
  H+  H92  1  0.63386301  0.36767343  0.17133294  1
  H+  H93  1  0.28528772  0.13796921  0.34900312  1
  H+  H94  1  0.64699802  0.02026954  0.97844715  1
  H+  H95  1  0.39406355  0.28373545  0.17206356  1
  H+  H96  1  0.88326553  0.52747447  0.17217098  1
  H+  H97  1  0.22840180  0.60490519  0.65696170  1
  H+  H98  1  0.99179562  0.62114121  0.98137325  1
  H+  H99  1  0.92781100  0.11751481  0.27779872  1
  H+  H100  1  0.36337722  0.98085423  0.53483758  1
  H+  H101  1  0.46272750  0.90713412  0.32093118  1
  H+  H102  1  0.52950207  0.42174483  0.67146150  1
  H+  H103  1  0.86886911  0.19505413  0.34074279  1
  H+  H104  1  0.37933824  0.60384640  0.66968280  1
  H+  H105  1  0.33738527  0.59703637  0.34066557  1
  H+  H106  1  0.10841224  0.46370370  0.48264985  1
  H+  H107  1  0.62702002  0.23845173  0.33449799  1
  H+  H108  1  0.19100506  0.04952137  0.48092813  1
  H+  H109  1  0.36898506  0.22887913  0.34027648  1
  H+  H110  1  0.36334546  0.97661508  0.82630525  1
  H+  H111  1  0.22084743  0.85047749  0.53701118  1
  H+  H112  1  0.14760171  0.38110967  -0.01157661  1
  H+  H113  1  0.26198544  0.82274432  0.32503151  1
  H+  H114  1  0.72244230  0.10462713  0.66048644  1
  H+  H115  1  0.39469023  0.86978124  0.52395499  1
  H+  H116  1  0.76426071  0.60292401  0.84850221  1
  H+  H117  1  0.63701705  0.85343899  0.83421025  1
  H+  H118  1  0.47502171  0.10982878  0.50697844  1
  H+  H119  1  0.59613878  0.71220086  0.81248820  1
  H+  H120  1  0.47439161  0.85819559  0.16604513  1
  H+  H121  1  0.52707584  0.05696097  0.76771872  1
  H+  H122  1  0.52305487  0.63459994  0.14354118  1
  H+  H123  1  0.72617953  0.85648302  0.98859185  1
  H+  H124  1  0.64180990  0.61486669  0.16976279  1
  H+  H125  1  0.77468498  0.14149673  0.00025037  1
  H+  H126  1  0.51957460  0.16308759  0.66418202  1
  H+  H127  1  0.36312876  0.89299037  0.16151284  1
  H+  H128  1  0.46643058  0.35137153  0.33344380  1
  H+  H129  1  0.37289209  0.72969672  0.48909398  1
  H+  H130  1  0.84817088  0.22457387  0.15566752  1
  H+  H131  1  0.61933492  0.14572178  0.33319829  1
  H+  H132  1  0.87410915  0.10318270  0.98846498  1
  H+  H133  1  0.85853415  0.63846905  0.34168314  1
  H+  H134  1  0.88122800  0.85457085  0.99807292  1
  H+  H135  1  0.99896252  0.82738776  0.13243420  1
  H+  H136  1  0.16030023  0.80934420  0.63468639  1
  H+  H137  1  0.61733860  0.07364503  0.65811020  1
  H+  H138  1  0.61137208  0.27004606  0.50184513  1
  H+  H139  1  0.62142733  0.86790382  0.67696469  1
  H+  H140  1  0.31132481  0.66775515  0.33239572  1
  H+  H141  1  0.76402600  0.40363145  0.66481749  1
  H+  H142  1  0.45230935  0.81488114  0.32660897  1
  H+  H143  1  0.97050951  0.26151593  0.87778118  1
  H+  H144  1  0.13810380  0.77686144  0.83453926  1
  H+  H145  1  0.60914995  0.13188592  0.48859016  1
  H+  H146  1  0.59771417  0.51283658  0.51175559  1
  H+  H147  1  0.38372486  0.93790643  0.37983221  1
  H+  H148  1  0.28343306  0.88715459  0.67850457  1
  H+  H149  1  0.67723416  0.34784452  0.26691026  1
  H+  H150  1  0.84778080  0.89233814  0.16021494  1
  H+  H151  1  0.77088730  0.62928511  0.14903290  1
  H+  H152  1  0.35378835  0.63428294  0.83693183  1
  H+  H153  1  0.96834526  0.18155901  0.40486469  1
  H+  H154  1  0.13858485  0.60013964  0.65408389  1
  H+  H155  1  0.61910977  0.88075694  -0.00491418  1
  H+  H156  1  0.90652437  0.10773382  0.73648120  1
  H+  H157  1  -0.00843461  0.34443034  0.84121125  1
  H+  H158  1  0.86727902  0.77446549  0.16407177  1
  H+  H159  1  0.08421326  0.94302654  0.53452514  1
  H+  H160  1  0.69604517  0.42381419  -0.05574323  1
  H+  H161  1  0.63711425  0.76680214  0.98874396  1
  H+  H162  1  0.87299341  0.73406107  0.00875991  1
  H+  H163  1  0.11283541  0.62004456  0.17445498  1
  H+  H164  1  0.13807382  0.71689203  -0.00632107  1
  H+  H165  1  0.36733290  0.72320363  0.68083379  1
  H+  H166  1  0.34471210  0.46634891  0.15966827  1
  H+  H167  1  0.12500325  0.10743303  0.85134919  1
  H+  H168  1  0.92550408  0.60567652  0.92663599  1
  H+  H169  1  0.76917423  0.86309566  0.82941969  1
  H+  H170  1  0.12280356  0.96140513  0.14129374  1
  H+  H171  1  0.62727004  0.31279386  0.65947552  1
  H+  H172  1  0.26941326  0.84801384  0.29624894  1
  H+  H173  1  0.28824044  0.16100871  0.15626942  1
  H+  H174  1  0.35295167  0.72929314  0.00465597  1
  H+  H175  1  -0.02592039  0.61371934  0.17810731  1
  H+  H176  1  0.97544692  0.37050351  0.99063294  1
  H+  H177  1  0.39238224  0.12403124  0.16179676  1
  H+  H178  1  0.78699190  0.42094399  0.81776013  1
  H+  H179  1  0.46353230  0.60641531  0.83527417  1
  H+  H180  1  0.63789339  0.48335910  0.82057016  1
  H+  H181  1  0.85014320  0.25615263  0.66112398  1
  H+  H182  1  0.31608680  0.66849843  0.06275890  1
  H+  H183  1  0.63976307  0.10195558  0.82453463  1
  H+  H184  1  0.60618131  0.10902107  1.00026165  1
  H+  H185  1  0.67409961  0.08418661  0.92138813  1
  H+  H186  1  -0.01658137  0.93167983  0.34735275  1
  H+  H187  1  0.72768488  0.11580337  0.16925157  1
  H+  H188  1  0.48656808  0.85270695  0.66219609  1
  H+  H189  1  0.22253576  0.86386550  0.18255156  1
  H+  H190  1  0.63987173  0.28185104  0.17223707  1
  H+  H191  1  0.20977841  0.63906812  -0.00135124  1
  H+  H192  1  0.00863597  0.63540179  0.34987681  1
  H+  H193  1  0.97002153  0.12192486  0.17454046  1
  H+  H194  1  0.40781667  0.56734294  0.08389940  1
  H+  H195  1  0.77093922  0.16880669  0.33567521  1
  H+  H196  1  0.60934009  0.72481056  0.15710834  1
  H+  H197  1  0.38959557  0.86654750  0.84026474  1
  H+  H198  1  0.38133854  0.40224578  0.48697061  1
  H+  H199  1  0.12980032  0.84658739  0.52980106  1
  H+  H200  1  0.50757518  0.38525113  0.00644717  1
  H+  H201  1  0.36472921  0.98309209  0.15921213  1
  H+  H202  1  0.22043272  0.38350994  0.33224070  1
  H+  H203  1  0.07821753  0.50998380  0.32518575  1
  H+  H204  1  0.83756047  0.84463353  0.32154292  1
  H+  H205  1  0.39124311  0.15756456  0.49857852  1
  H+  H206  1  0.35662504  0.18623457  0.75433259  1
  H+  H207  1  0.22696133  0.36451224  0.83483862  1
  H+  H208  1  1.01014540  0.12702847  0.82818134  1
  H+  H209  1  0.05916687  0.15573853  0.48480177  1
  H+  H210  1  0.16086175  -0.02059151  0.12000286  1
  H+  H211  1  0.85412919  0.96936759  0.00079631  1
  H+  H212  1  0.86721485  0.08713445  0.82757917  1
  H+  H213  1  0.15101458  0.87427294  0.67852438  1
  H+  H214  1  0.35740341  0.47076758  0.82689057  1
  H+  H215  1  0.33061839  0.41237876  0.76682710  1
  H+  H216  1  0.91441164  0.82310533  0.93995806  1
  H+  H217  1  0.95499970  0.83401906  0.51661696  1
  H+  H218  1  0.04083945  0.07992729  0.12358203  1
  H+  H219  1  0.74750115  0.78158762  0.44522478  1
  H+  H220  1  0.36472693  0.15835378  -0.00078855  1
  H+  H221  1  1.01259234  0.26175524  0.44768754  1
  H+  H222  1  0.11774125  0.88517106  0.00062713  1
  H+  H223  1  0.47894146  0.86222394  -0.00792718  1
  H+  H224  1  0.16260338  0.28354030  0.50725768  1
  H+  H225  1  0.49357141  0.63953263  0.35253194  1
  H+  H226  1  0.37559734  0.24094887  0.65876052  1
  H+  H227  1  0.14602835  0.03341181  0.99726421  1
  H+  H228  1  0.72601492  0.11825736  0.50644682  1
  H+  H229  1  0.60170663  0.90676094  0.33427767  1
  H+  H230  1  0.02156843  0.65437441  0.81803365  1
  H+  H231  1  0.56341993  0.78297682  0.55178608  1
  H+  H232  1  0.17646328  0.57022181  0.35021963  1
  H+  H233  1  0.27264993  0.63652606  0.16742056  1
  H+  H234  1  0.84410118  0.38628427  0.66859281  1
  H+  H235  1  0.63203257  0.51473389  0.99728203  1
  H+  H236  1  0.34091000  0.92350132  0.59312314  1
  H+  H237  1  0.66607774  1.04156435  0.32828516  1
  H+  H238  1  0.72411564  0.60064344  1.00010275  1
  H+  H239  1  0.85286903  -0.01546782  0.16308619  1
  H+  H240  1  0.11514630  0.88796562  0.83258273  1
  H+  H241  1  -0.04669014  0.34544837  0.15799033  1
  H+  H242  1  0.42750524  1.01264815  0.33180127  1
  H+  H243  1  0.40934606  0.57534070  0.61018527  1
  H+  H244  1  0.87488292  0.60821317  0.50760775  1
  H+  H245  1  0.86764221  0.27552470  0.51426042  1
  H+  H246  1  0.94559637  0.33980280  0.66530165  1
  H+  H247  1  0.62624627  0.19915682  0.66081360  1
  H+  H248  1  0.39838955  0.12429255  0.32108178  1
  H+  H249  1  0.47264887  0.10389044  0.83412616  1
  H+  H250  1  0.93261096  -0.00349494  0.51862700  1
  H+  H251  1  0.76991218  0.39669550  0.15398726  1
  H+  H252  1  0.04896138  0.15534040  0.34048299  1
  H+  H253  1  0.34020905  0.18457809  0.09277849  1
  H+  H254  1  0.87116676  0.48565974  -0.00202209  1
  H+  H255  1  0.37292378  0.88320143  0.67441709  1
  H+  H256  1  0.09590434  0.63368924  0.35417975  1
  H+  H257  1  0.03204851  0.88794619  0.00604391  1
  H+  H258  1  1.02510024  0.38371092  0.32980940  1
  H+  H259  1  0.10714287  0.72633728  0.50580125  1
  H+  H260  1  0.10100093  0.77470687  0.33935036  1
  H+  H261  1  0.62128130  -0.04243311  0.66952673  1
  H+  H262  1  0.08056443  0.44494238  0.15137688  1
  H+  H263  1  0.19214901  0.22087614  0.71922533  1
  H+  H264  1  0.87178374  0.35784899  0.16101028  1
  H+  H265  1  0.48282588  0.87373402  0.50254038  1
  H+  H266  1  0.36773975  0.43357093  0.00938090  1
  H+  H267  1  0.49265149  0.13676177  0.31432643  1
  H+  H268  1  0.73365386  0.38142411  -0.01456873  1
  H+  H269  1  0.61819274  0.96965055  0.82308345  1
  H+  H270  1  0.82862631  0.31617444  0.36480941  1
  H+  H271  1  0.86818549  0.20636468  0.80967239  1
  H+  H272  1  0.10239593  0.49224823  0.00480403  1
  H+  H273  1  0.83865694  0.70020085  0.49895830  1
  H+  H274  1  0.78300415  0.36708975  0.34449713  1
  H+  H275  1  0.23078648  0.85545500  0.99009608  1
  H+  H276  1  0.46960228  0.11472396  0.98809426  1
  H+  H277  1  0.34117681  0.91991919  0.76579062  1
  H+  H278  1  0.88112653  0.52084007  0.32497644  1
  H+  H279  1  0.38036322  0.50343066  0.33237187  1
  H+  H280  1  0.15167380  0.12318920  0.33673997  1
  H+  H281  1  0.86240275  0.82666667  0.51214009  1
  H+  H282  1  0.15218481  0.59633343  0.89789334  1
  H+  H283  1  0.08870791  0.16786681  0.08561542  1
  H+  H284  1  0.37046515  0.48482406  0.49202721  1
  H+  H285  1  0.36829144  0.89426879  1.00576471  1
  H+  H286  1  0.61852112  0.89437060  0.49866798  1
  H+  H287  1  0.47403458  0.61390298  -0.00104941  1
  H+  H288  1  0.41486785  0.08787850  0.89415939  1
  H+  H289  1  0.87185689  0.66692235  0.75100746  1
  H+  H290  1  0.41481802  0.57583624  0.89996677  1
  H+  H291  1  0.64788377  0.75018692  0.66195420  1
  H+  H292  1  0.82426722  0.16124664  0.09815063  1
  H+  H293  1  0.18344610  0.08815193  0.28257084  1
  H+  H294  1  0.91320306  0.58951230  0.57056066  1
  H+  H295  1  0.81788275  0.15560683  0.74501650  1
  H+  H296  1  0.08960023  0.91797772  0.46571861  1
  H+  H297  1  0.12673026  0.98485967  0.67587576  1
  H+  H298  1  0.24501446  0.37559410  0.50856051  1
  H+  H299  1  0.66193119  0.81849995  0.89259952  1
  H+  H300  1  0.85969252  0.86347064  0.83457780  1
  H+  H301  1  0.07591351  0.41972723  0.05629328  1
  H+  H302  1  0.91455943  0.82127608  0.61277405  1
  H+  H303  1  0.37874113  1.03222324  -0.01125936  1
  H+  H304  1  0.62388336  0.56156684  0.66821495  1
  H+  H305  1  0.57417012  0.41122540  0.09784852  1
  H+  H306  1  0.68183734  0.33914165  0.87779990  1
  H+  H307  1  0.53288119  0.95701228  0.11367090  1
  H+  H308  1  0.43597428  0.36450661  0.59552004  1
  H+  H309  1  0.42183336  0.09687474  0.22303453  1
  H+  H310  1  0.41776853  0.56543166  0.27340769  1
  H+  H311  1  0.27446439  0.89430281  0.42575953  1
  H+  H312  1  0.33072920  0.66514299  0.74070580  1
  H+  H313  1  0.58798216  0.16401475  0.10118569  1
  H+  H314  1  0.06791756  0.66846115  0.43924160  1
  H+  H315  1  0.18822503  0.08688458  0.59539263  1
  H+  H316  1  0.57440972  0.15462813  0.75101046  1
  H+  H317  1  0.16969124  0.33842401  0.59774782  1
  H+  H318  1  0.54181438  0.39928532  0.81715050  1
  H+  H319  1  0.16231705  0.58190467  0.25727997  1
  H+  H320  1  0.52281787  0.05316102  0.03737717  1
  H+  H321  1  0.83347926  0.89813899  0.74190720  1
  H+  H322  1  0.84293803  0.45781157  0.75841045  1
  H+  H323  1  0.56188953  0.67863340  0.41412106  1
  H+  H324  1  0.66372778  0.07800190  0.56480384  1
  H+  H325  1  0.33374554  0.41674577  0.40074685  1
  H+  H326  1  0.43213550  0.83855184  0.22992324  1
  H+  H327  1  0.16892982  0.08938166  0.93684574  1
  H+  H328  1  0.41501170  0.28972082  0.82738266  1
  H+  H329  1  0.35656109  0.72496860  0.83596106  1
  H+  H330  1  0.16461648  0.05997657  0.18219064  1
  H+  H331  1  0.14700082  0.76893659  0.19269273  1
  H+  H332  1  0.81788553  0.19574904  0.43168300  1
  H+  H333  1  1.02134524  0.62381885  0.66334932  1
  H+  H334  1  0.67406691  0.09038035  0.26478569  1
  H+  H335  1  0.16796343  0.57082426  0.56028094  1
  H+  H336  1  0.13343520  0.84008578  0.28479594  1
  H+  H337  1  0.89095258  0.32476705  0.58544135  1
  H+  H338  1  0.59449197  0.37804045  0.00325721  1
  H+  H339  1  0.91057281  0.58169101  0.26683176  1
  H+  H340  1  0.82581143  0.91601602  0.06306916  1
  H+  H341  1  0.89480845  0.86207503  0.67043547  1
  H+  H342  1  0.33401183  0.92210494  0.06396424  1
  H+  H343  1  0.92588371  0.14207947  0.57538456  1
  H+  H344  1  0.86485323  0.81422625  0.22694020  1
  H+  H345  1  0.65137087  0.81478047  0.58647945  1
  H+  H346  1  0.17206264  0.82384405  0.93007083  1
  H+  H347  1  0.56739787  0.65001622  0.75504485  1
  H+  H348  1  0.89559516  0.06721322  0.92845063  1
  H+  H349  1  0.59778118  0.92249940  0.05260522  1
  H+  H350  1  0.13392166  0.27927872  0.83918808  1
  H+  H351  1  0.28205454  0.93929992  0.42933860  1
  H+  H352  1  0.36563626  0.18621940  0.43601917  1
  H+  H353  1  0.58053174  0.16275357  0.42878021  1
  H+  H354  1  0.05399706  0.39026502  0.73239122  1
  H+  H355  1  0.84383255  0.41373330  0.44324726  1
  H+  H356  1  0.42694941  0.82576870  0.60312513  1
  H+  H357  1  0.84331498  0.66562123  0.07583470  1
  H+  H358  1  0.08536381  0.92076011  0.77520762  1
  H+  H359  1  0.37229947  0.29144016  0.99771215  1
  H+  H360  1  0.10578716  0.48052589  0.82633763  1
  H+  H361  1  0.38209852  0.60959236  0.13642066  1
  H+  H362  1  0.82011422  0.74684759  0.32343932  1
  H+  H363  1  0.83167655  0.42819734  0.09488278  1
  H+  H364  1  0.59361122  0.44813754  0.72923514  1
  H+  H365  1  0.69012550  0.57675143  0.89890448  1
  H+  H366  1  0.88065546  0.10716294  0.56907755  1
  H+  H367  1  0.59094068  0.66663672  0.06159794  1
  H+  H368  1  0.41702349  0.83726972  0.93492610  1
  H+  H369  1  0.62346974  0.98551399  0.49283535  1
  H+  H370  1  0.13351648  0.90819093  0.37861549  1
  H+  H371  1  0.63916340  0.34297290  0.55010859  1
  H+  H372  1  0.17642554  0.34835131  0.93219323  1
  H+  H373  1  0.67614050  0.57111852  0.22066219  1
  H+  H374  1  0.11269794  0.18418002  0.39702633  1
  H+  H375  1  0.65187995  0.80177266  0.26113300  1
  H+  H376  1  0.63318572  0.93873024  0.40069720  1
  H+  H377  1  0.63943252  0.40612564  0.65336758  1
  H+  H378  1  0.91795126  0.32610842  0.93288600  1
  H+  H379  1  0.41650330  0.33469982  0.26878633  1
  H+  H380  1  0.81899454  0.92274521  0.39746133  1
  H+  H381  1  0.33651067  0.65921369  0.43458911  1
  H+  H382  1  0.43054332  0.10295947  0.57360313  1
  H+  H383  1  0.81378590  0.65109562  0.40069461  1
  O2-  O384  1  0.07222060  0.14163464  0.13129130  1
  O2-  O385  1  0.12069334  0.18196995  0.47660084  1
  O2-  O386  1  0.07284437  0.16450902  0.81970148  1
  O2-  O387  1  0.05908478  0.39108382  0.12952871  1
  O2-  O388  1  0.08420864  0.40354668  0.46775175  1
  O2-  O389  1  0.08103911  0.42054810  0.81142075  1
  O2-  O390  1  0.08690355  0.65370357  0.15910409  1
  O2-  O391  1  0.06630262  0.66797754  0.48597021  1
  O2-  O392  1  0.08219558  0.67934853  0.80467169  1
  O2-  O393  1  0.02008146  0.78815653  0.12341505  1
  O2-  O394  1  0.06549613  0.89336344  0.50795065  1
  O2-  O395  1  0.08099584  0.91563847  0.82038184  1
  O2-  O396  1  0.34630399  0.18309378  0.13827013  1
  O2-  O397  1  0.36956148  0.19549432  0.48108671  1
  O2-  O398  1  0.35885743  0.19040998  0.79927004  1
  O2-  O399  1  0.31228527  0.41142662  0.18140839  1
  O2-  O400  1  0.34331795  0.42524720  0.47417986  1
  O2-  O401  1  0.32892129  0.41019343  0.81232220  1
  O2-  O402  1  0.32580632  0.66565108  0.14272767  1
  O2-  O403  1  0.34799274  0.66802383  0.47880504  1
  O2-  O404  1  0.32294474  0.66426562  0.82201987  1
  O2-  O405  1  0.33280539  0.92189782  0.14516556  1
  O2-  O406  1  0.33519116  0.91874659  0.54839155  1
  O2-  O407  1  0.33723715  0.91594265  0.81100323  1
  O2-  O408  1  0.58964330  0.17285700  0.14576835  1
  O2-  O409  1  0.57463801  0.15741120  0.47371313  1
  O2-  O410  1  0.56047054  0.11326205  0.78663408  1
  O2-  O411  1  0.58033210  0.41586846  0.14325987  1
  O2-  O412  1  0.53059892  0.42913223  0.47666153  1
  O2-  O413  1  0.60206595  0.42688477  0.79906173  1
  O2-  O414  1  0.58728928  0.66541256  0.14175421  1
  O2-  O415  1  0.58464282  0.66568320  0.47701279  1
  O2-  O416  1  0.55445986  0.65390803  0.79816164  1
  O2-  O417  1  0.57364296  0.94173020  0.13065430  1
  O2-  O418  1  0.59538486  0.92524885  0.47539306  1
  O2-  O419  1  0.58325777  0.90779997  0.81156732  1
  O2-  O420  1  0.82150562  0.16106928  0.14363533  1
  O2-  O421  1  0.82502603  0.18652703  0.47594216  1
  O2-  O422  1  0.83033761  0.14875939  0.79202788  1
  O2-  O423  1  0.83115425  0.42858496  0.14023487  1
  O2-  O424  1  0.84602541  0.42234469  0.48778320  1
  O2-  O425  1  0.84654125  0.46502092  0.80333931  1
  O2-  O426  1  0.83286821  0.66196057  0.13438920  1
  O2-  O427  1  0.80819068  0.64203747  0.47959565  1
  O2-  O428  1  0.86989958  0.65747180  0.82958477  1
  O2-  O429  1  0.81909152  0.92532514  0.14617484  1
  O2-  O430  1  0.77956261  0.83763615  0.46490345  1
  O2-  O431  1  0.83138176  0.89436606  0.81698502  1
  O2-  O432  1  0.19027375  0.11951129  0.19599721  1
  O2-  O433  1  0.20461033  0.09668197  0.50932090  1
  O2-  O434  1  0.15715319  0.08014570  0.86677627  1
  O2-  O435  1  0.13961250  0.31958062  0.17284691  1
  O2-  O436  1  0.18482751  0.34219985  0.52402184  1
  O2-  O437  1  0.16622151  0.34105088  0.85005126  1
  O2-  O438  1  0.17550721  0.57786711  0.21245792  1
  O2-  O439  1  0.16790957  0.57145461  0.51462912  1
  O2-  O440  1  0.15476861  0.58992996  0.85351867  1
  O2-  O441  1  0.16524426  0.82950024  0.20149324  1
  O2-  O442  1  0.15742104  0.81222465  0.53998250  1
  O2-  O443  1  0.17011339  0.83546758  0.85406933  1
  O2-  O444  1  0.42139661  0.09242749  0.17748143  1
  O2-  O445  1  0.41808770  0.08880721  0.52709721  1
  O2-  O446  1  0.41311056  0.07993590  0.84916022  1
  O2-  O447  1  0.42000731  0.34075950  0.19273395  1
  O2-  O448  1  0.45158816  0.36979215  0.51026626  1
  O2-  O449  1  0.44680718  0.35006084  0.84341266  1
  O2-  O450  1  0.41342580  0.57786789  0.12822850  1
  O2-  O451  1  0.41633282  0.57903039  0.52608224  1
  O2-  O452  1  0.40538841  0.57695877  0.85599528  1
  O2-  O453  1  0.41730418  0.82986099  0.18570978  1
  O2-  O454  1  0.42555880  0.83655825  0.52112046  1
  O2-  O455  1  0.41723913  0.83503061  0.85843526  1
  O2-  O456  1  0.66676231  0.08529345  0.18707645  1
  O2-  O457  1  0.66482821  0.08261579  0.51922954  1
  O2-  O458  1  0.67384569  0.07895136  0.84459209  1
  O2-  O459  1  0.66849661  0.34205518  0.18745870  1
  O2-  O460  1  0.62444257  0.32968774  0.50691316  1
  O2-  O461  1  0.68886793  0.34706937  0.83364253  1
  O2-  O462  1  0.67479307  0.58438348  0.17638105  1
  O2-  O463  1  0.64352410  0.57445463  0.52368472  1
  O2-  O464  1  0.70075504  0.57492025  0.85529418  1
  O2-  O465  1  0.65773452  0.83221924  0.18571188  1
  O2-  O466  1  0.62447634  0.80709963  0.54275712  1
  O2-  O467  1  0.66432439  0.81941144  0.84729282  1
  O2-  O468  1  0.91296973  0.09470807  0.19419939  1
  O2-  O469  1  0.97651385  0.19869238  0.44784345  1
  O2-  O470  1  0.90245525  0.06426378  0.84615520  1
  O2-  O471  1  0.89430712  0.32025164  0.17458445  1
  O2-  O472  1  0.89738516  0.33230773  0.53654318  1
  O2-  O473  1  0.94265072  0.29191394  0.86142422  1
  O2-  O474  1  0.91262157  0.58709462  0.19008309  1
  O2-  O475  1  0.91546148  0.58966653  0.52312308  1
  O2-  O476  1  0.91515748  0.61163414  0.85015274  1
  O2-  O477  1  0.88605647  0.82978869  0.18451238  1
  O2-  O478  1  0.89403870  0.80049349  0.53045194  1
  O2-  O479  1  0.92091158  0.81981726  0.86522962  1
  O2-  O480  1  0.18208982  0.08920504  0.32727030  1
  O2-  O481  1  0.18767838  0.08692918  0.64025000  1
  O2-  O482  1  0.17480293  0.09436005  0.98326113  1
  O2-  O483  1  0.17232365  0.38564564  0.31024797  1
  O2-  O484  1  0.16259510  0.33583419  0.64341295  1
  O2-  O485  1  0.17998036  0.35224754  0.97720836  1
  O2-  O486  1  0.13093973  0.57182185  0.32642171  1
  O2-  O487  1  0.17088690  0.57230029  0.63842578  1
  O2-  O488  1  0.14864496  0.61020111  0.98262425  1
  O2-  O489  1  0.10795140  0.83018161  0.32580656  1
  O2-  O490  1  0.18390336  0.84410182  0.67147149  1
  O2-  O491  1  0.17124269  0.81617869  0.97549940  1
  O2-  O492  1  0.43190673  0.10106781  0.29963811  1
  O2-  O493  1  0.43976050  0.11508701  0.64089611  1
  O2-  O494  1  0.41030696  0.09230888  0.97305183  1
  O2-  O495  1  0.40898057  0.33037580  0.31433534  1
  O2-  O496  1  0.42724971  0.35342644  0.63959793  1
  O2-  O497  1  0.40571048  0.35467985  0.98746359  1
  O2-  O498  1  0.41181308  0.56752856  0.31735088  1
  O2-  O499  1  0.40507514  0.56936037  0.65476200  1
  O2-  O500  1  0.41067555  0.57590697  0.99417824  1
  O2-  O501  1  0.48079766  0.86665724  0.30186459  1
  O2-  O502  1  0.42564784  0.82733940  0.64825207  1
  O2-  O503  1  0.41731191  0.83670624  0.98074317  1
  O2-  O504  1  0.67688683  0.09717172  0.31006183  1
  O2-  O505  1  0.65862353  0.05941655  0.64109035  1
  O2-  O506  1  0.67197528  0.08207785  0.96709025  1
  O2-  O507  1  0.68392144  0.34496879  0.31198040  1
  O2-  O508  1  0.66300724  0.36896926  0.63913871  1
  O2-  O509  1  0.67925183  0.36920254  0.96427675  1
  O2-  O510  1  0.68971805  0.53180049  0.28677868  1
  O2-  O511  1  0.65009499  0.62056059  0.64847818  1
  O2-  O512  1  0.66621266  0.57560145  0.98271584  1
  O2-  O513  1  0.66081072  0.78507137  0.30261458  1
  O2-  O514  1  0.67415012  0.81655467  0.65169053  1
  O2-  O515  1  0.66583547  0.82684199  0.97231609  1
  O2-  O516  1  0.92832996  0.11888769  0.32311825  1
  O2-  O517  1  0.92003102  0.08703386  0.69911601  1
  O2-  O518  1  0.89297035  0.06341181  0.97331522  1
  O2-  O519  1  1.00405236  0.42156938  0.31380510  1
  O2-  O520  1  0.88555171  0.31939656  0.64794166  1
  O2-  O521  1  0.91386809  0.33613739  0.97693040  1
  O2-  O522  1  0.90947236  0.58111984  0.31274893  1
  O2-  O523  1  0.91605937  0.58587508  0.63806285  1
  O2-  O524  1  0.93050523  0.59986681  0.97205490  1
  O2-  O525  1  0.81258021  0.78985117  0.29923862  1
  O2-  O526  1  0.92933672  0.83560706  0.65615203  1
  O2-  O527  1  0.91058538  0.82177336  0.98597206  1
  O2-  O528  1  0.10675164  0.19182398  0.02383613  1
  O2-  O529  1  0.10918174  0.17728399  0.35219514  1
  O2-  O530  1  0.13673776  0.18243179  0.70032812  1
  O2-  O531  1  0.07910405  0.43015167  0.01127777  1
  O2-  O532  1  0.10152355  0.34656636  0.34513711  1
  O2-  O533  1  0.03286758  0.35945861  0.69343584  1
  O2-  O534  1  0.10680912  0.65515834  0.01080259  1
  O2-  O535  1  0.06672229  0.66585791  0.36891328  1
  O2-  O536  1  0.08226352  0.65012915  0.67620304  1
  O2-  O537  1  0.09465234  0.92299938  0.01103710  1
  O2-  O538  1  0.14253896  0.95654901  0.40630236  1
  O2-  O539  1  0.09493658  0.92714573  0.69512334  1
  O2-  O540  1  0.33437384  0.18700815  0.01623349  1
  O2-  O541  1  0.34853544  0.17045911  0.35832629  1
  O2-  O542  1  0.34689464  0.18037244  0.67306796  1
  O2-  O543  1  0.37474850  0.39168360  0.03389916  1
  O2-  O544  1  0.32805461  0.41378122  0.35480578  1
  O2-  O545  1  0.32748997  0.41007006  0.68779603  1
  O2-  O546  1  0.31440266  0.66842413  0.01749126  1
  O2-  O547  1  0.30250432  0.62061450  0.35879380  1
  O2-  O548  1  0.33491976  0.66309802  0.69573821  1
  O2-  O549  1  0.33665754  0.92429250  0.01860907  1
  O2-  O550  1  0.43397621  0.96726221  0.35370570  1
  O2-  O551  1  0.34871572  0.92125768  0.68308887  1
  O2-  O552  1  0.56095040  0.11272547  0.02556440  1
  O2-  O553  1  0.59015771  0.17740737  0.34753157  1
  O2-  O554  1  0.58381021  0.20242776  0.68629299  1
  O2-  O555  1  0.56832773  0.40990056  0.02162061  1
  O2-  O556  1  0.55499831  0.36538910  0.37756230  1
  O2-  O557  1  0.59041484  0.45943453  0.68413403  1
  O2-  O558  1  0.58518461  0.66414631  0.01639815  1
  O2-  O559  1  0.54262785  0.69229888  0.37290647  1
  O2-  O560  1  0.60145672  0.65739704  0.67189240  1
  O2-  O561  1  0.59195084  0.91596332  0.00797906  1
  O2-  O562  1  0.65345052  0.94587460  0.35755085  1
  O2-  O563  1  0.59017807  0.89902940  0.68845142  1
  O2-  O564  1  0.83233112  0.16893807  0.01984021  1
  O2-  O565  1  0.82699973  0.21076709  0.35578050  1
  O2-  O566  1  0.80380785  0.15899895  0.68131357  1
  O2-  O567  1  0.83755382  0.42637500  0.01417610  1
  O2-  O568  1  0.83579806  0.37448444  0.36500184  1
  O2-  O569  1  0.82453322  0.42730577  0.67987783  1
  O2-  O570  1  0.84747948  0.66967576  0.02409030  1
  O2-  O571  1  0.81791023  0.65742945  0.35536623  1
  O2-  O572  1  0.86568544  0.66976521  0.70598699  1
  O2-  O573  1  0.82748983  0.90876921  0.01844271  1
  O2-  O574  1  0.82077154  0.94176590  0.35522677  1
  O2-  O575  1  0.83731035  0.90696445  0.69638261  1
