# generated using pymatgen
data_H2O
_symmetry_space_group_name_H-M   'P 1'
_cell_length_a   18.00089008
_cell_length_b   17.99719084
_cell_length_c   22.00904402
_cell_angle_alpha   90.00241436
_cell_angle_beta   90.00763889
_cell_angle_gamma   120.00585412
_symmetry_Int_Tables_number   1
_chemical_formula_structural   H2O
_chemical_formula_sum   'H384 O192'
_cell_volume   6174.54390825
_cell_formula_units_Z   192
loop_
 _symmetry_equiv_pos_site_id
 _symmetry_equiv_pos_as_xyz
  1  'x, y, z'
loop_
 _atom_type_symbol
 _atom_type_oxidation_number
  H+  1.0
  O2-  -2.0
loop_
 _atom_site_type_symbol
 _atom_site_label
 _atom_site_symmetry_multiplicity
 _atom_site_fract_x
 _atom_site_fract_y
 _atom_site_fract_z
 _atom_site_occupancy
  H+  H0  1  0.64884757  0.23965741  0.36814238  1
  H+  H1  1  0.08313353  0.93199894  0.05691743  1
  H+  H2  1  0.11356195  0.76341724  0.66134213  1
  H+  H3  1  0.60920937  0.47794843  0.35633628  1
  H+  H4  1  0.77432170  0.88499635  0.68180631  1
  H+  H5  1  0.13781988  0.36274099  0.50940957  1
  H+  H6  1  0.89444638  0.36307809  0.99448307  1
  H+  H7  1  0.64701121  0.60792135  0.66881111  1
  H+  H8  1  0.30646969  0.92514421  -0.04196785  1
  H+  H9  1  0.88200736  0.42123759  0.12610708  1
  H+  H10  1  0.64360498  0.27783678  0.83338919  1
  H+  H11  1  0.39464341  0.04944528  0.65666720  1
  H+  H12  1  0.36386617  0.47543047  0.15544484  1
  H+  H13  1  0.13445046  0.36141229  0.34463113  1
  H+  H14  1  0.89291689  0.89794102  0.52605920  1
  H+  H15  1  0.32098717  0.95143288  0.23400284  1
  H+  H16  1  0.60249324  0.37730735  0.00034310  1
  H+  H17  1  0.66090408  0.39490754  0.16166607  1
  H+  H18  1  0.40543274  0.14019155  0.66347155  1
  H+  H19  1  0.54070806  0.64489991  0.78064080  1
  H+  H20  1  0.44323761  0.63668071  0.65691299  1
  H+  H21  1  0.89588746  0.54496924  0.14159303  1
  H+  H22  1  0.64821783  0.11451865  0.66237884  1
  H+  H23  1  0.29990779  0.28125804  0.62890432  1
  H+  H24  1  0.37318486  0.85685290  0.18447828  1
  H+  H25  1  0.36874543  0.47809348  0.49634769  1
  H+  H26  1  0.90453475  0.28187759  0.83855999  1
  H+  H27  1  0.88954133  0.42728871  0.70936102  1
  H+  H28  1  -0.02679137  0.61997002  0.49959453  1
  H+  H29  1  0.11736623  0.39045852  0.13946154  1
  H+  H30  1  0.39820917  0.53947196  0.97568104  1
  H+  H31  1  0.84922566  0.09327566  0.49447390  1
  H+  H32  1  0.38358456  0.28093239  1.00223131  1
  H+  H33  1  0.63049074  0.12908803  0.18450715  1
  H+  H34  1  0.85453155  0.11251167  0.64475051  1
  H+  H35  1  0.23388498  0.11829178  0.17460805  1
  H+  H36  1  0.48906927  0.88528334  0.83489295  1
  H+  H37  1  0.88911418  0.62732401  0.66159749  1
  H+  H38  1  0.87810007  0.75933449  -0.00742745  1
  H+  H39  1  0.12574455  0.48404502  0.83122856  1
  H+  H40  1  0.63236986  0.28073487  0.99277715  1
  H+  H41  1  0.63564475  0.36187101  0.51830255  1
  H+  H42  1  0.78592562  0.64300987  0.67822917  1
  H+  H43  1  0.54626629  0.15122947  0.67171111  1
  H+  H44  1  0.90012864  0.88232854  0.98219036  1
  H+  H45  1  0.97621386  0.61811238  0.83749694  1
  H+  H46  1  0.44260466  0.74182440  0.70875852  1
  H+  H47  1  0.25246716  0.89119846  0.18575112  1
  H+  H48  1  0.10958547  0.60975501  0.01915583  1
  H+  H49  1  0.54257286  0.63035874  0.68352697  1
  H+  H50  1  0.88510756  0.86736468  0.67063464  1
  H+  H51  1  0.09337230  0.42473023  0.44103214  1
  H+  H52  1  0.38257544  0.65499719  0.99590950  1
  H+  H53  1  0.14271194  0.27791142  0.99064138  1
  H+  H54  1  0.62393267  0.88749035  0.66903414  1
  H+  H55  1  0.24036505  0.11954768  0.32827837  1
  H+  H56  1  0.55670829  0.89563094  0.01263545  1
  H+  H57  1  0.63549333  0.61897757  0.85966143  1
  H+  H58  1  0.38859022  0.37407643  -0.00407825  1
  H+  H59  1  0.86838707  0.55502096  -0.02193812  1
  H+  H60  1  0.36450240  0.63180841  0.80498680  1
  H+  H61  1  0.28685905  0.63933828  0.15199888  1
  H+  H62  1  0.11976300  0.23047674  0.15950480  1
  H+  H63  1  0.41091922  0.79437773  0.99343302  1
  H+  H64  1  0.18414184  0.57132867  0.23272276  1
  H+  H65  1  0.36172777  0.15034707  0.01926821  1
  H+  H66  1  0.38031412  0.35576182  0.50950790  1
  H+  H67  1  0.23150084  0.12594522  1.00507484  1
  H+  H68  1  0.97452882  0.89766835  0.34072826  1
  H+  H69  1  0.13479351  0.12455820  0.00340244  1
  H+  H70  1  0.65556625  0.78610893  -0.01957151  1
  H+  H71  1  0.59627722  0.46833268  0.83847582  1
  H+  H72  1  0.57421787  0.03547739  0.95681315  1
  H+  H73  1  0.22477069  0.35969801  0.50659811  1
  H+  H74  1  0.60532324  -0.01971964  0.18663900  1
  H+  H75  1  0.78072222  0.05996468  0.12415389  1
  H+  H76  1  0.50653018  0.37193769  0.50414242  1
  H+  H77  1  0.77397835  0.39900431  0.49180189  1
  H+  H78  1  0.91187886  0.46327852  0.30662410  1
  H+  H79  1  0.88849104  0.80228451  0.33540296  1
  H+  H80  1  0.14200025  0.61225412  0.83508673  1
  H+  H81  1  0.77048849  0.13471024  -0.02750054  1
  H+  H82  1  0.64046716  0.86947155  0.18387905  1
  H+  H83  1  0.35551125  0.24222825  0.16591714  1
  H+  H84  1  0.88171784  1.00850546  0.66157521  1
  H+  H85  1  1.00414591  0.13855053  0.66174102  1
  H+  H86  1  1.02854487  0.38910986  0.35488004  1
  H+  H87  1  0.64701877  0.51843499  0.14737221  1
  H+  H88  1  0.89026867  0.01456676  0.17282969  1
  H+  H89  1  0.35581955  0.38047837  0.15809945  1
  H+  H90  1  0.53825193  0.89041549  0.66277566  1
  H+  H91  1  0.11975140  0.47682646  0.34261105  1
  H+  H92  1  0.76593135  0.36576912  0.65977328  1
  H+  H93  1  0.62549881  0.88331706  0.33491461  1
  H+  H94  1  0.03142486  0.90490340  -0.00743965  1
  H+  H95  1  0.83282225  0.30941329  0.62543532  1
  H+  H96  1  0.72709804  0.62588389  0.34815691  1
  H+  H97  1  0.68704843  0.26873700  0.65342557  1
  H+  H98  1  0.38258755  0.00952415  0.31773342  1
  H+  H99  1  0.13819088  0.60141174  0.32406767  1
  H+  H100  1  0.19401563  0.85937682  0.64965957  1
  H+  H101  1  0.37193249  0.68747648  0.66217230  1
  H+  H102  1  0.61863729  -0.02556069  0.33558682  1
  H+  H103  1  0.52549042  0.87596617  0.32792439  1
  H+  H104  1  0.14390212  1.01316976  0.66265204  1
  H+  H105  1  0.34323772  0.16722559  0.39472484  1
  H+  H106  1  0.91110404  0.34409249  0.18906743  1
  H+  H107  1  0.64657137  0.90112702  1.00094115  1
  H+  H108  1  0.38299037  0.77392553  0.16757475  1
  H+  H109  1  0.12932804  0.62163187  0.17657174  1
  H+  H110  1  0.40069777  0.04101755  0.88151035  1
  H+  H111  1  0.96627261  0.85814052  0.83267590  1
  H+  H112  1  0.48792143  0.62565696  0.97800052  1
  H+  H113  1  0.11193804  0.72177150  0.82775432  1
  H+  H114  1  0.15663111  0.52118283  0.16701609  1
  H+  H115  1  0.12197452  0.38447231  0.83133153  1
  H+  H116  1  0.87229977  0.14370014  0.83052856  1
  H+  H117  1  0.89332054  0.02566835  0.99301805  1
  H+  H118  1  0.87138790  0.11175917  0.33041095  1
  H+  H119  1  0.45096883  0.92348976  0.62722178  1
  H+  H120  1  0.63060212  0.89813142  0.82894616  1
  H+  H121  1  0.14035232  0.29255402  0.66014383  1
  H+  H122  1  0.23143353  0.11226081  0.50797457  1
  H+  H123  1  0.11092108  0.48156920  0.50068778  1
  H+  H124  1  0.35892709  0.22214772  0.49195395  1
  H+  H125  1  0.04743000  0.65502475  0.33011084  1
  H+  H126  1  0.87204610  0.49758130  0.68164532  1
  H+  H127  1  0.88109839  0.65556752  0.13667340  1
  H+  H128  1  0.09144074  0.50286497  0.65046903  1
  H+  H129  1  0.88844630  0.62494874  0.82803011  1
  H+  H130  1  0.77048467  0.12138054  0.34469481  1
  H+  H131  1  0.23218243  0.61019379  0.32676482  1
  H+  H132  1  0.17137409  0.72922929  0.34095083  1
  H+  H133  1  0.41235694  0.53294574  0.66334779  1
  H+  H134  1  0.22001680  0.85730437  0.82564110  1
  H+  H135  1  0.55824839  0.15986143  0.37964374  1
  H+  H136  1  0.36574486  0.15356887  0.15840261  1
  H+  H137  1  0.34506925  0.96648558  0.52597156  1
  H+  H138  1  0.86085910  0.49121691  0.48897182  1
  H+  H139  1  0.91323504  0.11340915  0.17287165  1
  H+  H140  1  0.64602637  1.02675682  0.83263601  1
  H+  H141  1  0.91039575  0.07730936  0.26635727  1
  H+  H142  1  0.64760867  0.79776099  0.84075192  1
  H+  H143  1  0.87187818  0.65875956  -0.01657422  1
  H+  H144  1  0.87780939  0.01795635  0.33084149  1
  H+  H145  1  0.78779382  0.40703022  0.13052176  1
  H+  H146  1  0.62461270  0.65959600  0.49720208  1
  H+  H147  1  0.58139310  0.68056173  0.40559347  1
  H+  H148  1  0.78732229  0.67073458  0.50504532  1
  H+  H149  1  0.62936356  0.37212532  0.32855329  1
  H+  H150  1  0.86602086  0.89727320  0.16416499  1
  H+  H151  1  0.88802226  0.36993813  0.49094203  1
  H+  H152  1  0.61653985  0.64146886  -0.01719028  1
  H+  H153  1  0.62350909  0.24984839  0.15998295  1
  H+  H154  1  0.41932422  0.88328206  0.64377184  1
  H+  H155  1  0.09468880  0.20152094  0.50967112  1
  H+  H156  1  0.13048482  1.01901495  0.83135886  1
  H+  H157  1  0.64274584  1.02050938  0.65654139  1
  H+  H158  1  0.08429224  0.63218325  0.08140474  1
  H+  H159  1  0.47564748  0.61641017  0.32759387  1
  H+  H160  1  0.71157171  0.37883967  0.98292706  1
  H+  H161  1  0.49148740  0.13535146  0.02189523  1
  H+  H162  1  0.01902586  0.13216874  0.82366744  1
  H+  H163  1  0.31309901  0.88128395  0.35642374  1
  H+  H164  1  0.07025045  0.76576931  0.16623410  1
  H+  H165  1  0.46794062  0.10851414  0.50899382  1
  H+  H166  1  0.38840831  0.52580484  0.32619840  1
  H+  H167  1  0.55201436  0.40553782  0.72702933  1
  H+  H168  1  0.61907180  0.14398768  0.00939977  1
  H+  H169  1  0.23526972  0.37143356  0.15690617  1
  H+  H170  1  0.31153812  0.92147043  0.61507418  1
  H+  H171  1  1.00885498  0.53655348  0.30315548  1
  H+  H172  1  0.03806612  0.39699835  -0.00658421  1
  H+  H173  1  0.76505064  0.89110901  0.83105785  1
  H+  H174  1  0.63339054  0.01199075  0.99549802  1
  H+  H175  1  0.09751177  0.89830931  0.14971973  1
  H+  H176  1  0.13966487  0.10882880  0.51835696  1
  H+  H177  1  0.85546701  0.20595182  0.64091693  1
  H+  H178  1  0.57066096  0.40623729  0.40802079  1
  H+  H179  1  0.36499187  0.38882091  0.33818437  1
  H+  H180  1  0.10418642  1.00468116  0.35448722  1
  H+  H181  1  0.89377364  0.63558044  0.50616873  1
  H+  H182  1  0.09796827  0.88123061  0.66868246  1
  H+  H183  1  0.36394250  0.77287637  0.49490823  1
  H+  H184  1  0.70500490  0.10850902  0.17466239  1
  H+  H185  1  0.52784916  0.13447642  0.82245774  1
  H+  H186  1  0.40263196  0.77348108  0.32492778  1
  H+  H187  1  0.64421631  0.10615784  0.34030653  1
  H+  H188  1  0.16211323  0.53715168  0.98141313  1
  H+  H189  1  0.26550019  0.12496343  0.82447238  1
  H+  H190  1  0.42077793  0.08721782  1.07096651  1
  H+  H191  1  0.39386354  0.61700705  0.16640164  1
  H+  H192  1  0.89191371  0.60967033  0.29058072  1
  H+  H193  1  0.76736708  0.37990683  0.33951590  1
  H+  H194  1  0.40599891  0.90563177  0.34330018  1
  H+  H195  1  0.50453715  0.38025786  1.00579796  1
  H+  H196  1  0.41779498  0.88619029  0.98286074  1
  H+  H197  1  0.24833312  0.11210998  0.66760125  1
  H+  H198  1  0.59328388  0.46270121  0.50221089  1
  H+  H199  1  0.10334714  0.87941060  0.82085344  1
  H+  H200  1  0.98439201  0.61651888  0.16717984  1
  H+  H201  1  0.29399724  0.65469561  -0.00218115  1
  H+  H202  1  0.89048619  0.11301269  0.98469980  1
  H+  H203  1  0.79385863  0.65857027  0.13504459  1
  H+  H204  1  0.89033430  0.77987322  0.66588003  1
  H+  H205  1  1.04054913  0.41273508  0.14238736  1
  H+  H206  1  0.60945911  0.64338093  0.35045685  1
  H+  H207  1  0.62860476  0.51195463  0.66245860  1
  H+  H208  1  0.12178493  0.22179943  0.36952070  1
  H+  H209  1  0.56149536  0.43496995  0.16031891  1
  H+  H210  1  0.61199837  0.73657875  0.15309105  1
  H+  H211  1  0.12631621  0.27126554  0.83337402  1
  H+  H212  1  0.38089245  0.09912121  0.83547609  1
  H+  H213  1  0.48555181  0.62543542  0.50753491  1
  H+  H214  1  0.14474776  0.36784850  -0.01583583  1
  H+  H215  1  0.25541276  0.87799266  0.52572173  1
  H+  H216  1  0.85328377  0.88251707  0.82803627  1
  H+  H217  1  0.83489315  0.15913047  0.13809012  1
  H+  H218  1  0.47198616  0.36530301  0.31991859  1
  H+  H219  1  0.78220464  0.89232306  -0.00161132  1
  H+  H220  1  0.88126610  0.76551739  0.83306744  1
  H+  H221  1  0.39197981  0.03230734  0.16348158  1
  H+  H222  1  0.11376304  0.97966238  0.50615026  1
  H+  H223  1  0.02516434  0.13800634  0.00725204  1
  H+  H224  1  -0.02525040  0.36604732  0.49583551  1
  H+  H225  1  0.21758851  0.58359593  0.65954072  1
  H+  H226  1  0.86821329  0.90417466  0.35032254  1
  H+  H227  1  0.97821792  0.89173967  0.17799125  1
  H+  H228  1  0.87248343  0.48421670  0.86159711  1
  H+  H229  1  0.78673350  0.14840699  0.82961554  1
  H+  H230  1  0.73266425  0.86929554  0.33860265  1
  H+  H231  1  0.64429331  0.77269104  0.66901821  1
  H+  H232  1  0.49595167  0.38360242  0.66787945  1
  H+  H233  1  0.37005422  0.64044368  0.33822680  1
  H+  H234  1  0.01489515  0.21522956  0.69999704  1
  H+  H235  1  0.61863648  0.13773216  0.82547401  1
  H+  H236  1  0.47153881  0.35075407  0.84188336  1
  H+  H237  1  0.75211581  0.11370825  0.65218120  1
  H+  H238  1  0.15029880  0.88765095  0.98578692  1
  H+  H239  1  0.90575977  0.60253533  0.32154884  1
  H+  H240  1  0.35618064  0.21302044  0.82948175  1
  H+  H241  1  0.11648581  -0.00534461  0.15309715  1
  H+  H242  1  0.16447712  0.80777463  0.99005559  1
  H+  H243  1  0.71855034  0.54641488  0.52783586  1
  H+  H244  1  0.13685433  0.02906253  0.99722237  1
  H+  H245  1  0.64341721  0.64261768  0.15618557  1
  H+  H246  1  0.08828399  0.38241285  0.65715885  1
  H+  H247  1  0.36140184  0.38843731  0.66945483  1
  H+  H248  1  0.03645618  0.13568487  0.16606184  1
  H+  H249  1  0.64289935  0.77805759  0.33510241  1
  H+  H250  1  0.02803868  0.39021210  0.83082539  1
  H+  H251  1  -0.00785710  0.36573209  0.64897611  1
  H+  H252  1  0.85191593  0.95323246  0.40762192  1
  H+  H253  1  0.27446539  0.53789660  0.66148966  1
  H+  H254  1  0.01766728  0.89900373  0.50466028  1
  H+  H255  1  0.52312303  0.88858074  0.17746413  1
  H+  H256  1  0.12617754  0.13747413  0.35657150  1
  H+  H257  1  0.86085414  0.21009759  0.35463549  1
  H+  H258  1  0.38712964  1.00758191  -0.01640148  1
  H+  H259  1  0.21141863  0.61895631  0.51180622  1
  H+  H260  1  0.66796176  0.08245230  0.89316685  1
  H+  H261  1  0.28476089  0.40715557  0.67509687  1
  H+  H262  1  0.82572893  0.41666337  0.40042188  1
  H+  H263  1  0.61329062  0.39066120  0.82599502  1
  H+  H264  1  0.35998599  0.62589279  0.49883835  1
  H+  H265  1  0.83435190  0.43316489  -0.04822973  1
  H+  H266  1  0.86199658  0.66705341  0.35423918  1
  H+  H267  1  0.43286559  0.85662848  0.89371609  1
  H+  H268  1  0.23136789  0.61058431  0.82822503  1
  H+  H269  1  0.34943247  0.96243120  0.80184869  1
  H+  H270  1  0.44555216  0.34713613  0.16515198  1
  H+  H271  1  0.88485617  0.01789784  0.83778219  1
  H+  H272  1  0.08471439  0.16871850  0.06819273  1
  H+  H273  1  0.12150203  0.61767312  0.50065318  1
  H+  H274  1  0.87744483  0.34426476  0.35305015  1
  H+  H275  1  0.33924370  0.42075044  0.43615874  1
  H+  H276  1  0.09716604  0.63132790  0.67470357  1
  H+  H277  1  0.27728190  0.38976535  0.34576673  1
  H+  H278  1  0.52574085  0.64396570  0.15274581  1
  H+  H279  1  0.65777772  0.88418314  0.52666484  1
  H+  H280  1  0.12114959  0.86565932  0.32278509  1
  H+  H281  1  0.61318220  0.22756326  0.50728504  1
  H+  H282  1  0.15213163  0.88390623  0.34899544  1
  H+  H283  1  0.13786756  0.71161069  0.18871225  1
  H+  H284  1  0.68516335  0.85139759  0.92132218  1
  H+  H285  1  0.78957574  0.64242444  0.81530258  1
  H+  H286  1  0.41945280  0.54460841  0.82299491  1
  H+  H287  1  0.36050423  0.13390438  0.49164034  1
  H+  H288  1  0.31748662  0.91239033  0.68963953  1
  H+  H289  1  0.53326421  0.15871888  0.15798950  1
  H+  H290  1  0.80258962  0.14350154  0.03925765  1
  H+  H291  1  0.13132531  0.57448844  0.59654521  1
  H+  H292  1  0.71477319  0.65322659  0.20486945  1
  H+  H293  1  0.84797529  0.67710374  0.73984206  1
  H+  H294  1  0.67683349  0.57646494  0.57781097  1
  H+  H295  1  0.67559881  0.83202823  0.23400194  1
  H+  H296  1  0.11416448  0.85360214  0.50392239  1
  H+  H297  1  0.08394709  0.14918589  0.44915136  1
  H+  H298  1  0.83602698  0.69915586  0.41423189  1
  H+  H299  1  0.36539508  0.08948227  0.31058982  1
  H+  H300  1  0.77487403  0.89506385  0.16043795  1
  H+  H301  1  0.01310076  0.63857313  0.67693294  1
  H+  H302  1  0.21280151  0.79793722  0.28825561  1
  H+  H303  1  0.84623169  0.17990582  0.49469463  1
  H+  H304  1  0.34710462  0.67560011  0.09185073  1
  H+  H305  1  0.69191526  0.36752284  0.22016844  1
  H+  H306  1  0.35517024  0.88020814  0.81097945  1
  H+  H307  1  0.36067316  0.43510255  0.76636879  1
  H+  H308  1  0.32600565  0.90127862  0.08050142  1
  H+  H309  1  0.45260154  0.61815018  0.87193530  1
  H+  H310  1  0.38533155  0.40286918  0.82641940  1
  H+  H311  1  0.07931109  0.66174354  0.76961468  1
  H+  H312  1  0.17460375  0.08884855  0.27177285  1
  H+  H313  1  0.33730515  0.42521631  0.05849618  1
  H+  H314  1  0.60058715  0.17204376  0.73271899  1
  H+  H315  1  0.07485127  0.91300644  0.76324940  1
  H+  H316  1  0.14660826  0.12008104  0.17578923  1
  H+  H317  1  0.07311531  0.16781315  0.76301349  1
  H+  H318  1  0.78769798  0.39230014  0.86083909  1
  H+  H319  1  0.42035165  0.58629204  0.22700700  1
  H+  H320  1  0.91672343  0.85020350  0.57818274  1
  H+  H321  1  0.91606845  0.59403165  0.60095485  1
  H+  H322  1  0.74855447  0.88836662  0.52490152  1
  H+  H323  1  0.43579036  0.58720542  0.56873164  1
  H+  H324  1  0.18395540  0.07898266  0.60094713  1
  H+  H325  1  0.89398955  0.31131859  0.57299446  1
  H+  H326  1  0.34276135  0.67275570  0.39738907  1
  H+  H327  1  0.91931463  0.32619263  0.29811520  1
  H+  H328  1  0.90718716  0.37132280  0.85656228  1
  H+  H329  1  0.83126822  0.91727260  0.74346740  1
  H+  H330  1  1.01890793  0.89784910  0.67145880  1
  H+  H331  1  0.41894070  0.86172459  0.52199468  1
  H+  H332  1  0.06721991  0.94383825  0.41492451  1
  H+  H333  1  0.18793654  0.60116163  0.92689348  1
  H+  H334  1  0.16889261  0.84020175  0.88866519  1
  H+  H335  1  0.59738309  0.92372429  0.76699325  1
  H+  H336  1  0.37147260  0.22751387  0.33523405  1
  H+  H337  1  0.83253625  0.43781309  0.02921309  1
  H+  H338  1  0.83796930  0.91997314  0.06103737  1
  H+  H339  1  0.41635470  0.09739093  0.56821557  1
  H+  H340  1  0.84886481  0.69425095  0.05283232  1
  H+  H341  1  0.07399159  0.65226733  0.42291458  1
  H+  H342  1  0.89414924  0.03013453  0.59172204  1
  H+  H343  1  0.14361869  0.30006878  0.29636369  1
  H+  H344  1  0.42938493  0.82934898  0.26223540  1
  H+  H345  1  0.92264224  0.84510426  0.92102488  1
  H+  H346  1  0.91010971  0.61187015  0.91803180  1
  H+  H347  1  0.92444868  0.86717832  0.24093312  1
  H+  H348  1  0.65595605  0.33163051  0.89308509  1
  H+  H349  1  0.13495448  0.10955362  0.82955391  1
  H+  H350  1  0.67476820  0.83013038  0.60717999  1
  H+  H351  1  0.10274209  0.43372778  0.04668764  1
  H+  H352  1  0.62869746  0.74965378  0.49923568  1
  H+  H353  1  0.28022685  0.39394600  -0.00187530  1
  H+  H354  1  0.40822558  0.33294973  0.26073547  1
  H+  H355  1  0.92261348  0.07925130  0.89628072  1
  H+  H356  1  0.09882144  0.72072785  0.48066690  1
  H+  H357  1  0.89138441  0.27489171  -0.00383170  1
  H+  H358  1  0.58560614  0.42765570  0.06085810  1
  H+  H359  1  0.66554074  0.08359948  0.27485479  1
  H+  H360  1  0.12807718  0.81033605  0.56212155  1
  H+  H361  1  0.32683660  0.17955602  0.07532422  1
  H+  H362  1  0.95535184  0.05930805  0.48460177  1
  H+  H363  1  0.35399695  0.88420617  0.06933923  1
  H+  H364  1  0.08723891  0.81215380  0.22835038  1
  H+  H365  1  0.66705706  0.58259066  0.29079492  1
  H+  H366  1  0.41238395  0.32606169  0.90035068  1
  H+  H367  1  0.59413184  0.67114786  0.04758050  1
  H+  H368  1  0.68964713  0.33625393  0.56636060  1
  H+  H369  1  0.71507000  0.05847379  0.50337766  1
  H+  H370  1  0.30407937  0.62042019  0.74883828  1
  H+  H371  1  0.33082520  0.16663056  0.73549200  1
  H+  H372  1  0.17435318  0.36076711  0.21212632  1
  H+  H373  1  0.87143646  0.76540999  0.50324079  1
  H+  H374  1  0.60619916  0.18702327  0.07050195  1
  H+  H375  1  0.95802366  0.43893634  0.21569178  1
  H+  H376  1  0.34849386  0.22900698  0.67234312  1
  H+  H377  1  0.61001038  0.28799264  0.29312861  1
  H+  H378  1  0.16394925  0.33010760  0.89302493  1
  H+  H379  1  0.60775727  0.14714866  0.47398713  1
  H+  H380  1  0.41862345  0.08866201  0.21968571  1
  H+  H381  1  0.17459320  0.34565917  0.59962633  1
  H+  H382  1  0.27771985  0.57225796  0.46111440  1
  H+  H383  1  0.39331711  0.31663874  0.57179168  1
  O2-  O384  1  0.09354549  0.16936566  0.14628634  1
  O2-  O385  1  0.07356956  0.14239776  0.49511215  1
  O2-  O386  1  0.07945632  0.16597704  0.80751644  1
  O2-  O387  1  0.09878492  0.43141628  0.12599642  1
  O2-  O388  1  0.08824569  0.42129342  0.48625776  1
  O2-  O389  1  0.09357257  0.42158476  0.81681271  1
  O2-  O390  1  0.09856425  0.65552474  0.17150535  1
  O2-  O391  1  0.07054085  0.65846047  0.46904388  1
  O2-  O392  1  0.08268727  0.66019332  0.81502443  1
  O2-  O393  1  0.07856765  0.93707757  0.13302957  1
  O2-  O394  1  0.07696369  0.92140269  0.48803151  1
  O2-  O395  1  0.07202952  0.90976447  0.80846732  1
  O2-  O396  1  0.32933495  0.17761854  0.14605842  1
  O2-  O397  1  0.32962000  0.16286870  0.47416973  1
  O2-  O398  1  0.32835399  0.15420751  0.81154580  1
  O2-  O399  1  0.33067093  0.41601121  0.13882829  1
  O2-  O400  1  0.33515609  0.41796441  0.48143669  1
  O2-  O401  1  0.37026186  0.44506512  0.81065704  1
  O2-  O402  1  0.34740233  0.67441884  0.13774562  1
  O2-  O403  1  0.31391232  0.63050139  0.47619739  1
  O2-  O404  1  0.32076217  0.64562355  0.78994089  1
  O2-  O405  1  0.31362132  0.91957118  0.19573351  1
  O2-  O406  1  0.31524224  0.90658410  0.54141574  1
  O2-  O407  1  0.31883969  0.90085946  0.79064674  1
  O2-  O408  1  0.59568278  0.18835472  0.14744079  1
  O2-  O409  1  0.57665274  0.16458146  0.50119020  1
  O2-  O410  1  0.58923240  0.16907590  0.81014672  1
  O2-  O411  1  0.61400659  0.45558208  0.13654728  1
  O2-  O412  1  0.56733821  0.40318163  0.48734945  1
  O2-  O413  1  0.57464577  0.41376618  0.81606881  1
  O2-  O414  1  0.58533308  0.67734291  0.13569082  1
  O2-  O415  1  0.59478874  0.68911821  0.48287789  1
  O2-  O416  1  0.60073066  0.66136964  0.76718598  1
  O2-  O417  1  0.58653439  0.91951324  0.17890008  1
  O2-  O418  1  0.61996586  0.95213449  0.53167206  1
  O2-  O419  1  0.59855636  0.92880370  0.81166604  1
  O2-  O420  1  0.78224340  0.11474162  0.11922328  1
  O2-  O421  1  0.81894431  0.12192180  0.51141970  1
  O2-  O422  1  0.84831693  0.18070377  0.81879187  1
  O2-  O423  1  0.84167958  0.43667324  0.10690718  1
  O2-  O424  1  0.83282642  0.43103369  0.47332521  1
  O2-  O425  1  0.84738486  0.42364565  0.87694629  1
  O2-  O426  1  0.85317316  0.68783476  0.12029459  1
  O2-  O427  1  0.84453672  0.70435837  0.48608602  1
  O2-  O428  1  0.84959317  0.67534260  0.80327294  1
  O2-  O429  1  0.83549031  0.92729049  0.14506434  1
  O2-  O430  1  0.85981991  0.96547998  0.52965699  1
  O2-  O431  1  0.82872527  0.91851309  0.81403215  1
  O2-  O432  1  0.17270254  0.08563906  0.19001709  1
  O2-  O433  1  0.17545422  0.08230215  0.53091387  1
  O2-  O434  1  0.16577850  0.08003225  0.84386611  1
  O2-  O435  1  0.17154212  0.34096579  0.17056855  1
  O2-  O436  1  0.16554596  0.32965965  0.52356007  1
  O2-  O437  1  0.15595876  0.33177362  0.84846406  1
  O2-  O438  1  0.18786185  0.57866601  0.18740435  1
  O2-  O439  1  0.14980869  0.58765807  0.52181365  1
  O2-  O440  1  0.17356955  0.58281865  0.84948164  1
  O2-  O441  1  0.11188878  0.81762899  0.18792892  1
  O2-  O442  1  0.13823918  0.81657801  0.51726657  1
  O2-  O443  1  0.16103368  0.83033939  0.84427817  1
  O2-  O444  1  0.42563421  0.09397895  0.17381816  1
  O2-  O445  1  0.40759909  0.08363485  0.52387555  1
  O2-  O446  1  0.41474057  0.06922865  0.84138558  1
  O2-  O447  1  0.39176041  0.32606792  0.18681488  1
  O2-  O448  1  0.40662247  0.32252739  0.52569488  1
  O2-  O449  1  0.41029029  0.32054129  0.85568868  1
  O2-  O450  1  0.42235444  0.58490877  0.18180523  1
  O2-  O451  1  0.42678053  0.58878795  0.52404492  1
  O2-  O452  1  0.44934045  0.60980896  0.82742746  1
  O2-  O453  1  0.40999766  0.83102502  0.18890136  1
  O2-  O454  1  0.42267041  0.81255791  0.50708701  1
  O2-  O455  1  0.42946349  0.86290592  0.84955546  1
  O2-  O456  1  0.65547017  0.09444258  0.20105668  1
  O2-  O457  1  0.65235234  0.01827769  0.49192172  1
  O2-  O458  1  0.67344720  0.08828190  0.84862091  1
  O2-  O459  1  0.68643330  0.35995977  0.17565709  1
  O2-  O460  1  0.67497477  0.33852899  0.52256289  1
  O2-  O461  1  0.67128841  0.33785656  0.84940057  1
  O2-  O462  1  0.68234343  0.61861650  0.17020780  1
  O2-  O463  1  0.68501213  0.57522536  0.53166394  1
  O2-  O464  1  0.61074836  0.56534229  0.88311446  1
  O2-  O465  1  0.67228303  0.83673494  0.18933719  1
  O2-  O466  1  0.68550546  0.84749443  0.53073892  1
  O2-  O467  1  0.67869767  0.85688184  0.85504264  1
  O2-  O468  1  0.92959279  0.07525878  0.19235427  1
  O2-  O469  1  0.89274335  0.02317866  0.47571629  1
  O2-  O470  1  0.91966324  0.07992086  0.85131368  1
  O2-  O471  1  0.94855532  0.40366857  0.17741725  1
  O2-  O472  1  0.91133672  0.33182703  0.50106015  1
  O2-  O473  1  0.94226799  0.34334500  0.85209859  1
  O2-  O474  1  0.92305312  0.59925819  0.16485387  1
  O2-  O475  1  0.91413267  0.59572421  0.51804143  1
  O2-  O476  1  0.91503879  0.59196477  0.85034644  1
  O2-  O477  1  0.92011141  0.86409005  0.19581982  1
  O2-  O478  1  0.91646108  0.85719594  0.53250049  1
  O2-  O479  1  0.90690649  0.82738880  0.84978618  1
  O2-  O480  1  0.17841434  0.09357707  0.31677968  1
  O2-  O481  1  0.18440308  0.07538545  0.64754804  1
  O2-  O482  1  0.16941146  0.09522827  0.98933666  1
  O2-  O483  1  0.16602129  0.32935204  0.33486815  1
  O2-  O484  1  0.17429992  0.35220372  0.64507626  1
  O2-  O485  1  0.17567229  0.33607321  0.97286907  1
  O2-  O486  1  0.17337539  0.57330265  0.31024160  1
  O2-  O487  1  0.12771629  0.56697681  0.64175017  1
  O2-  O488  1  0.19212262  0.59970520  0.97214788  1
  O2-  O489  1  0.22426163  0.78501635  0.32876769  1
  O2-  O490  1  0.13192314  0.81987442  0.64036626  1
  O2-  O491  1  0.18445400  0.86228687  0.96920483  1
  O2-  O492  1  0.38078704  0.05155517  0.28767801  1
  O2-  O493  1  0.43559381  0.11046964  0.64717561  1
  O2-  O494  1  0.42737976  0.10289682  1.02800917  1
  O2-  O495  1  0.41124295  0.33355706  0.30708153  1
  O2-  O496  1  0.36033378  0.30519606  0.63951391  1
  O2-  O497  1  0.41914960  0.34046510  0.98563951  1
  O2-  O498  1  0.41685249  0.58583507  0.30980590  1
  O2-  O499  1  0.45690977  0.59036930  0.64636871  1
  O2-  O500  1  0.42823349  0.59961076  0.96145221  1
  O2-  O501  1  0.43996482  0.83260248  0.30741238  1
  O2-  O502  1  0.43516691  0.72540239  0.66597800  1
  O2-  O503  1  0.45001960  0.85523646  0.98081343  1
  O2-  O504  1  0.66811885  0.07343762  0.31958035  1
  O2-  O505  1  0.67511854  0.08249793  0.64352282  1
  O2-  O506  1  0.63184562  0.06467242  0.97441172  1
  O2-  O507  1  0.65765953  0.34278153  0.30681733  1
  O2-  O508  1  0.73251091  0.31790221  0.63014445  1
  O2-  O509  1  0.64774134  0.33785188  0.97490153  1
  O2-  O510  1  0.66532455  0.58804148  0.33479487  1
  O2-  O511  1  0.66925301  0.57286518  0.64946153  1
  O2-  O512  1  0.65112199  0.58904536  0.94026940  1
  O2-  O513  1  0.67515212  0.83815739  0.31850198  1
  O2-  O514  1  0.67154114  0.83198395  0.65268360  1
  O2-  O515  1  0.68957608  0.84787632  0.96926136  1
  O2-  O516  1  0.90489888  0.07890537  0.31171840  1
  O2-  O517  1  0.90687056  0.05917158  0.63285627  1
  O2-  O518  1  0.92695691  0.08677520  0.97797069  1
  O2-  O519  1  0.91420040  0.31850480  0.34205444  1
  O2-  O520  1  0.88346221  0.30227576  0.61841005  1
  O2-  O521  1  0.92662051  0.33593519  1.00778164  1
  O2-  O522  1  0.96402678  0.48573559  0.28108177  1
  O2-  O523  1  0.91712553  0.59369581  0.64603645  1
  O2-  O524  1  0.90401532  0.61542011  0.96426066  1
  O2-  O525  1  0.91501556  0.86151589  0.31961542  1
  O2-  O526  1  0.91812006  0.84148803  0.65169286  1
  O2-  O527  1  0.93319435  0.85500045  0.96683393  1
  O2-  O528  1  0.08633901  0.16814087  0.02271955  1
  O2-  O529  1  0.09348547  0.16017252  0.37875116  1
  O2-  O530  1  0.04787709  0.18908382  0.68575193  1
  O2-  O531  1  0.10096588  0.42782974  0.00158496  1
  O2-  O532  1  0.09106317  0.41871171  0.36327028  1
  O2-  O533  1  0.04901981  0.40418036  0.66719009  1
  O2-  O534  1  0.05988465  0.59969132  0.04404629  1
  O2-  O535  1  0.08171439  0.63543896  0.35160941  1
  O2-  O536  1  0.07391384  0.66685890  0.69256323  1
  O2-  O537  1  0.09110106  0.93526139  0.01138411  1
  O2-  O538  1  0.05277859  0.95656685  0.37391275  1
  O2-  O539  1  0.08099960  0.92347756  0.68438136  1
  O2-  O540  1  0.32659720  0.17763839  0.02843494  1
  O2-  O541  1  0.34484353  0.16676518  0.34927594  1
  O2-  O542  1  0.33016183  0.16663975  0.68957365  1
  O2-  O543  1  0.34097891  0.42555445  0.01322749  1
  O2-  O544  1  0.33940669  0.42244952  0.35599709  1
  O2-  O545  1  0.34646959  0.43281865  0.68570196  1
  O2-  O546  1  0.35397250  0.68492709  0.01485088  1
  O2-  O547  1  0.34296719  0.67454551  0.35236958  1
  O2-  O548  1  0.27639364  0.59164628  0.67084750  1
  O2-  O549  1  0.36935618  0.96035675  -0.04613979  1
  O2-  O550  1  0.37231974  0.93093663  0.35915665  1
  O2-  O551  1  0.29989660  0.93737818  0.65697688  1
  O2-  O552  1  0.59958650  0.18364903  0.02519343  1
  O2-  O553  1  0.61794312  0.17712694  0.37139802  1
  O2-  O554  1  0.60530043  0.17179979  0.68725983  1
  O2-  O555  1  0.57153322  0.41001848  0.01746343  1
  O2-  O556  1  0.57805306  0.41488414  0.36283457  1
  O2-  O557  1  0.55517055  0.41056205  0.68236186  1
  O2-  O558  1  0.59238023  0.67572694  0.00307035  1
  O2-  O559  1  0.58000873  0.67622598  0.36011425  1
  O2-  O560  1  0.60401886  0.66749206  0.70020099  1
  O2-  O561  1  0.61892606  0.93110105  0.02194371  1
  O2-  O562  1  0.58880181  0.91071922  0.34657948  1
  O2-  O563  1  0.59500366  0.92083731  0.68146171  1
  O2-  O564  1  0.82286812  0.15808258  -0.00313519  1
  O2-  O565  1  0.83121745  0.14639526  0.35903767  1
  O2-  O566  1  0.82775120  0.14675961  0.66009261  1
  O2-  O567  1  0.80954435  0.44415293  -0.01048650  1
  O2-  O568  1  0.82485840  0.39959662  0.35637418  1
  O2-  O569  1  0.84430057  0.44126430  0.70360195  1
  O2-  O570  1  0.84357169  0.69722437  0.00601762  1
  O2-  O571  1  0.82803660  0.69263684  0.36807483  1
  O2-  O572  1  0.84665859  0.67859182  0.69005575  1
  O2-  O573  1  0.84303885  0.92415091  0.01612541  1
  O2-  O574  1  0.83606615  0.93481648  0.36468595  1
  O2-  O575  1  0.83461940  0.91576268  0.69698962  1
