# generated using pymatgen
data_H2O
_symmetry_space_group_name_H-M   'P 1'
_cell_length_a   17.99973586
_cell_length_b   17.99672853
_cell_length_c   22.00763588
_cell_angle_alpha   89.99376739
_cell_angle_beta   90.00630784
_cell_angle_gamma   119.99669891
_symmetry_Int_Tables_number   1
_chemical_formula_structural   H2O
_chemical_formula_sum   'H384 O192'
_cell_volume   6174.16402925
_cell_formula_units_Z   192
loop_
 _symmetry_equiv_pos_site_id
 _symmetry_equiv_pos_as_xyz
  1  'x, y, z'
loop_
 _atom_type_symbol
 _atom_type_oxidation_number
  H+  1.0
  O2-  -2.0
loop_
 _atom_site_type_symbol
 _atom_site_label
 _atom_site_symmetry_multiplicity
 _atom_site_fract_x
 _atom_site_fract_y
 _atom_site_fract_z
 _atom_site_occupancy
  H+  H0  1  0.12576990  0.85681018  0.85048045  1
  H+  H1  1  0.61568129  0.88439513  0.00474180  1
  H+  H2  1  -0.01475943  0.60778533  -0.00947770  1
  H+  H3  1  0.60667182  0.63268887  0.67795008  1
  H+  H4  1  0.11859141  0.89073387  0.34439454  1
  H+  H5  1  0.71764292  0.11024354  0.65646834  1
  H+  H6  1  0.72963986  0.61135069  -0.00984407  1
  H+  H7  1  0.41511734  0.86837738  0.46190201  1
  H+  H8  1  0.62997646  0.26226083  0.83944806  1
  H+  H9  1  0.87291395  0.73278173  0.83225700  1
  H+  H10  1  0.70232149  1.14529365  0.47483867  1
  H+  H11  1  0.26778115  0.13827781  0.49718799  1
  H+  H12  1  0.02432870  0.13899821  0.36199191  1
  H+  H13  1  0.22050456  0.60226050  0.17084126  1
  H+  H14  1  0.40981500  0.35039771  0.15729135  1
  H+  H15  1  0.11522139  0.05488064  0.70013986  1
  H+  H16  1  0.38485096  0.10507382  0.32003411  1
  H+  H17  1  0.62815747  0.87060307  0.32391114  1
  H+  H18  1  0.64138008  0.04135864  0.31789788  1
  H+  H19  1  0.97620658  0.86098095  0.99802943  1
  H+  H20  1  0.22170290  0.39697024  0.66035103  1
  H+  H21  1  0.39968033  0.52162597  0.15492737  1
  H+  H22  1  0.23096196  0.10124459  0.98879113  1
  H+  H23  1  0.73735289  0.86539117  0.83966425  1
  H+  H24  1  0.59165419  0.66744871  0.06360660  1
  H+  H25  1  0.57806937  0.16002630  0.76463174  1
  H+  H26  1  0.39164076  0.52500095  0.51076468  1
  H+  H27  1  0.11215807  0.25415699  0.17175427  1
  H+  H28  1  0.86223556  0.38786541  0.67336490  1
  H+  H29  1  0.43571066  0.37053602  0.66290100  1
  H+  H30  1  0.11390068  -0.02094932  0.34926650  1
  H+  H31  1  0.41948027  0.84714956  0.94284673  1
  H+  H32  1  0.88556655  0.52700602  0.48496319  1
  H+  H33  1  0.60833193  0.87775555  0.67588257  1
  H+  H34  1  0.37809339  0.84652273  0.32689931  1
  H+  H35  1  0.20895053  0.11601787  0.67335258  1
  H+  H36  1  0.53009620  0.13669602  0.66774805  1
  H+  H37  1  0.36864801  0.15499955  0.82980703  1
  H+  H38  1  0.48129728  0.61309816  0.50193363  1
  H+  H39  1  0.23125117  0.36562130  0.84232878  1
  H+  H40  1  0.31851317  0.91549882  0.80013022  1
  H+  H41  1  0.92233773  0.83846546  0.90391924  1
  H+  H42  1  0.61178102  0.13219004  1.00331799  1
  H+  H43  1  0.13581188  0.37190975  -0.00722796  1
  H+  H44  1  0.88320450  0.33893543  0.83169525  1
  H+  H45  1  -0.06248246  0.32529909  0.50327197  1
  H+  H46  1  0.77592877  0.88262515  0.01337860  1
  H+  H47  1  0.22827414  0.85601088  0.64773542  1
  H+  H48  1  0.89882755  0.87513324  0.32817829  1
  H+  H49  1  0.22001884  0.36933925  0.31493708  1
  H+  H50  1  0.50843507  0.88553025  0.31129681  1
  H+  H51  1  0.37262546  0.97424826  0.64827811  1
  H+  H52  1  0.10565551  0.46926519  0.15933296  1
  H+  H53  1  0.20800042  0.85039200  0.86617122  1
  H+  H54  1  0.10033908  0.13913527  0.51768858  1
  H+  H55  1  0.76243432  0.37665457  0.16767185  1
  H+  H56  1  0.63612591  0.26746323  0.99314308  1
  H+  H57  1  0.10756522  0.72135073  0.82902445  1
  H+  H58  1  0.18303210  0.86121078  0.27455323  1
  H+  H59  1  0.65031497  0.51955104  0.68820781  1
  H+  H60  1  0.85447881  0.42746233  0.86269840  1
  H+  H61  1  0.27060468  0.13157935  0.34606442  1
  H+  H62  1  0.37070685  0.90839527  0.02474520  1
  H+  H63  1  0.65081195  0.87116572  0.84384949  1
  H+  H64  1  0.87014565  0.63240508  0.16277985  1
  H+  H65  1  -0.01821197  0.86770808  0.84402360  1
  H+  H66  1  0.27041325  0.12530382  0.13931232  1
  H+  H67  1  0.11963352  0.64568604  0.48925942  1
  H+  H68  1  0.98646360  0.87159074  0.33090212  1
  H+  H69  1  0.86888363  0.72373814  0.00654160  1
  H+  H70  1  0.10884500  0.88253245  0.01752516  1
  H+  H71  1  0.38210295  0.28302749  0.83459199  1
  H+  H72  1  0.36708738  0.22594611  -0.00150018  1
  H+  H73  1  0.65150611  0.62638596  0.83396017  1
  H+  H74  1  0.87152630  0.73688812  0.33259084  1
  H+  H75  1  0.78420924  0.64410805  0.82732491  1
  H+  H76  1  0.22668410  0.86620561  0.01180000  1
  H+  H77  1  0.34830962  0.95921967  0.07624230  1
  H+  H78  1  0.88493847  0.51381854  0.18289842  1
  H+  H79  1  0.13864670  0.61398753  0.84024229  1
  H+  H80  1  0.02835233  0.14545238  0.82865553  1
  H+  H81  1  0.72446514  0.32915931  0.29029692  1
  H+  H82  1  0.11810044  0.63347577  0.01251392  1
  H+  H83  1  0.02232192  0.88783870  0.16295296  1
  H+  H84  1  0.36050552  0.63775342  0.66594035  1
  H+  H85  1  0.20990652  0.36705791  0.51074892  1
  H+  H86  1  0.11186717  0.16176784  0.66844348  1
  H+  H87  1  0.47341311  0.60982805  0.31222777  1
  H+  H88  1  0.52804612  0.63454594  0.15328591  1
  H+  H89  1  0.47372336  0.61975589  0.66095470  1
  H+  H90  1  0.14433032  0.27465749  0.84152951  1
  H+  H91  1  0.73352710  0.62544806  0.32100345  1
  H+  H92  1  0.53020906  0.64579471  0.00615567  1
  H+  H93  1  0.19570963  0.34787837  0.17713299  1
  H+  H94  1  0.88063748  0.25842327  0.98883236  1
  H+  H95  1  0.97958108  0.10555843  0.18739722  1
  H+  H96  1  0.14123515  0.62676912  0.66525907  1
  H+  H97  1  0.76046968  0.37863286  0.35569048  1
  H+  H98  1  0.38298113  0.73704502  0.48359966  1
  H+  H99  1  0.48405084  0.09088020  0.16872847  1
  H+  H100  1  0.36962913  0.48288228  0.82666995  1
  H+  H101  1  0.73259770  0.36109415  0.66776323  1
  H+  H102  1  0.61708213  0.64212542  0.47735145  1
  H+  H103  1  0.89366764  0.12594492  0.33347035  1
  H+  H104  1  0.36515643  0.04396137  0.85308319  1
  H+  H105  1  0.63782909  0.76524540  0.16841039  1
  H+  H106  1  0.89551252  0.09390050  0.45375525  1
  H+  H107  1  0.35673551  0.37580260  0.51401089  1
  H+  H108  1  0.15818118  0.89338350  0.17967809  1
  H+  H109  1  0.11231714  0.86751796  0.66593152  1
  H+  H110  1  0.39254037  0.03578974  0.99225916  1
  H+  H111  1  0.15909746  0.82264972  0.59348758  1
  H+  H112  1  0.12780804  0.52370798  0.32018138  1
  H+  H113  1  -0.00595902  0.37040042  0.32032306  1
  H+  H114  1  0.11121613  0.72483120  0.67129419  1
  H+  H115  1  0.85559871  0.97002208  0.49123850  1
  H+  H116  1  0.47457541  0.35890016  -0.00865846  1
  H+  H117  1  0.74383024  0.62667524  0.48917307  1
  H+  H118  1  0.33791461  0.39649944  0.66865674  1
  H+  H119  1  0.03618526  0.18203985  0.65992689  1
  H+  H120  1  0.40003713  0.31777258  0.25738916  1
  H+  H121  1  0.85472718  0.22440170  0.15121775  1
  H+  H122  1  0.87177170  0.64079114  0.48375486  1
  H+  H123  1  0.97135540  0.36281253  0.16913528  1
  H+  H124  1  0.03206493  0.38755696  0.82963562  1
  H+  H125  1  0.10083896  0.23479067  0.01325536  1
  H+  H126  1  0.63658588  0.35057013  0.50926008  1
  H+  H127  1  0.02355790  0.64095323  0.33498427  1
  H+  H128  1  0.25802312  0.93053018  0.18344497  1
  H+  H129  1  0.61648677  0.13388840  0.67295270  1
  H+  H130  1  0.40070198  0.10139000  0.66065441  1
  H+  H131  1  0.84191307  0.23535648  0.52332937  1
  H+  H132  1  0.71159027  0.84120226  0.65756792  1
  H+  H133  1  0.46532117  0.84516614  0.17385625  1
  H+  H134  1  0.27678372  0.40758002  0.99897563  1
  H+  H135  1  0.01771974  0.61360368  0.16802541  1
  H+  H136  1  0.64299978  0.77314880  -0.00464650  1
  H+  H137  1  0.60064489  0.36340011  0.84168597  1
  H+  H138  1  0.34771192  -0.00998014  0.50447930  1
  H+  H139  1  0.39651276  0.76691580  0.84895346  1
  H+  H140  1  0.27383005  0.64745902  1.00289107  1
  H+  H141  1  0.52035056  0.87847515  0.67362157  1
  H+  H142  1  0.62477070  0.23641690  0.35004769  1
  H+  H143  1  0.64184591  0.61355608  0.98991647  1
  H+  H144  1  0.88022090  0.36017647  0.17476680  1
  H+  H145  1  0.87589326  0.62610494  0.65771686  1
  H+  H146  1  0.35394872  0.62286498  0.15160961  1
  H+  H147  1  0.57214792  0.15667900  0.09613738  1
  H+  H148  1  0.45118688  0.10804923  0.50447978  1
  H+  H149  1  0.62603911  0.89936711  0.50811443  1
  H+  H150  1  0.88931146  0.52115178  0.65743450  1
  H+  H151  1  0.84837947  0.85534895  0.66609460  1
  H+  H152  1  0.09311542  0.39816223  0.66613536  1
  H+  H153  1  0.76393132  0.37350819  0.83257228  1
  H+  H154  1  0.37616468  0.75684835  0.17246998  1
  H+  H155  1  0.12749126  0.77342944  0.50087439  1
  H+  H156  1  0.86386561  0.88406984  0.82853570  1
  H+  H157  1  0.22460135  0.11414503  0.83468316  1
  H+  H158  1  0.63552342  0.31787297  0.22541589  1
  H+  H159  1  0.76707594  0.13540890  0.14975446  1
  H+  H160  1  0.10722954  0.89023218  0.49710252  1
  H+  H161  1  0.10892815  0.95276293  0.65958199  1
  H+  H162  1  0.88626853  0.61522632  0.32700781  1
  H+  H163  1  0.87255558  0.99187503  0.34458623  1
  H+  H164  1  0.36498410  0.72746044  0.33222001  1
  H+  H165  1  0.34408768  0.10033622  0.13957509  1
  H+  H166  1  0.59270056  0.12981657  0.52205256  1
  H+  H167  1  0.61239415  0.63159774  0.32884650  1
  H+  H168  1  0.89264365  0.76913565  0.17789202  1
  H+  H169  1  0.38888828  0.37633494  0.83165629  1
  H+  H170  1  0.78216285  0.62934633  0.67152750  1
  H+  H171  1  0.04868453  0.43379527  0.48156593  1
  H+  H172  1  0.73390125  0.61609409  0.17089355  1
  H+  H173  1  0.37221546  0.26896180  0.32169142  1
  H+  H174  1  0.63085142  0.02122651  0.66032717  1
  H+  H175  1  0.36261446  0.50141651  0.99833138  1
  H+  H176  1  0.88649598  0.53598992  0.82757726  1
  H+  H177  1  1.07470435  0.16240224  0.42543658  1
  H+  H178  1  0.51546406  0.87637839  0.83001645  1
  H+  H179  1  0.88046730  0.01378076  1.00082442  1
  H+  H180  1  0.52545136  0.13828712  1.00232461  1
  H+  H181  1  0.41505129  0.98289657  0.79300484  1
  H+  H182  1  0.14002729  0.78697664  0.32446241  1
  H+  H183  1  0.21356926  0.86636240  0.50603678  1
  H+  H184  1  0.65247224  0.53127053  0.32333517  1
  H+  H185  1  0.89394192  1.01533939  0.19200577  1
  H+  H186  1  0.71831683  0.36414578  0.99442644  1
  H+  H187  1  0.88006183  0.34657789  0.98513804  1
  H+  H188  1  0.14500884  0.32566609  0.26577960  1
  H+  H189  1  0.50212993  0.61652618  0.84215721  1
  H+  H190  1  0.67628206  0.83482839  0.93717015  1
  H+  H191  1  0.96124564  0.18554597  0.88354431  1
  H+  H192  1  0.13868297  0.30471270  0.66139491  1
  H+  H193  1  0.77725703  0.15603014  0.33474489  1
  H+  H194  1  0.63745350  0.36175830  0.16167542  1
  H+  H195  1  0.08851132  0.48296492  0.66659896  1
  H+  H196  1  0.62300574  0.10068609  0.83770709  1
  H+  H197  1  0.59606698  0.21530741  0.15669523  1
  H+  H198  1  0.31790901  0.38271212  0.13416880  1
  H+  H199  1  0.61858352  0.63524764  0.15730499  1
  H+  H200  1  0.65105674  0.40054428  0.33477015  1
  H+  H201  1  0.64215393  0.26985198  0.66808689  1
  H+  H202  1  0.75917459  0.11846339  0.82120316  1
  H+  H203  1  0.60569271  0.72117546  0.66886130  1
  H+  H204  1  0.38878215  0.86007025  0.64259444  1
  H+  H205  1  0.37070600  0.63270995  0.33213036  1
  H+  H206  1  0.39527082  0.81186752  0.25919404  1
  H+  H207  1  0.40083627  0.85753056  0.83589898  1
  H+  H208  1  0.55007949  0.43062812  0.44797288  1
  H+  H209  1  0.11565309  0.72117770  1.02198524  1
  H+  H210  1  0.34982392  0.92395284  0.40968978  1
  H+  H211  1  0.39252750  0.97650256  0.35025976  1
  H+  H212  1  -0.02548191  0.84729482  0.65242721  1
  H+  H213  1  -0.02107278  0.86772293  0.50243893  1
  H+  H214  1  0.87396761  0.72390959  0.65659329  1
  H+  H215  1  0.87318068  0.73156990  0.48633296  1
  H+  H216  1  0.11891352  0.97466230  0.82169547  1
  H+  H217  1  0.11285108  0.38453241  0.33068739  1
  H+  H218  1  0.08025531  0.36588609  0.49190908  1
  H+  H219  1  0.50588701  0.37344873  0.83537298  1
  H+  H220  1  0.48046425  0.87149800  0.99993049  1
  H+  H221  1  0.35492022  0.13234699  0.50277129  1
  H+  H222  1  0.60738544  -0.02044210  0.82702437  1
  H+  H223  1  0.87518993  0.27358765  0.65643205  1
  H+  H224  1  0.63580915  0.01849861  0.99044394  1
  H+  H225  1  0.61376537  0.47678475  -0.00397097  1
  H+  H226  1  0.63763937  0.48373717  0.15052880  1
  H+  H227  1  0.38706064  0.25365667  0.16474611  1
  H+  H228  1  0.72442242  0.85686435  0.50406820  1
  H+  H229  1  0.58547636  0.16729529  0.40304694  1
  H+  H230  1  0.86622538  0.88039615  0.16547653  1
  H+  H231  1  0.63495217  0.38083296  0.68962980  1
  H+  H232  1  0.01165417  0.14407433  0.01372741  1
  H+  H233  1  0.63217720  0.77170464  0.49923784  1
  H+  H234  1  0.89194474  0.28119590  0.32476783  1
  H+  H235  1  0.85491430  0.12918028  0.00379877  1
  H+  H236  1  0.51759878  0.13527033  0.82483907  1
  H+  H237  1  0.41851143  0.05840108  0.23149750  1
  H+  H238  1  0.54777043  0.38042265  0.68968634  1
  H+  H239  1  0.84874759  0.20729956  0.82113022  1
  H+  H240  1  0.37796766  0.25940087  0.51366913  1
  H+  H241  1  0.88604982  0.86134138  0.50256685  1
  H+  H242  1  0.85312539  0.49265740  0.01094922  1
  H+  H243  1  0.60969131  0.87816028  0.15723553  1
  H+  H244  1  0.92823359  0.08824673  0.28050100  1
  H+  H245  1  0.01982543  0.38695269  0.00177197  1
  H+  H246  1  0.64168086  0.22868221  0.50466608  1
  H+  H247  1  0.47853932  0.11755851  0.32170580  1
  H+  H248  1  0.02060390  0.63392424  0.82329319  1
  H+  H249  1  0.37675908  0.64414994  0.49144823  1
  H+  H250  1  0.10014106  0.23025804  0.51643033  1
  H+  H251  1  0.33731602  0.16063971  0.05647797  1
  H+  H252  1  0.62934860  0.10500600  0.16712215  1
  H+  H253  1  0.12163273  0.39216694  0.83595959  1
  H+  H254  1  0.66420651  0.83643318  0.37359038  1
  H+  H255  1  0.88879613  0.12136286  0.84106387  1
  H+  H256  1  0.62104884  0.73918702  0.82733865  1
  H+  H257  1  0.83557950  -0.06330861  0.66772985  1
  H+  H258  1  0.13758474  0.52651398  0.99404317  1
  H+  H259  1  0.35545544  0.37809270  0.31537740  1
  H+  H260  1  0.13032212  0.01766602  0.15958899  1
  H+  H261  1  0.77796353  0.88201533  0.16359822  1
  H+  H262  1  0.83921882  0.67539953  0.39044527  1
  H+  H263  1  0.61364082  0.48767367  0.49868879  1
  H+  H264  1  0.92859367  0.06305433  0.67340820  1
  H+  H265  1  0.35687153  0.49387085  0.67110527  1
  H+  H266  1  0.84840101  0.13393548  0.66771812  1
  H+  H267  1  0.36240147  0.63389076  0.84726123  1
  H+  H268  1  0.13327143  0.10798537  0.83460904  1
  H+  H269  1  0.36038417  0.74073879  1.00922351  1
  H+  H270  1  0.97915104  0.61057851  0.65522008  1
  H+  H271  1  0.26276958  0.63844338  0.66830889  1
  H+  H272  1  0.11114157  0.13773206  0.15514953  1
  H+  H273  1  0.88599619  0.85787367  0.99868882  1
  H+  H274  1  0.60886527  0.38490440  -0.00426756  1
  H+  H275  1  0.39368066  0.64030593  0.99478271  1
  H+  H276  1  0.46732874  0.54080212  0.88929916  1
  H+  H277  1  0.32628711  0.14566527  0.63652383  1
  H+  H278  1  0.11497774  0.61101508  0.16507774  1
  H+  H279  1  0.34253984  0.23055242  0.66748705  1
  H+  H280  1  0.82121001  0.38649696  0.46216104  1
  H+  H281  1  0.16814819  0.54787906  0.51387055  1
  H+  H282  1  0.25024895  0.63711370  0.50765699  1
  H+  H283  1  0.89020113  0.62618462  0.83736677  1
  H+  H284  1  0.78547005  0.90267284  0.33590145  1
  H+  H285  1  0.02619078  0.63601791  0.48559139  1
  H+  H286  1  0.34492781  0.90060621  0.51321526  1
  H+  H287  1  0.83048866  0.12190149  0.51951412  1
  H+  H288  1  0.87358752  0.63767765  0.00237154  1
  H+  H289  1  0.41669058  0.57998656  0.21540755  1
  H+  H290  1  0.12624370  0.02449341  0.50962028  1
  H+  H291  1  0.65419482  0.06969417  0.89774731  1
  H+  H292  1  0.07491772  0.41654377  0.06316508  1
  H+  H293  1  0.92716822  0.58257676  0.92869241  1
  H+  H294  1  0.92306858  0.83234271  0.23631766  1
  H+  H295  1  0.64130508  0.12904967  0.32455112  1
  H+  H296  1  0.08826517  0.67213822  0.39044904  1
  H+  H297  1  0.92233900  0.33451223  0.25697259  1
  H+  H298  1  0.17659069  0.60347876  0.60419340  1
  H+  H299  1  0.55447497  0.92417395  0.37162300  1
  H+  H300  1  0.12996940  0.11650559  0.35787951  1
  H+  H301  1  0.41964107  0.59393021  0.59824710  1
  H+  H302  1  0.46859738  0.35190741  0.51991219  1
  H+  H303  1  0.60551560  0.42566481  0.08921259  1
  H+  H304  1  0.16615530  0.58693594  0.93476748  1
  H+  H305  1  0.66535458  0.33033886  0.57230555  1
  H+  H306  1  0.65989772  0.55580873  0.62358028  1
  H+  H307  1  0.91038769  0.07512427  0.94146983  1
  H+  H308  1  0.15987504  0.57615745  0.23357614  1
  H+  H309  1  0.42202678  0.10081423  0.90736308  1
  H+  H310  1  0.11378469  0.97350149  0.00736360  1
  H+  H311  1  0.58543931  0.91361394  0.06427839  1
  H+  H312  1  0.07789792  0.64649794  0.10348353  1
  H+  H313  1  0.08270408  0.17640458  0.76714985  1
  H+  H314  1  0.72352365  0.10912262  0.98640955  1
  H+  H315  1  0.08289829  0.92170160  0.43597728  1
  H+  H316  1  0.83198100  0.91421025  0.43145225  1
  H+  H317  1  0.41603560  0.08335497  0.58697709  1
  H+  H318  1  0.82492953  0.16688515  0.05932556  1
  H+  H319  1  0.89901783  0.05836105  0.60537751  1
  H+  H320  1  0.36212925  0.73095711  0.66188744  1
  H+  H321  1  0.91940712  0.57637875  0.24077775  1
  H+  H322  1  0.16610429  0.33673878  0.93670092  1
  H+  H323  1  0.57644158  0.66419339  0.42097564  1
  H+  H324  1  0.07720357  0.91623982  0.10039635  1
  H+  H325  1  0.34691355  0.91267032  0.70541007  1
  H+  H326  1  0.18773022  0.08430088  0.21045333  1
  H+  H327  1  0.27735578  0.63986323  0.84336981  1
  H+  H328  1  0.64224632  0.43773664  0.39528937  1
  H+  H329  1  0.12909186  0.61338521  0.31717506  1
  H+  H330  1  0.66644053  0.08645973  0.22658700  1
  H+  H331  1  0.77370271  0.47762156  0.04915676  1
  H+  H332  1  0.33642652  0.17228751  0.76671525  1
  H+  H333  1  0.65471167  0.82327440  0.59765826  1
  H+  H334  1  0.16045321  0.82740941  0.95599899  1
  H+  H335  1  0.09560425  0.37506275  0.15734767  1
  H+  H336  1  0.39160186  0.12535572  0.99081723  1
  H+  H337  1  0.08741262  0.90673406  0.76626811  1
  H+  H338  1  0.42497293  0.82717675  0.58960589  1
  H+  H339  1  0.58681003  0.67913713  0.76654218  1
  H+  H340  1  0.32182919  0.65989047  0.09811230  1
  H+  H341  1  0.33755904  0.16427375  0.39939806  1
  H+  H342  1  0.82361390  0.89280157  0.76671456  1
  H+  H343  1  0.49537851  0.88151962  0.49905005  1
  H+  H344  1  0.66103544  0.32088840  0.90093096  1
  H+  H345  1  0.91403492  0.57250630  0.55106785  1
  H+  H346  1  0.06810409  0.40253045  0.38992136  1
  H+  H347  1  0.81885073  0.17942417  0.39889727  1
  H+  H348  1  0.91672895  0.82353755  0.59095267  1
  H+  H349  1  0.66521386  0.82380444  0.22768246  1
  H+  H350  1  0.38248075  0.52252559  0.30623488  1
  H+  H351  1  0.60644293  0.71776345  0.32763725  1
  H+  H352  1  0.60687025  0.96543226  0.15860756  1
  H+  H353  1  0.83719070  0.91287013  0.07266195  1
  H+  H354  1  0.89143662  0.32141598  0.57147967  1
  H+  H355  1  0.96405663  0.36753054  0.65071850  1
  H+  H356  1  0.84170217  0.42107090  0.73534633  1
  H+  H357  1  0.32908603  0.42913642  0.76534628  1
  H+  H358  1  0.58504061  0.40664794  0.78056733  1
  H+  H359  1  0.16617780  0.06928468  0.93298706  1
  H+  H360  1  0.57772947  0.91154149  0.76359285  1
  H+  H361  1  0.42946082  0.61075039  0.93733988  1
  H+  H362  1  0.14739855  0.09657695  0.29243031  1
  H+  H363  1  0.33667353  0.42747446  0.36959806  1
  H+  H364  1  0.39219174  0.32820036  0.59968087  1
  H+  H365  1  0.91123698  0.31271844  0.89285509  1
  H+  H366  1  0.14024490  0.52540778  0.84499065  1
  H+  H367  1  0.67537639  0.58999745  0.89119999  1
  H+  H368  1  0.15501513  0.35263082  0.57041615  1
  H+  H369  1  0.41135008  0.33387329  0.93521919  1
  H+  H370  1  0.08046403  0.66671781  0.73253050  1
  H+  H371  1  0.64077050  0.99360653  0.49537889  1
  H+  H372  1  0.82151410  0.41846156  0.10995745  1
  H+  H373  1  0.88570623  0.52699955  0.34243329  1
  H+  H374  1  0.34652850  0.66647509  0.39822238  1
  H+  H375  1  0.32290146  0.39592508  0.45560587  1
  H+  H376  1  0.36171427  0.43171444  0.07347244  1
  H+  H377  1  0.15348692  0.07592301  0.57189605  1
  H+  H378  1  0.07144281  0.16858787  0.10079103  1
  H+  H379  1  0.69305527  0.63202075  0.54515380  1
  H+  H380  1  0.67179730  0.58547714  0.22862351  1
  H+  H381  1  0.82215768  0.16322593  0.72773593  1
  H+  H382  1  0.84416182  0.66358287  0.10194681  1
  H+  H383  1  0.96421996  0.11936844  0.50496503  1
  O2-  O384  1  0.07592901  0.16521198  0.14748247  1
  O2-  O385  1  0.06559972  0.16727141  0.50866556  1
  O2-  O386  1  0.08712444  0.16802669  0.81100995  1
  O2-  O387  1  0.07077665  0.41040799  0.14156671  1
  O2-  O388  1  0.03496204  0.37536222  0.47186146  1
  O2-  O389  1  0.09389100  0.42551903  0.82318284  1
  O2-  O390  1  0.07817626  0.64104543  0.14987552  1
  O2-  O391  1  0.08737732  0.67203301  0.47252683  1
  O2-  O392  1  0.08205192  0.66448397  0.80895789  1
  O2-  O393  1  0.08179376  0.92161570  0.14605550  1
  O2-  O394  1  0.07990814  0.92362712  0.48212005  1
  O2-  O395  1  0.08948502  0.91182487  0.81105742  1
  O2-  O396  1  0.33234614  0.14902944  0.13006986  1
  O2-  O397  1  0.32913821  0.16838265  0.48548478  1
  O2-  O398  1  0.33491252  0.17950707  0.81084429  1
  O2-  O399  1  0.37333272  0.42729137  0.11945877  1
  O2-  O400  1  0.32855900  0.40861730  0.49894544  1
  O2-  O401  1  0.33474407  0.42359491  0.81006382  1
  O2-  O402  1  0.31910817  0.65097901  0.14312701  1
  O2-  O403  1  0.34782219  0.67437333  0.47332313  1
  O2-  O404  1  0.34039481  0.67070168  0.83348503  1
  O2-  O405  1  0.35421116  1.01622542  0.14930677  1
  O2-  O406  1  0.31749606  0.92640130  0.48978927  1
  O2-  O407  1  0.37310501  0.92235192  0.78624770  1
  O2-  O408  1  0.56824799  0.15432999  0.14184145  1
  O2-  O409  1  0.62518219  0.16913076  0.48921437  1
  O2-  O410  1  0.57770144  0.15877426  0.81066238  1
  O2-  O411  1  0.63248637  0.43226565  0.12986560  1
  O2-  O412  1  0.57398760  0.42687685  0.48699188  1
  O2-  O413  1  0.57220282  0.39709987  0.82561056  1
  O2-  O414  1  0.59015206  0.66730217  0.14142947  1
  O2-  O415  1  0.58014232  0.66681244  0.46653355  1
  O2-  O416  1  0.59005080  0.67841075  0.81162817  1
  O2-  O417  1  0.57689367  0.90566430  0.14239833  1
  O2-  O418  1  0.59712738  0.93390923  0.50353533  1
  O2-  O419  1  0.57843253  0.91522798  0.81078888  1
  O2-  O420  1  0.82415436  0.16859615  0.13023021  1
  O2-  O421  1  0.79149720  0.14652913  0.52568125  1
  O2-  O422  1  0.81824346  0.14734232  0.80426854  1
  O2-  O423  1  0.82378364  0.40952002  0.15432482  1
  O2-  O424  1  0.82042508  0.43663923  0.44578160  1
  O2-  O425  1  0.82730937  0.40426302  0.82338277  1
  O2-  O426  1  0.84173781  0.66390281  0.14734141  1
  O2-  O427  1  0.84146459  0.67170371  0.46958232  1
  O2-  O428  1  0.84667178  0.67331549  0.81591160  1
  O2-  O429  1  0.83903780  0.91383767  0.15065295  1
  O2-  O430  1  0.82862844  0.90969492  0.47722537  1
  O2-  O431  1  0.82849290  0.90699925  0.81032808  1
  O2-  O432  1  0.16740496  0.08245979  0.16924128  1
  O2-  O433  1  0.15516392  0.08410543  0.52780545  1
  O2-  O434  1  0.16365378  0.07639246  0.84599843  1
  O2-  O435  1  0.13538602  0.31647204  0.18827311  1
  O2-  O436  1  0.14997536  0.34147277  0.52499464  1
  O2-  O437  1  0.17144527  0.33393839  0.85805331  1
  O2-  O438  1  0.15913744  0.57258469  0.18595561  1
  O2-  O439  1  0.19080030  0.60759930  0.52556441  1
  O2-  O440  1  0.17034879  0.58759749  0.85884890  1
  O2-  O441  1  0.20213853  0.88295977  0.19822556  1
  O2-  O442  1  0.15248802  0.83133402  0.52062159  1
  O2-  O443  1  0.14620711  0.82067002  0.87217606  1
  O2-  O444  1  0.42945010  0.04022187  0.18965178  1
  O2-  O445  1  0.39753898  0.08312831  0.52723540  1
  O2-  O446  1  0.41563278  0.10004655  0.85982828  1
  O2-  O447  1  0.41717278  0.31099334  0.18422114  1
  O2-  O448  1  0.40737960  0.32046258  0.53247015  1
  O2-  O449  1  0.41761599  0.34419816  0.84781091  1
  O2-  O450  1  0.42016749  0.58151314  0.17034993  1
  O2-  O451  1  0.42283948  0.58709661  0.52104061  1
  O2-  O452  1  0.44768137  0.57304918  0.86490469  1
  O2-  O453  1  0.40638536  0.81522976  0.19078561  1
  O2-  O454  1  0.43025946  0.84547223  0.49732253  1
  O2-  O455  1  0.43185324  0.83244885  0.85670235  1
  O2-  O456  1  0.66044640  0.07597654  0.18202505  1
  O2-  O457  1  0.74312842  0.12237767  0.46741254  1
  O2-  O458  1  0.64997166  0.06623643  0.85140303  1
  O2-  O459  1  0.65116874  0.31817820  0.18291933  1
  O2-  O460  1  0.66715548  0.32405788  0.52769195  1
  O2-  O461  1  0.65846768  0.32293488  0.85474330  1
  O2-  O462  1  0.67222334  0.58612328  0.18317980  1
  O2-  O463  1  0.68291136  0.60255036  0.50629021  1
  O2-  O464  1  0.67952029  0.59347548  0.84622214  1
  O2-  O465  1  0.66711237  0.82682900  0.18344366  1
  O2-  O466  1  0.66400169  0.82879247  0.51947154  1
  O2-  O467  1  0.67614034  0.83684429  0.85745989  1
  O2-  O468  1  0.92667016  0.07216657  0.21191460  1
  O2-  O469  1  0.89953433  0.08654332  0.49749197  1
  O2-  O470  1  0.93827529  0.12825015  0.86612686  1
  O2-  O471  1  0.91279640  0.33153370  0.18861660  1
  O2-  O472  1  0.88079613  0.30532645  0.52465902  1
  O2-  O473  1  0.91171740  0.30817063  0.84740286  1
  O2-  O474  1  0.92218316  0.57514756  0.19494915  1
  O2-  O475  1  0.91936494  0.58349758  0.50687065  1
  O2-  O476  1  0.91975875  0.59025089  0.84939613  1
  O2-  O477  1  0.92069791  0.83035898  0.19085688  1
  O2-  O478  1  0.91746400  0.83202026  0.51722964  1
  O2-  O479  1  0.92163729  0.83922617  0.85832740  1
  O2-  O480  1  0.15980709  0.08894495  0.33428281  1
  O2-  O481  1  0.14588133  0.08626092  0.66359486  1
  O2-  O482  1  0.16953086  0.06498096  0.97730599  1
  O2-  O483  1  0.15675335  0.34068430  0.30961347  1
  O2-  O484  1  0.16154339  0.36295174  0.64384922  1
  O2-  O485  1  0.16649081  0.34056198  0.98191835  1
  O2-  O486  1  0.15689372  0.58101614  0.30107588  1
  O2-  O487  1  0.17521568  0.59933372  0.64947135  1
  O2-  O488  1  0.16831515  0.58793627  0.98058391  1
  O2-  O489  1  0.16990295  0.84994759  0.31896275  1
  O2-  O490  1  0.16535268  0.82327669  0.63946586  1
  O2-  O491  1  0.16523164  0.82773934  1.00078002  1
  O2-  O492  1  0.42005829  0.08006347  0.30487230  1
  O2-  O493  1  0.42831025  0.07698045  0.63620342  1
  O2-  O494  1  0.42486959  0.09528131  0.97495383  1
  O2-  O495  1  0.39302351  0.32543009  0.30201944  1
  O2-  O496  1  0.37978108  0.33172556  0.64524270  1
  O2-  O497  1  0.41398780  0.32191976  0.97834184  1
  O2-  O498  1  0.41311850  0.58609570  0.29734389  1
  O2-  O499  1  0.41398017  0.59460010  0.64367894  1
  O2-  O500  1  0.42713222  0.61175792  0.98211487  1
  O2-  O501  1  0.39742549  0.80937078  0.30646414  1
  O2-  O502  1  0.41848471  0.82560772  0.63408779  1
  O2-  O503  1  0.41877877  0.84803525  0.98763881  1
  O2-  O504  1  0.67462703  0.10284011  0.30726173  1
  O2-  O505  1  0.65617969  0.08014887  0.64448249  1
  O2-  O506  1  0.66222729  0.07737826  0.97181477  1
  O2-  O507  1  0.70065082  0.33650581  0.32811851  1
  O2-  O508  1  0.67059916  0.33236640  0.65578574  1
  O2-  O509  1  0.66257783  0.32603226  0.97392942  1
  O2-  O510  1  0.67197890  0.59074710  0.30778046  1
  O2-  O511  1  0.67405855  0.57525069  0.66563935  1
  O2-  O512  1  0.67023709  0.58199250  0.97367166  1
  O2-  O513  1  0.66226497  0.84082662  0.32941677  1
  O2-  O514  1  0.65140200  0.82053564  0.64317134  1
  O2-  O515  1  0.67265829  0.83499332  0.98242138  1
  O2-  O516  1  0.92404446  0.09363434  0.32699215  1
  O2-  O517  1  0.88001401  0.05237859  0.64763118  1
  O2-  O518  1  0.90526062  0.07468129  0.98609898  1
  O2-  O519  1  0.92859559  0.33871099  0.30409088  1
  O2-  O520  1  0.90009581  0.33208129  0.63749395  1
  O2-  O521  1  0.91242614  0.31974984  0.97104374  1
  O2-  O522  1  0.91507780  0.58146351  0.31727437  1
  O2-  O523  1  0.91885277  0.57994781  0.63860494  1
  O2-  O524  1  0.92559651  0.57961906  0.97406633  1
  O2-  O525  1  0.92636463  0.84246510  0.31368553  1
  O2-  O526  1  0.91402434  0.81628949  0.63694632  1
  O2-  O527  1  0.91601953  0.82818220  0.98178897  1
  O2-  O528  1  0.06940080  0.17708151  0.03217626  1
  O2-  O529  1  0.08160096  0.16074088  0.38119263  1
  O2-  O530  1  0.08764101  0.19756362  0.68371042  1
  O2-  O531  1  0.07898377  0.42167942  0.01783268  1
  O2-  O532  1  0.07605446  0.41228410  0.34570594  1
  O2-  O533  1  0.05384578  0.42097308  0.67430517  1
  O2-  O534  1  0.08375993  0.65819129  0.03141793  1
  O2-  O535  1  0.08602303  0.67161913  0.34540046  1
  O2-  O536  1  0.07988994  0.66416561  0.68664982  1
  O2-  O537  1  0.07744773  0.91374762  0.02590758  1
  O2-  O538  1  0.08400415  0.91773767  0.36206661  1
  O2-  O539  1  0.07943892  0.89684642  0.67982348  1
  O2-  O540  1  0.33813856  0.16264483  0.01062090  1
  O2-  O541  1  0.33328220  0.15940413  0.35453368  1
  O2-  O542  1  0.31746263  0.16721785  0.67512153  1
  O2-  O543  1  0.33927383  0.43997502  0.00803049  1
  O2-  O544  1  0.33046616  0.41954912  0.32589544  1
  O2-  O545  1  0.31895875  0.43447154  0.68746865  1
  O2-  O546  1  0.33299674  0.67871406  0.02057077  1
  O2-  O547  1  0.34325197  0.66491794  0.35216811  1
  O2-  O548  1  0.32989172  0.67022725  0.67961813  1
  O2-  O549  1  0.33940532  0.93972815  0.03295543  1
  O2-  O550  1  0.38546560  0.92702233  0.37445387  1
  O2-  O551  1  0.33964901  0.91119633  0.66090173  1
  O2-  O552  1  0.58513709  0.16533253  0.01959861  1
  O2-  O553  1  0.58475990  0.17359436  0.35860373  1
  O2-  O554  1  0.58717667  0.16648107  0.68855245  1
  O2-  O555  1  0.58177710  0.41677648  0.01248803  1
  O2-  O556  1  0.62571135  0.43372295  0.35272187  1
  O2-  O557  1  0.60457929  0.41235448  0.70800242  1
  O2-  O558  1  0.59146203  0.66850545  0.01805567  1
  O2-  O559  1  0.57640937  0.65791631  0.34226610  1
  O2-  O560  1  0.57437042  0.66207498  0.68786529  1
  O2-  O561  1  0.58574986  0.91584430  0.01863265  1
  O2-  O562  1  0.56739690  0.92163191  0.32880145  1
  O2-  O563  1  0.57783390  0.90690653  0.69338825  1
  O2-  O564  1  0.82667283  0.16419304  0.01271464  1
  O2-  O565  1  0.83481418  0.18639062  0.35542809  1
  O2-  O566  1  0.82530279  0.17013898  0.68232659  1
  O2-  O567  1  0.80346985  0.44761618  0.03548429  1
  O2-  O568  1  0.83767656  0.43240970  0.38065215  1
  O2-  O569  1  0.83671894  0.42204439  0.69081831  1
  O2-  O570  1  0.84043032  0.66244132  0.02085962  1
  O2-  O571  1  0.83751219  0.67504177  0.34519123  1
  O2-  O572  1  0.84678678  0.66148521  0.67322710  1
  O2-  O573  1  0.83711832  0.91260316  0.02699985  1
  O2-  O574  1  0.84207930  0.92859913  0.35571065  1
  O2-  O575  1  0.81169532  0.87754187  0.68286004  1
