# generated using pymatgen
data_H2O
_symmetry_space_group_name_H-M   'P 1'
_cell_length_a   18.00263988
_cell_length_b   18.00074854
_cell_length_c   22.01485664
_cell_angle_alpha   89.98770585
_cell_angle_beta   90.01077972
_cell_angle_gamma   120.01330423
_symmetry_Int_Tables_number   1
_chemical_formula_structural   H2O
_chemical_formula_sum   'H384 O192'
_cell_volume   6177.53198328
_cell_formula_units_Z   192
loop_
 _symmetry_equiv_pos_site_id
 _symmetry_equiv_pos_as_xyz
  1  'x, y, z'
loop_
 _atom_type_symbol
 _atom_type_oxidation_number
  H+  1.0
  O2-  -2.0
loop_
 _atom_site_type_symbol
 _atom_site_label
 _atom_site_symmetry_multiplicity
 _atom_site_fract_x
 _atom_site_fract_y
 _atom_site_fract_z
 _atom_site_occupancy
  H+  H0  1  0.88029761  0.76775306  0.33131240  1
  H+  H1  1  0.37447269  0.78403334  0.17717901  1
  H+  H2  1  0.22176432  0.10913101  0.50044722  1
  H+  H3  1  0.38111596  0.64946850  0.67430887  1
  H+  H4  1  0.45839691  0.72528765  0.39389521  1
  H+  H5  1  0.35789652  0.38417547  0.02113560  1
  H+  H6  1  0.24613046  0.36488230  0.18480488  1
  H+  H7  1  0.87468070  0.51457015  0.34257209  1
  H+  H8  1  0.23979649  0.10077459  0.40630858  1
  H+  H9  1  0.63462842  0.37937765  0.32539138  1
  H+  H10  1  0.62982042  0.66897486  0.80624229  1
  H+  H11  1  0.49376080  0.08936598  0.66174325  1
  H+  H12  1  0.37278534  0.23470480  0.51561475  1
  H+  H13  1  0.60094368  0.91333349  0.05613606  1
  H+  H14  1  0.10462952  0.12037577  0.83723953  1
  H+  H15  1  0.85621087  0.96568235  0.66709286  1
  H+  H16  1  0.85744240  0.88289755  0.34154253  1
  H+  H17  1  0.21443471  0.10435658  0.16887224  1
  H+  H18  1  0.38997680  0.37000952  0.51165222  1
  H+  H19  1  0.38628267  0.98971139  0.01797003  1
  H+  H20  1  0.88465228  0.78290955  0.83900811  1
  H+  H21  1  0.72920963  0.11607016  0.83743091  1
  H+  H22  1  0.04002250  0.71256776  0.12676752  1
  H+  H23  1  0.11559653  0.72173876  0.33150317  1
  H+  H24  1  0.88053088  0.77082721  0.66403023  1
  H+  H25  1  0.86095027  0.21529852  0.49211115  1
  H+  H26  1  0.82568739  0.91370259  0.73006070  1
  H+  H27  1  0.13593223  0.10955333  0.48151350  1
  H+  H28  1  0.88298386  0.01736292  0.84442609  1
  H+  H29  1  0.37763038  0.14576161  0.51361583  1
  H+  H30  1  0.41516753  0.34139963  0.60796783  1
  H+  H31  1  0.33459273  0.91646224  0.76871358  1
  H+  H32  1  0.37309492  0.27021587  0.85010846  1
  H+  H33  1  0.96818184  0.10808558  0.99251492  1
  H+  H34  1  0.84441406  0.64255361  0.82786683  1
  H+  H35  1  0.16578660  0.58372441  0.55878916  1
  H+  H36  1  0.71934019  0.61387617  0.52639288  1
  H+  H37  1  0.11175349  0.97481958  0.83014021  1
  H+  H38  1  0.63905303  0.36918795  0.66382391  1
  H+  H39  1  0.03481092  0.38650649  0.67384253  1
  H+  H40  1  0.77663623  0.38562551  0.66368965  1
  H+  H41  1  0.88701817  0.78253374  0.98144387  1
  H+  H42  1  0.38532200  0.76274407  0.99493924  1
  H+  H43  1  0.10925733  -0.03201632  0.48284276  1
  H+  H44  1  0.12855088  0.64085912  0.00034241  1
  H+  H45  1  0.48014350  0.37132915  0.51440401  1
  H+  H46  1  0.59874996  0.16131066  0.11979162  1
  H+  H47  1  0.09810957  0.13922439  0.00189063  1
  H+  H48  1  0.73963473  0.62911603  0.17519679  1
  H+  H49  1  0.12475331  0.26858064  0.86197784  1
  H+  H50  1  0.85512611  0.63744231  0.34250876  1
  H+  H51  1  0.71409441  0.86436939  0.66553848  1
  H+  H52  1  0.64266020  0.12170701  0.84221199  1
  H+  H53  1  0.86150884  0.88741899  0.49365980  1
  H+  H54  1  0.36928141  0.90409270  0.17920438  1
  H+  H55  1  0.61342484  0.97040257  0.33823591  1
  H+  H56  1  0.38599565  0.02525786  0.83476390  1
  H+  H57  1  0.97362066  0.86269459  0.50618907  1
  H+  H58  1  0.89813202  0.35392520  0.49776103  1
  H+  H59  1  0.38551195  0.51704033  0.00454965  1
  H+  H60  1  0.92336066  0.33233849  0.27743720  1
  H+  H61  1  0.23462547  0.70658351  0.60667511  1
  H+  H62  1  0.47336466  0.86552074  0.32927403  1
  H+  H63  1  0.03350613  0.88688589  0.16319844  1
  H+  H64  1  0.12149248  0.38530948  0.17969207  1
  H+  H65  1  0.52008336  0.89654690  0.49602606  1
  H+  H66  1  0.19887882  0.12376614  0.66958436  1
  H+  H67  1  1.03325271  0.37374217  0.49288953  1
  H+  H68  1  0.69386879  0.36806388  0.84242941  1
  H+  H69  1  0.37698474  0.85288541  0.33618531  1
  H+  H70  1  0.60940225  0.47532415  0.67626092  1
  H+  H71  1  0.77713067  0.38137137  0.35490644  1
  H+  H72  1  1.01661907  0.62997586  0.48060584  1
  H+  H73  1  0.47459498  0.36380114  0.66655728  1
  H+  H74  1  0.97881227  0.86851405  0.83474307  1
  H+  H75  1  0.91702902  0.83828769  0.56722282  1
  H+  H76  1  0.61855426  0.72308860  0.33007116  1
  H+  H77  1  0.12465866  0.89206537  0.15447585  1
  H+  H78  1  0.82753206  0.83810024  0.14559330  1
  H+  H79  1  0.88180595  0.55990787  0.64917212  1
  H+  H80  1  0.88645716  0.74671049  0.18828806  1
  H+  H81  1  0.62876956  1.02878886  0.49922415  1
  H+  H82  1  0.47281103  0.60492145  0.99476736  1
  H+  H83  1  0.66857918  0.08859321  0.58786763  1
  H+  H84  1  0.89803598  0.12358342  0.17197705  1
  H+  H85  1  0.85684913  0.97167148  0.33905212  1
  H+  H86  1  0.84261919  0.50475726  -0.01832356  1
  H+  H87  1  0.62779263  0.75729386  0.17454491  1
  H+  H88  1  0.10428107  0.62743692  0.48691580  1
  H+  H89  1  1.02120150  0.13562460  0.49248362  1
  H+  H90  1  1.02739070  0.64044277  0.82799782  1
  H+  H91  1  0.17690966  0.33218695  0.57180740  1
  H+  H92  1  0.68924422  0.87408933  -0.09978783  1
  H+  H93  1  0.36249999  0.09236941  0.35566457  1
  H+  H94  1  0.36488889  0.88892598  0.82946094  1
  H+  H95  1  0.89240402  0.35657355  0.18565714  1
  H+  H96  1  0.77380751  0.13819571  0.01322055  1
  H+  H97  1  0.10075196  0.14339561  0.69013849  1
  H+  H98  1  0.52742559  0.87503592  0.00417500  1
  H+  H99  1  0.62824884  0.51138294  -0.01049807  1
  H+  H100  1  0.59747047  0.62606890  0.51001062  1
  H+  H101  1  0.98462261  0.36225778  0.99064384  1
  H+  H102  1  1.03013902  0.64860695  0.67056561  1
  H+  H103  1  0.87964901  0.50001115  0.97052305  1
  H+  H104  1  0.26957975  0.88049101  0.51445569  1
  H+  H105  1  0.86515978  0.22383942  0.34351120  1
  H+  H106  1  0.58773185  0.16255668  0.77066439  1
  H+  H107  1  0.70465971  0.61245968  0.83689691  1
  H+  H108  1  0.22787369  0.61091926  0.99202786  1
  H+  H109  1  0.39105238  0.77060345  0.51200977  1
  H+  H110  1  0.63254178  0.52186703  0.52310744  1
  H+  H111  1  0.87875030  0.52222061  0.83031250  1
  H+  H112  1  0.85917284  0.88742996  1.00607971  1
  H+  H113  1  0.34191964  0.66569338  0.44201862  1
  H+  H114  1  0.87530846  0.44490816  0.64301344  1
  H+  H115  1  0.15329029  0.36565925  0.86056291  1
  H+  H116  1  0.10610326  0.13372280  0.33724030  1
  H+  H117  1  0.24604839  0.88545687  0.17338593  1
  H+  H118  1  0.86979682  0.22480128  0.82827845  1
  H+  H119  1  0.13731972  0.73591521  1.00276679  1
  H+  H120  1  0.13439567  0.60994511  0.16894597  1
  H+  H121  1  0.85252172  0.72602180  0.50810865  1
  H+  H122  1  0.84373264  0.40498944  0.53284611  1
  H+  H123  1  0.01895996  0.37148743  0.34504345  1
  H+  H124  1  0.11400030  0.88638545  0.82855459  1
  H+  H125  1  0.39175237  0.52195562  0.32735232  1
  H+  H126  1  0.51877703  0.62970952  0.15977115  1
  H+  H127  1  0.12687451  0.39721585  0.67558073  1
  H+  H128  1  0.42747477  0.12099682  0.65250921  1
  H+  H129  1  0.40170892  0.41243281  0.18401890  1
  H+  H130  1  1.04372194  0.39016866  0.83044075  1
  H+  H131  1  0.11531903  0.72967645  0.82805723  1
  H+  H132  1  0.34783139  0.14297474  -0.00033452  1
  H+  H133  1  0.36714797  -0.02792489  0.66989128  1
  H+  H134  1  0.88565909  0.12732645  0.67702295  1
  H+  H135  1  0.34986593  0.37422247  0.34746342  1
  H+  H136  1  0.85098678  0.35166499  0.01205221  1
  H+  H137  1  0.63692750  0.08920287  0.17681386  1
  H+  H138  1  0.57281371  0.16919065  0.28673949  1
  H+  H139  1  0.49099100  0.87458636  0.68502868  1
  H+  H140  1  0.87815869  0.10652739  0.99077075  1
  H+  H141  1  0.26407725  0.86878059  0.34044238  1
  H+  H142  1  0.11758427  1.02959792  0.67111809  1
  H+  H143  1  0.62474390  0.62282824  0.32271688  1
  H+  H144  1  0.48653312  0.62853097  0.65972561  1
  H+  H145  1  0.36188797  0.62975203  1.00729373  1
  H+  H146  1  0.77947451  0.37795318  0.16927158  1
  H+  H147  1  0.76679933  0.13058621  0.49210653  1
  H+  H148  1  0.14536970  0.61269516  0.83702773  1
  H+  H149  1  0.39143953  0.53166460  0.17756018  1
  H+  H150  1  0.17320235  0.59272645  0.22936675  1
  H+  H151  1  0.10166796  0.46700107  1.00192686  1
  H+  H152  1  0.51166602  0.39944463  0.26390945  1
  H+  H153  1  0.39212780  0.77961504  0.84065426  1
  H+  H154  1  0.72171868  0.85627969  0.32659403  1
  H+  H155  1  0.97195816  0.85844335  0.33616242  1
  H+  H156  1  0.33834790  0.23304070  0.35457151  1
  H+  H157  1  0.61246383  0.88920864  0.68503644  1
  H+  H158  1  0.12471271  0.37757769  0.49689458  1
  H+  H159  1  0.13393404  0.51194250  0.50542811  1
  H+  H160  1  0.62247351  0.51379749  0.31430839  1
  H+  H161  1  0.71811768  0.59797199  -0.02526796  1
  H+  H162  1  0.91559833  0.36763123  0.83772554  1
  H+  H163  1  0.88040703  0.10573561  0.50416468  1
  H+  H164  1  0.72849018  0.11018707  0.33124915  1
  H+  H165  1  0.62423106  0.61430940  0.66689939  1
  H+  H166  1  1.02414561  0.88841355  0.99928253  1
  H+  H167  1  0.07227618  0.16179172  0.77926077  1
  H+  H168  1  0.15598364  0.29184696  0.67204229  1
  H+  H169  1  0.60751811  0.38452365  1.01043693  1
  H+  H170  1  0.24441187  0.38102707  0.66660689  1
  H+  H171  1  0.08412282  0.66982282  0.73292850  1
  H+  H172  1  0.63397861  0.23779499  1.02743848  1
  H+  H173  1  0.50679146  0.12800750  0.33913584  1
  H+  H174  1  0.63497747  0.48500686  0.15750783  1
  H+  H175  1  0.39821939  0.12720032  0.19359421  1
  H+  H176  1  0.65456990  0.36836315  0.17615309  1
  H+  H177  1  0.52885928  0.12783354  0.17400268  1
  H+  H178  1  0.39833443  0.08062475  0.29153800  1
  H+  H179  1  0.89414598  0.27100689  -0.01208156  1
  H+  H180  1  0.62077873  0.24303811  0.48559692  1
  H+  H181  1  0.88313905  0.01753595  0.50115172  1
  H+  H182  1  0.60064891  0.71573406  0.50513293  1
  H+  H183  1  0.66177704  0.82431248  0.26654980  1
  H+  H184  1  0.62978698  0.88891689  0.95400311  1
  H+  H185  1  0.27535989  0.88596193  0.67186030  1
  H+  H186  1  0.39981034  0.74505259  0.35143273  1
  H+  H187  1  0.15969466  0.79264970  0.16531809  1
  H+  H188  1  0.86577092  0.88889392  0.82411989  1
  H+  H189  1  0.23221108  0.87958010  0.99321180  1
  H+  H190  1  0.01351469  0.66644166  -0.01946919  1
  H+  H191  1  0.92659013  0.89980891  0.19476760  1
  H+  H192  1  0.35284690  0.13407496  0.82688357  1
  H+  H193  1  0.39266266  0.61218450  0.84080940  1
  H+  H194  1  0.63712992  0.10543744  0.32644514  1
  H+  H195  1  0.88333661  0.10834360  0.32827980  1
  H+  H196  1  0.64097696  0.28138849  0.66111770  1
  H+  H197  1  0.88824797  0.33906754  0.65479834  1
  H+  H198  1  0.14106422  0.87165686  0.66179985  1
  H+  H199  1  0.61606701  0.62628489  0.00198400  1
  H+  H200  1  0.21740558  0.11179951  0.84169444  1
  H+  H201  1  0.87565041  0.51770459  0.49585898  1
  H+  H202  1  0.36340585  0.64905475  0.15876843  1
  H+  H203  1  0.61792744  0.27096649  0.83965344  1
  H+  H204  1  0.59740800  0.68139449  0.61973570  1
  H+  H205  1  0.61526088  -0.00639414  0.84142497  1
  H+  H206  1  0.58543442  0.38562265  0.82893460  1
  H+  H207  1  0.13118838  0.85808128  0.32316643  1
  H+  H208  1  0.00099156  0.11457900  0.84134113  1
  H+  H209  1  0.37745434  0.60431186  0.51436310  1
  H+  H210  1  0.48713047  0.12142213  0.49718700  1
  H+  H211  1  0.81947449  0.89844223  0.09773954  1
  H+  H212  1  0.14870466  0.07403128  0.25805810  1
  H+  H213  1  0.62334591  0.77679028  0.66297922  1
  H+  H214  1  0.35035198  -0.04409766  0.35182773  1
  H+  H215  1  0.54959422  0.39935999  0.17048232  1
  H+  H216  1  0.61911251  0.38869000  0.49932006  1
  H+  H217  1  0.14639994  0.62256535  0.31950394  1
  H+  H218  1  0.32748464  0.15683229  0.43290432  1
  H+  H219  1  0.86961403  0.46473836  0.16414256  1
  H+  H220  1  0.37228069  0.40709774  0.68274202  1
  H+  H221  1  0.13944423  0.78208878  0.66478991  1
  H+  H222  1  0.88286686  0.66382326  0.98192135  1
  H+  H223  1  0.46279358  0.98499928  0.04152330  1
  H+  H224  1  0.32610713  0.14622317  0.67258525  1
  H+  H225  1  0.13951750  0.87035436  0.99228539  1
  H+  H226  1  0.02588337  0.16762710  0.69234143  1
  H+  H227  1  0.71783002  0.25086313  0.05268399  1
  H+  H228  1  0.42906604  0.30842877  0.33659470  1
  H+  H229  1  0.12624921  0.76339465  0.50445171  1
  H+  H230  1  0.10337377  0.96791789  0.33819091  1
  H+  H231  1  0.77882479  0.13552180  0.16206350  1
  H+  H232  1  0.16062781  0.65260825  0.65217833  1
  H+  H233  1  0.35881716  0.42154090  0.12103894  1
  H+  H234  1  0.12609837  1.01844040  0.16537013  1
  H+  H235  1  0.63253036  -0.03029872  0.14929699  1
  H+  H236  1  0.29515439  0.66045240  0.67054105  1
  H+  H237  1  0.85161492  -0.02970014  1.00959710  1
  H+  H238  1  0.81144570  0.37682589  0.80822118  1
  H+  H239  1  0.73534970  0.37308617  0.50492937  1
  H+  H240  1  0.64383422  0.61669742  0.16841208  1
  H+  H241  1  0.52080566  0.13924115  0.82467573  1
  H+  H242  1  0.10452907  0.87632209  0.49155268  1
  H+  H243  1  0.85008412  0.63607545  0.49803787  1
  H+  H244  1  0.34930604  0.24331668  0.67849121  1
  H+  H245  1  0.29734849  0.06461730  0.12757008  1
  H+  H246  1  0.74669095  0.62963358  0.67899133  1
  H+  H247  1  0.89537366  0.36126135  0.33997861  1
  H+  H248  1  0.77119425  0.64414433  0.33941010  1
  H+  H249  1  0.61935100  0.10462338  0.67191502  1
  H+  H250  1  0.72124072  0.85377828  0.51037523  1
  H+  H251  1  0.48206098  0.15526748  0.98343916  1
  H+  H252  1  0.37241316  0.49612375  0.67981155  1
  H+  H253  1  0.55173045  0.04937727  0.72287511  1
  H+  H254  1  0.21071558  0.10439081  0.31463659  1
  H+  H255  1  0.58258342  1.00528373  0.00505615  1
  H+  H256  1  0.65992101  0.03026705  0.64562098  1
  H+  H257  1  0.60803576  0.87899357  0.33887605  1
  H+  H258  1  0.98359320  0.60287050  0.18149393  1
  H+  H259  1  0.28354924  0.64468293  0.82977093  1
  H+  H260  1  0.89955297  0.60819445  0.18849859  1
  H+  H261  1  0.87966133  0.85799950  0.66338146  1
  H+  H262  1  0.23294558  0.35841535  0.51065462  1
  H+  H263  1  0.35969033  -0.03300278  0.51052041  1
  H+  H264  1  0.97895524  0.05574855  0.63361647  1
  H+  H265  1  0.52704491  0.62962919  0.32932796  1
  H+  H266  1  0.63103141  0.28951488  0.33305032  1
  H+  H267  1  0.71289178  0.81137779  0.81272156  1
  H+  H268  1  0.66996341  0.59046426  0.26059487  1
  H+  H269  1  0.11291806  0.22335615  0.49675099  1
  H+  H270  1  0.36533214  0.95097103  0.11906911  1
  H+  H271  1  0.23856442  0.63021626  0.31407708  1
  H+  H272  1  0.62067338  0.87650865  0.14909546  1
  H+  H273  1  0.39129623  0.86657612  0.67702962  1
  H+  H274  1  0.71686056  0.35183957  0.99725754  1
  H+  H275  1  0.26545047  0.62783488  0.49186854  1
  H+  H276  1  0.47109260  0.35876167  -0.00097327  1
  H+  H277  1  0.39846101  0.04046033  0.19763381  1
  H+  H278  1  0.36250364  0.47700226  0.50022997  1
  H+  H279  1  0.08148699  0.91485196  0.06018667  1
  H+  H280  1  0.03139773  0.15617579  0.15940682  1
  H+  H281  1  0.60993533  0.89667059  0.87398210  1
  H+  H282  1  0.45560586  0.36223735  0.84432144  1
  H+  H283  1  0.13718325  0.27038776  0.32746866  1
  H+  H284  1  0.13225170  1.02708884  -0.00738382  1
  H+  H285  1  0.14914935  0.52534237  0.83773735  1
  H+  H286  1  0.39735611  0.85766679  0.00133393  1
  H+  H287  1  0.15333229  0.27917955  0.17452924  1
  H+  H288  1  0.60725120  0.10256821  0.02634093  1
  H+  H289  1  0.83084125  0.16015716  0.40076895  1
  H+  H290  1  0.27177152  0.38980756  0.34325744  1
  H+  H291  1  0.16988339  0.33238244  0.97875478  1
  H+  H292  1  0.87628468  0.69935427  0.12763029  1
  H+  H293  1  0.11318320  0.14620310  0.15226390  1
  H+  H294  1  0.42073421  0.59593140  0.23227724  1
  H+  H295  1  0.17217881  0.33218122  0.26769785  1
  H+  H296  1  0.43224837  0.31848265  0.23393906  1
  H+  H297  1  0.38745620  0.85593170  0.52386876  1
  H+  H298  1  0.86647310  0.22723311  0.16513325  1
  H+  H299  1  0.82734810  0.91327661  0.43418115  1
  H+  H300  1  0.92658893  0.09374028  0.23104347  1
  H+  H301  1  0.11543394  0.36904130  0.33853276  1
  H+  H302  1  0.11509773  0.47045086  0.17490036  1
  H+  H303  1  0.02148564  0.88696076  0.67559224  1
  H+  H304  1  0.59522496  0.43134455  0.44510180  1
  H+  H305  1  0.51942984  0.89892208  0.84151099  1
  H+  H306  1  0.11685041  0.38679436  0.01706667  1
  H+  H307  1  0.17078241  0.83630355  0.89768679  1
  H+  H308  1  0.41296223  0.58912116  0.60719535  1
  H+  H309  1  0.41546051  0.83371537  0.90266074  1
  H+  H310  1  0.41012238  0.56918180  0.89676277  1
  H+  H311  1  0.81498687  0.68051700  0.77354483  1
  H+  H312  1  0.53961906  0.42321304  0.35846488  1
  H+  H313  1  0.90226899  0.65257347  0.63713796  1
  H+  H314  1  0.57680735  0.92510008  0.43500488  1
  H+  H315  1  0.33350328  0.66647688  0.06444730  1
  H+  H316  1  0.07391034  0.17985066  0.05705560  1
  H+  H317  1  0.62575937  0.71850585  0.00770553  1
  H+  H318  1  0.08874598  0.66229229  0.38964367  1
  H+  H319  1  0.93167078  0.84750934  0.25266944  1
  H+  H320  1  0.57620224  0.41221593  0.73336706  1
  H+  H321  1  0.08251682  0.16688746  0.39858869  1
  H+  H322  1  0.96023226  0.64425291  0.91888852  1
  H+  H323  1  0.31875240  0.16991871  0.77307041  1
  H+  H324  1  0.40882252  0.33109387  0.93953318  1
  H+  H325  1  0.91235120  0.07614464  0.90759607  1
  H+  H326  1  0.15834719  0.08166259  0.90240667  1
  H+  H327  1  0.32267334  0.15156132  0.09629441  1
  H+  H328  1  0.43888940  0.08390772  0.55990536  1
  H+  H329  1  0.33057991  0.45732672  0.78528076  1
  H+  H330  1  0.92728111  0.32977994  0.90104989  1
  H+  H331  1  0.59236068  0.92352933  0.74754582  1
  H+  H332  1  0.64117372  0.12501682  0.49893945  1
  H+  H333  1  0.59454519  0.18518109  0.42541846  1
  H+  H334  1  0.83273835  0.40370488  0.41538407  1
  H+  H335  1  0.90735911  0.26207846  0.65487681  1
  H+  H336  1  0.08198348  0.91761706  0.73420994  1
  H+  H337  1  0.90830329  0.56810622  0.28208510  1
  H+  H338  1  0.86361195  0.42767438  0.75184866  1
  H+  H339  1  0.65737500  0.57907727  0.61213634  1
  H+  H340  1  0.81462369  0.60791110  0.70785212  1
  H+  H341  1  0.15313805  0.82349747  0.56451181  1
  H+  H342  1  0.58327795  0.41917058  0.06940379  1
  H+  H343  1  0.40110749  0.83171366  0.24163647  1
  H+  H344  1  0.21725511  0.12000462  0.99342090  1
  H+  H345  1  0.59094921  0.47709743  0.82119252  1
  H+  H346  1  0.07890224  0.90854716  0.39857415  1
  H+  H347  1  0.40661426  0.61807751  0.33391916  1
  H+  H348  1  0.97232883  0.10942725  0.32929769  1
  H+  H349  1  0.63910610  0.57582514  0.89090850  1
  H+  H350  1  0.09805514  0.42310448  0.76912576  1
  H+  H351  1  0.65383293  0.32912941  0.93912462  1
  H+  H352  1  0.39663117  0.77106746  0.67918482  1
  H+  H353  1  0.16776137  0.83703795  0.26307271  1
  H+  H354  1  0.08802882  0.39857643  0.40601153  1
  H+  H355  1  0.42480134  0.09003664  0.89087247  1
  H+  H356  1  0.92223601  0.84948437  0.92773797  1
  H+  H357  1  0.09028803  0.67976536  0.08820080  1
  H+  H358  1  0.33559876  0.41978570  0.43863378  1
  H+  H359  1  0.82342394  0.37871916  0.07555338  1
  H+  H360  1  0.92342448  0.32352779  0.55975695  1
  H+  H361  1  0.62449623  0.70596224  0.74212730  1
  H+  H362  1  0.34493527  0.67691987  0.77177616  1
  H+  H363  1  0.91850237  0.59038754  0.54662065  1
  H+  H364  1  0.84822682  0.54489737  0.88964848  1
  H+  H365  1  0.82225834  0.65860191  0.03642547  1
  H+  H366  1  0.66061947  0.83324438  0.56780253  1
  H+  H367  1  0.86084102  0.16594486  0.73497555  1
  H+  H368  1  0.91939568  0.07047177  0.58874904  1
  H+  H369  1  0.67649416  0.06823714  0.23417382  1
  H+  H370  1  0.17173137  0.58545666  0.93122508  1
  H+  H371  1  0.68035904  0.34467794  0.23906610  1
  H+  H372  1  0.35926503  0.23713839  0.00720961  1
  H+  H373  1  0.66357745  0.33472318  0.56090669  1
  H+  H374  1  0.49987986  0.07993513  0.97336721  1
  H+  H375  1  0.57877820  0.65398425  0.09979671  1
  H+  H376  1  0.71748380  0.84466273  0.17309988  1
  H+  H377  1  0.83655445  0.16833388  0.07009440  1
  H+  H378  1  0.22841043  0.86351325  0.83783727  1
  H+  H379  1  0.98193837  0.35600164  0.19134539  1
  H+  H380  1  0.46881390  0.60645162  0.51660662  1
  H+  H381  1  0.86274588  0.13341677  0.83155143  1
  H+  H382  1  0.27014012  0.39236793  0.03186537  1
  H+  H383  1  0.27285135  0.64463693  0.15601547  1
  O2-  O384  1  0.09145202  0.18511838  0.14142748  1
  O2-  O385  1  0.08144959  0.16572922  0.47685377  1
  O2-  O386  1  0.06794410  0.14850723  0.82514680  1
  O2-  O387  1  0.08110998  0.40727481  0.17676657  1
  O2-  O388  1  0.09371410  0.40579438  0.47772564  1
  O2-  O389  1  0.10228266  0.42782814  0.81459126  1
  O2-  O390  1  0.07872193  0.68985536  0.13211258  1
  O2-  O391  1  0.07976558  0.66279790  0.47206420  1
  O2-  O392  1  0.08523586  0.66961516  0.81096743  1
  O2-  O393  1  0.08737421  0.91487751  0.13872407  1
  O2-  O394  1  0.07340830  0.90512583  0.47464541  1
  O2-  O395  1  0.08242650  0.91524779  0.81329698  1
  O2-  O396  1  0.31376553  0.12377451  0.13740842  1
  O2-  O397  1  0.34095807  0.17223647  0.50528489  1
  O2-  O398  1  0.31799529  0.16179250  0.81782372  1
  O2-  O399  1  0.35988813  0.42692080  0.16673497  1
  O2-  O400  1  0.33518573  0.41615789  0.48385830  1
  O2-  O401  1  0.30082082  0.45812857  0.82319582  1
  O2-  O402  1  0.33388592  0.67863785  0.14173163  1
  O2-  O403  1  0.32884717  0.65794024  0.48615564  1
  O2-  O404  1  0.34515596  0.67971202  0.81680212  1
  O2-  O405  1  0.34915492  0.94527302  0.16276331  1
  O2-  O406  1  0.33078667  0.90782942  0.52590954  1
  O2-  O407  1  0.33407702  0.91886733  0.81401298  1
  O2-  O408  1  0.56897787  0.11655282  0.15108142  1
  O2-  O409  1  0.59116777  0.18198474  0.46972200  1
  O2-  O410  1  0.58378542  0.17371061  0.81451536  1
  O2-  O411  1  0.60249180  0.42374590  0.14475617  1
  O2-  O412  1  0.58639767  0.42013234  0.48854094  1
  O2-  O413  1  0.56033540  0.41571266  0.80691468  1
  O2-  O414  1  0.57972429  0.65425661  0.14507511  1
  O2-  O415  1  0.56432140  0.65302512  0.49554614  1
  O2-  O416  1  0.64355213  0.72223998  0.78449318  1
  O2-  O417  1  0.60534064  0.91469776  0.12654226  1
  O2-  O418  1  0.57798904  0.93812596  0.47865011  1
  O2-  O419  1  0.58383603  0.92724366  0.83381040  1
  O2-  O420  1  0.83781100  0.17018801  0.14418351  1
  O2-  O421  1  0.82801785  0.15503839  0.47741369  1
  O2-  O422  1  0.83545734  0.16408809  0.81304489  1
  O2-  O423  1  0.83953582  0.40369674  0.15155885  1
  O2-  O424  1  0.82314216  0.41279658  0.49388826  1
  O2-  O425  1  0.86442595  0.42879990  0.79721533  1
  O2-  O426  1  0.85999400  0.68773717  0.17021627  1
  O2-  O427  1  0.81528493  0.66275707  0.50856982  1
  O2-  O428  1  0.81838182  0.67846212  0.81866505  1
  O2-  O429  1  0.81703386  0.88614585  0.14305926  1
  O2-  O430  1  0.83052443  0.91749729  0.47950455  1
  O2-  O431  1  0.83139679  0.91695542  0.80947359  1
  O2-  O432  1  0.15393186  0.07764887  0.18289645  1
  O2-  O433  1  0.16752712  0.07729012  0.47746468  1
  O2-  O434  1  0.15579847  0.07974737  0.85623601  1
  O2-  O435  1  0.18498474  0.33528628  0.19745775  1
  O2-  O436  1  0.17233824  0.32724481  0.52626252  1
  O2-  O437  1  0.14898514  0.31982381  0.88721303  1
  O2-  O438  1  0.17098415  0.58784812  0.18288048  1
  O2-  O439  1  0.15850850  0.57416404  0.51440615  1
  O2-  O440  1  0.17850930  0.58714164  0.85324015  1
  O2-  O441  1  0.18248464  0.85065687  0.18287447  1
  O2-  O442  1  0.15291009  0.82402257  0.51947253  1
  O2-  O443  1  0.16743005  0.83275783  0.85249682  1
  O2-  O444  1  0.42606728  0.10007884  0.21569267  1
  O2-  O445  1  0.42923431  0.09064834  0.51645607  1
  O2-  O446  1  0.41656307  0.08771220  0.84597845  1
  O2-  O447  1  0.47430855  0.37819957  0.22521266  1
  O2-  O448  1  0.42046713  0.34168982  0.53057717  1
  O2-  O449  1  0.40235645  0.32831738  0.86790675  1
  O2-  O450  1  0.41913604  0.59473811  0.18708294  1
  O2-  O451  1  0.40594525  0.57287993  0.53061396  1
  O2-  O452  1  0.41986495  0.57790515  0.85223585  1
  O2-  O453  1  0.39683629  0.84045072  0.19739012  1
  O2-  O454  1  0.42518288  0.83015322  0.52659909  1
  O2-  O455  1  0.41886509  0.84046074  0.85725780  1
  O2-  O456  1  0.67865159  0.07003338  0.18909608  1
  O2-  O457  1  0.66694927  0.09148425  0.51503951  1
  O2-  O458  1  0.66928251  0.08717676  0.85374837  1
  O2-  O459  1  0.68233954  0.33800239  0.19450356  1
  O2-  O460  1  0.66648222  0.33920981  0.51624054  1
  O2-  O461  1  0.63754107  0.32893990  0.85922113  1
  O2-  O462  1  0.67840036  0.59128922  0.18501656  1
  O2-  O463  1  0.65706909  0.58017540  0.54076185  1
  O2-  O464  1  0.64227651  0.58029343  0.84571746  1
  O2-  O465  1  0.65799087  0.81728439  0.19049391  1
  O2-  O466  1  0.66175702  0.81786434  0.52506058  1
  O2-  O467  1  0.74860985  0.86404077  0.84004379  1
  O2-  O468  1  0.93528535  0.10121080  0.18663549  1
  O2-  O469  1  0.91454695  0.07840629  0.51767954  1
  O2-  O470  1  0.91763693  0.07751705  0.85982185  1
  O2-  O471  1  0.91896243  0.32452461  0.20412898  1
  O2-  O472  1  0.92644645  0.32325278  0.51386148  1
  O2-  O473  1  0.93121756  0.32692365  0.85461005  1
  O2-  O474  1  0.92420348  0.57105354  0.19655089  1
  O2-  O475  1  0.91171954  0.58247529  0.50240151  1
  O2-  O476  1  0.88414939  0.57217391  0.85397024  1
  O2-  O477  1  0.94148067  0.85593798  0.20556353  1
  O2-  O478  1  0.91366866  0.83738850  0.52223194  1
  O2-  O479  1  0.91855845  0.84513331  0.85006411  1
  O2-  O480  1  0.14988104  0.07449352  0.30405296  1
  O2-  O481  1  0.13689091  0.09031694  0.65978832  1
  O2-  O482  1  0.15838204  0.08646512  0.97599207  1
  O2-  O483  1  0.16654790  0.33214772  0.31427153  1
  O2-  O484  1  0.18439286  0.34592447  0.64891805  1
  O2-  O485  1  0.18151625  0.36040411  1.01871523  1
  O2-  O486  1  0.17963291  0.59581781  0.30036159  1
  O2-  O487  1  0.20706605  0.65156203  0.62788114  1
  O2-  O488  1  0.16801791  0.58728580  0.97658459  1
  O2-  O489  1  0.16270591  0.82943867  0.30780164  1
  O2-  O490  1  0.17131203  0.84109340  0.64736199  1
  O2-  O491  1  0.17436484  0.84372186  0.97746822  1
  O2-  O492  1  0.39880188  0.07191015  0.33638666  1
  O2-  O493  1  0.43807318  0.07519388  0.64030004  1
  O2-  O494  1  0.45543849  0.09763278  0.96632668  1
  O2-  O495  1  0.36803943  0.28827321  0.33174563  1
  O2-  O496  1  0.41353217  0.33859855  0.65353166  1
  O2-  O497  1  0.40991966  0.32777918  0.98587230  1
  O2-  O498  1  0.42554224  0.58194504  0.31155572  1
  O2-  O499  1  0.42010526  0.59805737  0.65234238  1
  O2-  O500  1  0.41166442  0.57441987  0.98343047  1
  O2-  O501  1  0.41144970  0.82635705  0.31906588  1
  O2-  O502  1  0.42804651  0.83925530  0.66973495  1
  O2-  O503  1  0.41909105  0.82434406  0.97977849  1
  O2-  O504  1  0.66842159  0.07562495  0.31501713  1
  O2-  O505  1  0.67465349  0.08856754  0.63380708  1
  O2-  O506  1  0.56321018  0.04880053  1.00627832  1
  O2-  O507  1  0.66947106  0.34971942  0.32169743  1
  O2-  O508  1  0.67198486  0.34092166  0.64745604  1
  O2-  O509  1  0.65628927  0.33116908  0.98412646  1
  O2-  O510  1  0.66116291  0.58433791  0.30581745  1
  O2-  O511  1  0.65605064  0.58028098  0.65862091  1
  O2-  O512  1  0.65516969  0.56949857  0.96907171  1
  O2-  O513  1  0.66058381  0.82281400  0.31233078  1
  O2-  O514  1  0.65298308  0.84108708  0.65407259  1
  O2-  O515  1  0.63274733  0.86664209  0.91194678  1
  O2-  O516  1  0.91240016  0.07674646  0.31376081  1
  O2-  O517  1  0.92896468  0.06345251  0.63396752  1
  O2-  O518  1  0.90658177  0.07519470  0.97479111  1
  O2-  O519  1  0.92739834  0.33296946  0.32378298  1
  O2-  O520  1  0.92478051  0.31971735  0.63556398  1
  O2-  O521  1  0.92063066  0.33078884  0.97305397  1
  O2-  O522  1  0.88614549  0.56838578  0.32274873  1
  O2-  O523  1  0.92592228  0.61415412  0.63190314  1
  O2-  O524  1  0.97106999  0.67570547  0.95711786  1
  O2-  O525  1  0.91275237  0.83215721  0.31851566  1
  O2-  O526  1  0.91370063  0.83058474  0.64990386  1
  O2-  O527  1  0.92252711  0.84484588  0.97305636  1
  O2-  O528  1  0.05930823  0.16018401  0.01441017  1
  O2-  O529  1  0.08095660  0.16817474  0.35308864  1
  O2-  O530  1  0.08150708  0.18261273  0.71028450  1
  O2-  O531  1  0.07030709  0.40699353  0.01528524  1
  O2-  O532  1  0.08243970  0.39673239  0.35951922  1
  O2-  O533  1  0.09193872  0.42120938  0.69220381  1
  O2-  O534  1  0.10134873  0.67573554  0.01665542  1
  O2-  O535  1  0.09299544  0.66155903  0.34481376  1
  O2-  O536  1  0.08865987  0.67527729  0.68762568  1
  O2-  O537  1  0.08493961  0.91732939  0.01482683  1
  O2-  O538  1  0.07740213  0.90790684  0.35278797  1
  O2-  O539  1  0.08262278  0.92085448  0.68887108  1
  O2-  O540  1  0.32313386  0.17283309  0.02113779  1
  O2-  O541  1  0.29962777  0.13483174  0.39137881  1
  O2-  O542  1  0.30957144  0.18260778  0.69446885  1
  O2-  O543  1  0.33774305  0.41830581  0.04363428  1
  O2-  O544  1  0.33234980  0.41719434  0.35791099  1
  O2-  O545  1  0.34044045  0.43590949  0.69587816  1
  O2-  O546  1  0.33331790  0.66352234  0.01891845  1
  O2-  O547  1  0.40202185  0.69623273  0.37453809  1
  O2-  O548  1  0.35193438  0.68343067  0.69082390  1
  O2-  O549  1  0.39853944  0.95245412  0.04358328  1
  O2-  O550  1  0.32221370  0.89345609  0.35883216  1
  O2-  O551  1  0.33544871  0.91408568  0.68882132  1
  O2-  O552  1  0.65542996  0.20635002  0.05208643  1
  O2-  O553  1  0.57051292  0.16228636  0.33089028  1
  O2-  O554  1  0.57331170  0.10476666  0.70261622  1
  O2-  O555  1  0.57801650  0.41635418  0.02384494  1
  O2-  O556  1  0.57272917  0.42716384  0.32243896  1
  O2-  O557  1  0.58359176  0.41299602  0.68779886  1
  O2-  O558  1  0.58997686  0.65918185  0.02063329  1
  O2-  O559  1  0.58969549  0.65969515  0.34150343  1
  O2-  O560  1  0.58359960  0.67309414  0.66306218  1
  O2-  O561  1  0.59015193  0.91505871  0.01021081  1
  O2-  O562  1  0.57808235  0.90992651  0.35264514  1
  O2-  O563  1  0.58481080  0.92261080  0.70301011  1
  O2-  O564  1  0.83420172  0.16464958  0.02392971  1
  O2-  O565  1  0.83158698  0.16199234  0.35512321  1
  O2-  O566  1  0.88297597  0.17689650  0.69260249  1
  O2-  O567  1  0.80266830  0.35217394  0.03459146  1
  O2-  O568  1  0.83624120  0.40284208  0.37024028  1
  O2-  O569  1  0.83862562  0.41064206  0.67641440  1
  O2-  O570  1  0.82981812  0.66780562  -0.00719567  1
  O2-  O571  1  0.83154771  0.67603421  0.35255234  1
  O2-  O572  1  0.81058976  0.65756798  0.69483352  1
  O2-  O573  1  0.82392136  0.90997364  0.02410345  1
  O2-  O574  1  0.82438865  0.91125342  0.35469231  1
  O2-  O575  1  0.82345815  0.90707869  0.68508680  1
