# generated using pymatgen
data_H2O
_symmetry_space_group_name_H-M   'P 1'
_cell_length_a   17.98804170
_cell_length_b   17.98369741
_cell_length_c   22.00685791
_cell_angle_alpha   90.00016827
_cell_angle_beta   89.98575515
_cell_angle_gamma   119.97857877
_symmetry_Int_Tables_number   1
_chemical_formula_structural   H2O
_chemical_formula_sum   'H384 O192'
_cell_volume   6166.59220900
_cell_formula_units_Z   192
loop_
 _symmetry_equiv_pos_site_id
 _symmetry_equiv_pos_as_xyz
  1  'x, y, z'
loop_
 _atom_type_symbol
 _atom_type_oxidation_number
  H+  1.0
  O2-  -2.0
loop_
 _atom_site_type_symbol
 _atom_site_label
 _atom_site_symmetry_multiplicity
 _atom_site_fract_x
 _atom_site_fract_y
 _atom_site_fract_z
 _atom_site_occupancy
  H+  H0  1  0.63328448  0.87156946  0.17647311  1
  H+  H1  1  0.64132796  0.27049381  0.00342555  1
  H+  H2  1  0.11830990  0.74035757  0.66998030  1
  H+  H3  1  0.16770208  0.84548498  0.26683905  1
  H+  H4  1  0.84524813  0.72782217  0.81395451  1
  H+  H5  1  0.33535391  0.25346767  0.65291172  1
  H+  H6  1  0.88934331  0.61550580  0.84408343  1
  H+  H7  1  0.49050551  0.85352805  0.51971288  1
  H+  H8  1  0.72114526  0.60102094  0.50510460  1
  H+  H9  1  0.39588813  0.77698835  0.50672147  1
  H+  H10  1  0.01100653  0.88828616  0.65598056  1
  H+  H11  1  0.52802676  0.40328900  0.34086384  1
  H+  H12  1  0.93252484  0.85872865  0.93237517  1
  H+  H13  1  0.27520752  0.46863607  0.12192058  1
  H+  H14  1  -0.02728896  0.61486898  0.00198539  1
  H+  H15  1  0.82580033  0.65325954  0.41510013  1
  H+  H16  1  0.10665218  0.98264203  0.33681712  1
  H+  H17  1  0.12163531  -0.01123710  0.82698687  1
  H+  H18  1  0.14892163  0.77748602  0.01156290  1
  H+  H19  1  0.36742395  -0.02087863  0.49589001  1
  H+  H20  1  -0.01944752  0.67927679  0.33252073  1
  H+  H21  1  0.62393616  0.21989607  0.15954462  1
  H+  H22  1  0.61490943  0.10640828  0.31979641  1
  H+  H23  1  0.78586785  0.70811952  0.43767673  1
  H+  H24  1  0.35979902  -0.00572692  0.34212938  1
  H+  H25  1  0.82882797  0.90793160  0.75588946  1
  H+  H26  1  0.89610000  0.35307334  0.49707602  1
  H+  H27  1  0.10897160  0.14080211  0.66194370  1
  H+  H28  1  0.25986199  0.61613849  0.50021354  1
  H+  H29  1  0.39775009  0.62916477  0.17471512  1
  H+  H30  1  0.16772456  0.57561214  0.23586290  1
  H+  H31  1  0.64366905  1.00166296  0.34623317  1
  H+  H32  1  0.63638801  0.86146807  -0.01205208  1
  H+  H33  1  0.47518751  0.60795364  0.83293853  1
  H+  H34  1  0.63723329  0.78350973  0.17657209  1
  H+  H35  1  0.89127747  1.01948782  0.82446184  1
  H+  H36  1  0.04008606  0.39126329  0.48727921  1
  H+  H37  1  0.46100215  0.10048454  0.85403740  1
  H+  H38  1  0.20808311  0.18735106  0.29356968  1
  H+  H39  1  0.15053040  0.60125964  0.33486588  1
  H+  H40  1  0.12066982  0.26835629  0.51220701  1
  H+  H41  1  0.36390143  0.73325286  0.16503331  1
  H+  H42  1  0.13665632  0.53056815  0.85135469  1
  H+  H43  1  0.52285440  0.88015254  0.83158387  1
  H+  H44  1  0.85737238  0.49374099  0.69061683  1
  H+  H45  1  0.84629132  0.88626546  0.65837581  1
  H+  H46  1  0.89386265  0.11785539  0.64539180  1
  H+  H47  1  0.15316109  0.12314515  0.82411049  1
  H+  H48  1  0.14721051  0.35820198  0.83880511  1
  H+  H49  1  0.35813153  0.89548472  0.67499664  1
  H+  H50  1  0.73318559  0.34171030  0.51080275  1
  H+  H51  1  0.60135692  0.60866431  0.48893578  1
  H+  H52  1  0.33466460  0.34105146  0.63639934  1
  H+  H53  1  0.86347432  0.47953082  1.01378931  1
  H+  H54  1  0.22621281  0.86232784  0.50276671  1
  H+  H55  1  0.13753941  0.86583436  0.17495956  1
  H+  H56  1  1.00225714  0.88440572  0.83517335  1
  H+  H57  1  0.20927517  0.10722273  0.65868156  1
  H+  H58  1  0.11071153  0.63776291  0.17120126  1
  H+  H59  1  0.87533048  0.77476294  0.65150737  1
  H+  H60  1  0.39454084  0.54045439  0.17062758  1
  H+  H61  1  -0.02800642  0.35847174  -0.00155088  1
  H+  H62  1  0.35915315  0.23183598  0.16488321  1
  H+  H63  1  0.43772787  0.84543176  0.33582436  1
  H+  H64  1  0.64491114  0.13345582  0.66408644  1
  H+  H65  1  0.36290624  0.88640673  0.17360868  1
  H+  H66  1  0.85950294  0.87314894  0.33040962  1
  H+  H67  1  -0.02691273  0.62027532  0.18723226  1
  H+  H68  1  0.37255896  0.38664654  0.00582497  1
  H+  H69  1  0.09537827  0.37106393  0.33717727  1
  H+  H70  1  0.38837449  0.02838317  1.00837642  1
  H+  H71  1  0.26393048  0.37328684  0.49910714  1
  H+  H72  1  0.27396844  0.64088896  0.16899182  1
  H+  H73  1  0.60645632  0.22024400  0.84191904  1
  H+  H74  1  0.28123811  0.37387373  0.86903459  1
  H+  H75  1  0.36803051  0.46330192  0.86619562  1
  H+  H76  1  0.36765449  0.62825178  0.49064243  1
  H+  H77  1  0.11294348  0.72833603  0.17167200  1
  H+  H78  1  0.39579319  0.35304046  0.86304386  1
  H+  H79  1  0.15169955  0.86659515  1.00465086  1
  H+  H80  1  0.61140767  0.72333471  0.81832718  1
  H+  H81  1  0.36173637  0.47977639  0.32038971  1
  H+  H82  1  0.37194412  0.89251066  0.48878518  1
  H+  H83  1  0.86915075  0.64218972  0.67061828  1
  H+  H84  1  0.23941966  0.38680690  0.64760831  1
  H+  H85  1  0.63217815  0.51744158  0.83121478  1
  H+  H86  1  0.60839016  0.25988801  0.32509144  1
  H+  H87  1  0.84151768  0.36781858  0.68256952  1
  H+  H88  1  0.00610417  0.11462491  0.34576447  1
  H+  H89  1  0.17883165  0.56831762  0.67997221  1
  H+  H90  1  0.12570759  0.78786501  0.32656772  1
  H+  H91  1  0.39964658  0.27967082  0.32856061  1
  H+  H92  1  0.37575106  0.02218630  0.66716665  1
  H+  H93  1  0.10034331  0.12732688  0.34919698  1
  H+  H94  1  0.63462680  0.10945993  1.00024104  1
  H+  H95  1  0.23055153  0.36270389  -0.01073397  1
  H+  H96  1  0.84121582  0.40772450  0.43877569  1
  H+  H97  1  0.38917580  0.11189700  0.50718165  1
  H+  H98  1  0.21918158  0.35561805  0.17865322  1
  H+  H99  1  0.89141928  0.10711041  0.83280323  1
  H+  H100  1  0.11668737  0.35188848  0.65285861  1
  H+  H101  1  0.90394965  0.76172254  0.30841193  1
  H+  H102  1  0.71673283  0.43850393  0.70550128  1
  H+  H103  1  0.12113791  0.76070065  0.82720026  1
  H+  H104  1  0.11412974  0.22387493  0.00850687  1
  H+  H105  1  0.10056063  0.63143717  0.01856728  1
  H+  H106  1  0.11042138  0.23239672  0.66257175  1
  H+  H107  1  0.76829663  0.89263680  0.16135754  1
  H+  H108  1  0.37080851  0.14074926  0.01596965  1
  H+  H109  1  0.13900079  0.62714585  0.66124537  1
  H+  H110  1  0.84981370  0.22272257  0.68273329  1
  H+  H111  1  0.77290314  0.11380265  0.47293906  1
  H+  H112  1  0.38418488  0.76430108  0.84069723  1
  H+  H113  1  0.09190738  0.41652815  0.40049462  1
  H+  H114  1  0.70602427  0.87301083  0.65691847  1
  H+  H115  1  0.76080148  0.63467237  0.81832034  1
  H+  H116  1  0.14152033  0.10893021  1.00492679  1
  H+  H117  1  0.03595429  0.90273442  0.16066471  1
  H+  H118  1  0.61234870  0.97656214  0.00583871  1
  H+  H119  1  0.47941268  0.86719336  0.17616216  1
  H+  H120  1  0.33108024  0.65721851  0.43202594  1
  H+  H121  1  0.86441371  0.87938332  0.81332727  1
  H+  H122  1  0.61184514  0.39788238  0.34189399  1
  H+  H123  1  0.11623214  0.89932558  0.33654658  1
  H+  H124  1  0.97320726  0.10923606  0.17287889  1
  H+  H125  1  0.86227561  0.14140092  0.16173106  1
  H+  H126  1  0.90291416  0.89591242  0.17469098  1
  H+  H127  1  0.14056483  0.26560606  0.83507244  1
  H+  H128  1  0.32552599  0.91798203  0.73690540  1
  H+  H129  1  0.12738437  0.98006552  0.01223340  1
  H+  H130  1  0.15223820  0.32868539  0.57457083  1
  H+  H131  1  0.11299140  0.38125356  0.00796860  1
  H+  H132  1  0.10912559  0.21663980  0.16327840  1
  H+  H133  1  0.35557302  0.75819236  -0.00239611  1
  H+  H134  1  0.72466831  0.35864897  0.85134543  1
  H+  H135  1  0.60021490  0.73999762  0.66476426  1
  H+  H136  1  0.87310689  0.65542724  1.00877049  1
  H+  H137  1  0.87467890  0.59390933  0.51050954  1
  H+  H138  1  0.61132020  0.34284603  0.64691590  1
  H+  H139  1  0.55265280  0.28369742  0.28440478  1
  H+  H140  1  0.38734696  0.11289324  0.33094734  1
  H+  H141  1  0.66337074  0.84250094  0.27103977  1
  H+  H142  1  0.04558960  0.64225649  0.32527502  1
  H+  H143  1  0.49266281  0.88258640  0.36750795  1
  H+  H144  1  0.53555245  0.64806969  0.15944275  1
  H+  H145  1  0.37379615  0.63342138  0.34334803  1
  H+  H146  1  0.11826794  0.98327775  0.49402639  1
  H+  H147  1  0.37617205  0.35234052  0.49683189  1
  H+  H148  1  0.61055820  0.65717522  0.65689816  1
  H+  H149  1  0.86953072  0.88560201  0.48500239  1
  H+  H150  1  0.09458487  0.24811959  0.32901127  1
  H+  H151  1  0.47140189  0.60274617  0.49300864  1
  H+  H152  1  -0.02769424  0.11018677  0.00350677  1
  H+  H153  1  0.13048626  0.35344537  0.17540191  1
  H+  H154  1  0.02499231  0.38351579  0.16549652  1
  H+  H155  1  0.83876566  0.15462760  0.39518672  1
  H+  H156  1  0.23260911  0.11352443  0.00858273  1
  H+  H157  1  0.76943261  0.13150264  0.83293485  1
  H+  H158  1  0.46006152  0.11492077  0.66769133  1
  H+  H159  1  -0.02392548  0.35686081  0.33166162  1
  H+  H160  1  0.36084243  0.88282279  0.82768526  1
  H+  H161  1  0.86553595  0.39096324  0.01428889  1
  H+  H162  1  0.60531063  0.10057653  0.48607612  1
  H+  H163  1  0.13615843  0.50609085  0.33050659  1
  H+  H164  1  0.62914323  0.12971079  0.15687987  1
  H+  H165  1  0.62999150  0.10554096  0.84795104  1
  H+  H166  1  0.77296885  0.87938543  0.33221513  1
  H+  H167  1  -0.01775557  0.11928224  0.65105630  1
  H+  H168  1  0.02891330  0.38749374  0.83396479  1
  H+  H169  1  0.28516047  0.14668485  0.33592081  1
  H+  H170  1  0.48492915  0.36247001  0.00194095  1
  H+  H171  1  0.86338871  0.48135798  0.84259306  1
  H+  H172  1  0.37619250  0.10700298  0.84752500  1
  H+  H173  1  0.86361168  0.39118379  0.83664432  1
  H+  H174  1  0.27579593  0.61507865  0.34270517  1
  H+  H175  1  0.35185060  0.46058329  0.49146414  1
  H+  H176  1  0.51457209  0.39076760  0.49266570  1
  H+  H177  1  0.64523493  0.74338320  0.50391466  1
  H+  H178  1  0.73609608  0.36625471  0.17484355  1
  H+  H179  1  0.98689902  0.86479347  0.50207847  1
  H+  H180  1  0.33834926  0.16679828  0.39882126  1
  H+  H181  1  0.39736433  0.31604208  0.55528018  1
  H+  H182  1  0.40963522  0.38086172  0.17724289  1
  H+  H183  1  0.88289966  0.27308583  0.84365194  1
  H+  H184  1  0.20547760  0.60589037  0.00610112  1
  H+  H185  1  0.89924809  0.88103823  -0.00640830  1
  H+  H186  1  0.15309385  0.51452416  0.50578900  1
  H+  H187  1  0.10859282  0.12718673  0.16099854  1
  H+  H188  1  0.74782791  0.61660403  0.65598995  1
  H+  H189  1  0.51722464  0.13039081  0.34859389  1
  H+  H190  1  0.35585385  0.63087492  0.83907693  1
  H+  H191  1  0.66829850  0.51661355  0.66152523  1
  H+  H192  1  0.64513258  0.98875965  0.51127207  1
  H+  H193  1  0.86055852  0.20742531  0.47561258  1
  H+  H194  1  0.32824165  0.61688850  0.02309536  1
  H+  H195  1  0.25876739  0.89549597  0.34304277  1
  H+  H196  1  0.49556856  0.62595737  0.32627932  1
  H+  H197  1  0.14109843  0.86960768  0.50316446  1
  H+  H198  1  0.60673138  -0.00739053  0.68068727  1
  H+  H199  1  0.46674402  0.61459119  0.64693519  1
  H+  H200  1  0.13226930  0.10973194  0.50546495  1
  H+  H201  1  0.65428299  0.57097331  0.92687973  1
  H+  H202  1  0.73532480  0.62447386  0.16753841  1
  H+  H203  1  0.88054911  0.27311078  0.99925518  1
  H+  H204  1  0.88093459  1.02337906  0.17089749  1
  H+  H205  1  0.22218323  0.86971521  0.65885705  1
  H+  H206  1  0.87174083  0.46491570  0.49934865  1
  H+  H207  1  0.60442324  0.87944476  0.58139555  1
  H+  H208  1  0.06210717  0.45523083  0.66859194  1
  H+  H209  1  0.61819742  0.38548433  0.01112821  1
  H+  H210  1  0.37137625  0.23012369  1.01368828  1
  H+  H211  1  0.24083011  0.12138705  0.82658412  1
  H+  H212  1  0.63946330  0.60582545  -0.01028425  1
  H+  H213  1  0.09574135  0.72773150  0.48666321  1
  H+  H214  1  0.62885541  0.50677701  0.50867917  1
  H+  H215  1  0.36464560  0.22433773  0.48816962  1
  H+  H216  1  0.85318674  0.45915744  0.34365161  1
  H+  H217  1  0.73445370  0.83489173  0.50139822  1
  H+  H218  1  0.52670188  0.40670084  0.66306279  1
  H+  H219  1  0.62166763  0.99114286  0.15811669  1
  H+  H220  1  0.37163244  0.52884538  0.63992583  1
  H+  H221  1  0.36681643  0.89941510  0.03025942  1
  H+  H222  1  0.35712273  0.39181257  0.32313999  1
  H+  H223  1  0.13793839  0.52132371  0.17456326  1
  H+  H224  1  0.64575866  0.53397711  0.17085033  1
  H+  H225  1  0.10120944  0.88987377  0.65714668  1
  H+  H226  1  0.49465075  0.37444273  0.17250876  1
  H+  H227  1  1.02921961  0.13596687  0.81575484  1
  H+  H228  1  0.85847743  0.64175216  0.15689422  1
  H+  H229  1  0.72626919  0.85535749  0.83241960  1
  H+  H230  1  0.97131835  0.61414652  0.50396276  1
  H+  H231  1  0.64538173  0.53300575  0.32141993  1
  H+  H232  1  0.65358744  0.01413814  0.44394579  1
  H+  H233  1  0.97388059  0.85785272  0.32587047  1
  H+  H234  1  0.62763323  0.73411752  0.34118032  1
  H+  H235  1  0.26985211  0.63723473  0.84508540  1
  H+  H236  1  0.63890123  0.85932018  0.83575630  1
  H+  H237  1  0.96610094  0.10372395  0.55074463  1
  H+  H238  1  0.62420083  0.39226546  0.15949282  1
  H+  H239  1  0.48509760  0.37722522  0.64704687  1
  H+  H240  1  0.76844092  0.13629612  0.15780476  1
  H+  H241  1  0.36285836  0.74937408  0.32164820  1
  H+  H242  1  0.28960459  0.66776317  0.65326943  1
  H+  H243  1  0.39409570  0.79350422  0.65518787  1
  H+  H244  1  0.58169533  0.91858397  0.10480133  1
  H+  H245  1  0.64770644  0.25044205  0.50429922  1
  H+  H246  1  0.14270537  0.02226280  0.17206842  1
  H+  H247  1  0.52312761  0.88928790  1.00438751  1
  H+  H248  1  0.61354759  0.47284919  0.00436886  1
  H+  H249  1  0.32112946  0.80946205  0.96140778  1
  H+  H250  1  0.52458225  0.11598521  0.49746018  1
  H+  H251  1  0.27539355  0.13530950  0.48974599  1
  H+  H252  1  -0.11338901  0.27220093  0.17671594  1
  H+  H253  1  0.52693791  0.37868412  0.82675495  1
  H+  H254  1  0.39646067  0.26433913  0.84516761  1
  H+  H255  1  0.65320072  0.87847521  0.33660106  1
  H+  H256  1  0.62126936  0.87645453  0.67575843  1
  H+  H257  1  0.57207429  0.02520343  0.27791477  1
  H+  H258  1  0.17712699  0.10257204  0.25633329  1
  H+  H259  1  0.42682169  0.07830577  0.27467926  1
  H+  H260  1  0.37568649  0.47616091  0.99953399  1
  H+  H261  1  0.93738744  0.78917263  0.86272100  1
  H+  H262  1  0.43641854  0.64334402  0.98194920  1
  H+  H263  1  0.73020220  0.36151443  1.00377329  1
  H+  H264  1  0.50916193  0.62230904  0.99654601  1
  H+  H265  1  0.66434501  0.32973113  0.22778341  1
  H+  H266  1  0.62978702  0.73275729  0.00602022  1
  H+  H267  1  0.03740295  0.89300615  0.00636738  1
  H+  H268  1  0.52678270  0.13672711  0.01261198  1
  H+  H269  1  0.98012940  0.61318166  0.84370237  1
  H+  H270  1  0.12505803  0.38378314  0.49641780  1
  H+  H271  1  0.86262835  0.98071685  0.01196927  1
  H+  H272  1  0.88101040  0.00924681  0.32078326  1
  H+  H273  1  0.37203412  0.65736140  0.65222986  1
  H+  H274  1  0.89259051  0.36455327  0.17996391  1
  H+  H275  1  0.87651757  0.22267515  0.33264780  1
  H+  H276  1  0.27459155  0.89221129  0.02781241  1
  H+  H277  1  0.51558180  0.90597419  0.67849256  1
  H+  H278  1  0.86797396  0.48164707  0.17167321  1
  H+  H279  1  0.33934443  0.13029959  0.67785915  1
  H+  H280  1  0.77194464  0.13795927  0.01206898  1
  H+  H281  1  0.49960608  0.10785334  0.18887723  1
  H+  H282  1  0.77964894  0.60398035  0.32839742  1
  H+  H283  1  0.89747531  0.77621961  0.49474643  1
  H+  H284  1  0.67522767  0.08626236  0.21603478  1
  H+  H285  1  -0.02380972  0.37299887  0.68516943  1
  H+  H286  1  0.11172812  0.89244268  0.82467565  1
  H+  H287  1  0.31701834  0.42539660  0.69800119  1
  H+  H288  1  0.93059049  0.30935485  0.54478274  1
  H+  H289  1  0.42224344  0.85727300  0.59948431  1
  H+  H290  1  0.22745795  0.86628158  0.18212206  1
  H+  H291  1  0.68089836  0.59225465  0.26075475  1
  H+  H292  1  0.58573462  0.64938659  0.42779148  1
  H+  H293  1  0.33254670  0.17242035  0.10624312  1
  H+  H294  1  0.41307476  0.08193133  0.56909279  1
  H+  H295  1  0.16697079  0.08508524  0.56361650  1
  H+  H296  1  0.41516901  0.58425234  0.55425776  1
  H+  H297  1  0.08289850  0.16493073  0.06822862  1
  H+  H298  1  0.88441602  0.74950928  1.00683247  1
  H+  H299  1  0.43578510  0.60210912  0.26706425  1
  H+  H300  1  0.43004340  0.33951671  0.26885135  1
  H+  H301  1  0.91981541  0.58467694  0.60472404  1
  H+  H302  1  0.56484784  0.91844568  0.37512553  1
  H+  H303  1  0.62803207  0.60546733  0.82754075  1
  H+  H304  1  0.91482755  0.07430352  0.26234912  1
  H+  H305  1  0.84969536  0.32775151  0.62124141  1
  H+  H306  1  0.62684255  0.30004806  0.58737895  1
  H+  H307  1  0.66577074  0.32815698  0.91072808  1
  H+  H308  1  0.87335161  0.12525316  0.32972296  1
  H+  H309  1  0.88480747  0.11312601  1.00608054  1
  H+  H310  1  0.83619773  0.67979587  0.09833199  1
  H+  H311  1  0.67535318  0.23981174  0.71982464  1
  H+  H312  1  0.91890707  0.32707795  0.27064677  1
  H+  H313  1  0.41293682  0.82705665  0.23393350  1
  H+  H314  1  0.82861085  0.66752082  0.72809090  1
  H+  H315  1  0.40521180  0.02186974  0.19134323  1
  H+  H316  1  0.86410082  0.37699101  0.34367538  1
  H+  H317  1  0.08803848  0.17305658  0.75670585  1
  H+  H318  1  0.66457573  0.07997474  0.94020411  1
  H+  H319  1  0.18250020  0.58117712  0.56488745  1
  H+  H320  1  0.16680504  0.32725492  0.93274656  1
  H+  H321  1  0.33503921  0.92610970  0.11942885  1
  H+  H322  1  0.63115265  0.42564099  0.73951590  1
  H+  H323  1  0.04498649  0.59296085  0.78609921  1
  H+  H324  1  0.84325963  0.42564936  0.11013970  1
  H+  H325  1  0.07984537  0.41657180  0.77291801  1
  H+  H326  1  0.43607462  0.58783533  0.89915215  1
  H+  H327  1  0.66110047  0.09452367  0.60299927  1
  H+  H328  1  0.16806922  0.83661040  0.59626496  1
  H+  H329  1  0.63202606  0.01709597  0.84650403  1
  H+  H330  1  0.82574455  0.43631522  0.75328040  1
  H+  H331  1  0.91574786  0.58503284  0.94130717  1
  H+  H332  1  0.22844107  0.11743924  0.17083013  1
  H+  H333  1  0.58694784  0.16168810  0.07223624  1
  H+  H334  1  0.08217542  0.40978526  0.10477452  1
  H+  H335  1  0.30773960  0.39379537  0.77184463  1
  H+  H336  1  0.09310632  0.91700321  0.09968903  1
  H+  H337  1  0.61589193  0.38126816  0.83435579  1
  H+  H338  1  0.41602812  0.82853874  0.89656832  1
  H+  H339  1  0.08825668  0.92524936  0.43372137  1
  H+  H340  1  0.32531803  0.92464497  0.40554920  1
  H+  H341  1  0.11999961  0.01970092  0.64746795  1
  H+  H342  1  0.66742044  0.83111230  0.92897789  1
  H+  H343  1  0.60289588  0.67679343  0.06810110  1
  H+  H344  1  0.15039005  0.57871421  0.94451310  1
  H+  H345  1  0.35391331  0.96822493  0.83434575  1
  H+  H346  1  0.42817382  0.32714867  0.94172796  1
  H+  H347  1  0.77655320  0.88839889  0.00466873  1
  H+  H348  1  0.98252240  0.62314958  0.66267589  1
  H+  H349  1  0.90595090  0.61060484  0.23922200  1
  H+  H350  1  0.77147702  0.13096085  0.67468387  1
  H+  H351  1  0.12912789  0.30569360  0.26801722  1
  H+  H352  1  0.82599553  0.91803079  0.09989034  1
  H+  H353  1  0.67805251  0.56999455  0.59163025  1
  H+  H354  1  0.05677277  0.14871837  0.44430889  1
  H+  H355  1  0.10613614  0.46725819  0.01201038  1
  H+  H356  1  0.59256569  0.42173640  0.10097590  1
  H+  H357  1  0.60829325  0.23512160  0.66954406  1
  H+  H358  1  0.63449437  0.64804798  0.33386566  1
  H+  H359  1  0.91248996  0.33174247  0.90329586  1
  H+  H360  1  0.58419252  0.15920042  0.40335292  1
  H+  H361  1  0.93174328  0.86052390  0.23152651  1
  H+  H362  1  0.82677785  0.16035925  0.77266664  1
  H+  H363  1  0.32103035  0.66614764  0.08098816  1
  H+  H364  1  0.21062855  0.84712865  0.83006490  1
  H+  H365  1  0.12556480  0.61404681  0.85119867  1
  H+  H366  1  0.08993747  0.68350494  0.73198993  1
  H+  H367  1  0.85600457  0.97857904  0.66090818  1
  H+  H368  1  0.83107308  0.90482034  0.42615102  1
  H+  H369  1  0.07492307  0.66545322  0.07782041  1
  H+  H370  1  0.58142549  0.92141879  0.77344005  1
  H+  H371  1  0.90593879  0.83062678  0.59047164  1
  H+  H372  1  0.33541724  0.37375435  0.76621835  1
  H+  H373  1  0.57522526  0.16423703  0.78201269  1
  H+  H374  1  0.57830463  0.66874262  0.75677311  1
  H+  H375  1  0.05062815  0.67668491  0.42616646  1
  H+  H376  1  0.31536958  0.15924693  0.73968074  1
  H+  H377  1  0.41054252  0.07899785  0.94456047  1
  H+  H378  1  0.62799682  0.84982145  0.52385408  1
  H+  H379  1  0.32800885  0.43247630  0.08989562  1
  H+  H380  1  0.41311494  0.19375878  0.78705436  1
  H+  H381  1  0.83187348  0.17236665  0.07136483  1
  H+  H382  1  0.62500790  0.64826354  0.16179383  1
  H+  H383  1  0.57908113  0.42953849  0.43519536  1
  O2-  O384  1  0.07708587  0.15699226  0.14695128  1
  O2-  O385  1  0.06070745  0.15255653  0.49015076  1
  O2-  O386  1  0.09075179  0.17170712  0.80209675  1
  O2-  O387  1  0.08584317  0.41364224  0.15033096  1
  O2-  O388  1  0.10247300  0.42273244  0.47822626  1
  O2-  O389  1  0.08838870  0.41781486  0.81734658  1
  O2-  O390  1  0.07890000  0.66704206  0.15816638  1
  O2-  O391  1  0.05769833  0.66936250  0.47010918  1
  O2-  O392  1  0.06540912  0.64166942  0.81372025  1
  O2-  O393  1  0.09580197  0.92007027  0.14559175  1
  O2-  O394  1  0.08983336  0.92209134  0.47883685  1
  O2-  O395  1  0.08231778  0.92603680  0.81656374  1
  O2-  O396  1  0.32436173  0.17191110  0.15138291  1
  O2-  O397  1  0.33573884  0.16178288  0.47466514  1
  O2-  O398  1  0.35948432  0.17290014  0.80937111  1
  O2-  O399  1  0.31333214  0.44628715  0.13154469  1
  O2-  O400  1  0.32233353  0.39907059  0.48117604  1
  O2-  O401  1  0.34246966  0.40390571  0.88171963  1
  O2-  O402  1  0.33326623  0.67105447  0.15102834  1
  O2-  O403  1  0.33238074  0.65805627  0.47873439  1
  O2-  O404  1  0.32893454  0.66556067  0.82815591  1
  O2-  O405  1  0.33337041  0.91997659  0.16492663  1
  O2-  O406  1  0.33821351  0.92020477  0.47669527  1
  O2-  O407  1  0.32855965  0.91113337  0.81352447  1
  O2-  O408  1  0.59133292  0.15894390  0.14685273  1
  O2-  O409  1  0.58282985  0.14040493  0.47903992  1
  O2-  O410  1  0.57416413  0.15945814  0.82667123  1
  O2-  O411  1  0.59303270  0.42286289  0.14687864  1
  O2-  O412  1  0.57633675  0.42757663  0.48039118  1
  O2-  O413  1  0.58862220  0.41010080  0.81218207  1
  O2-  O414  1  0.59630912  0.68001761  0.14532763  1
  O2-  O415  1  0.57425830  0.64063412  0.47264884  1
  O2-  O416  1  0.57967163  0.66335545  0.80171322  1
  O2-  O417  1  0.58358097  0.92424344  0.14951354  1
  O2-  O418  1  0.59763232  0.88342504  0.53716374  1
  O2-  O419  1  0.58444789  0.91418445  0.81826795  1
  O2-  O420  1  0.83445950  0.17407289  0.14746638  1
  O2-  O421  1  0.83266576  0.14952865  0.45712821  1
  O2-  O422  1  0.82957998  0.16547653  0.81766820  1
  O2-  O423  1  0.84268599  0.42198866  0.15563135  1
  O2-  O424  1  0.84565028  0.40484386  0.48438646  1
  O2-  O425  1  0.83106266  0.42107484  0.82551157  1
  O2-  O426  1  0.82712107  0.67078342  0.14364664  1
  O2-  O427  1  0.81192140  0.67555469  0.45325637  1
  O2-  O428  1  0.82176574  0.66737149  0.80195726  1
  O2-  O429  1  0.82813591  0.92342866  0.14545808  1
  O2-  O430  1  0.82698703  0.90125856  0.47104819  1
  O2-  O431  1  0.82861688  0.90424048  0.80125034  1
  O2-  O432  1  0.16702929  0.08282542  0.18745501  1
  O2-  O433  1  0.16826951  0.08461611  0.51719034  1
  O2-  O434  1  0.18056001  0.09048881  0.83898653  1
  O2-  O435  1  0.15853753  0.32079776  0.19061789  1
  O2-  O436  1  0.15561851  0.32875384  0.52492578  1
  O2-  O437  1  0.17089429  0.32363250  0.85605082  1
  O2-  O438  1  0.16820163  0.58146291  0.19075128  1
  O2-  O439  1  0.18836351  0.57734453  0.52037776  1
  O2-  O440  1  0.16011827  0.58808495  0.87013010  1
  O2-  O441  1  0.16546942  0.83487357  0.19496806  1
  O2-  O442  1  0.16633712  0.83413378  0.51795231  1
  O2-  O443  1  0.14857439  0.82192845  0.83770711  1
  O2-  O444  1  0.44387650  0.07758736  0.21177276  1
  O2-  O445  1  0.41715702  0.07998276  0.52390641  1
  O2-  O446  1  0.40016436  0.07073752  0.86715180  1
  O2-  O447  1  0.43428108  0.34599107  0.19009447  1
  O2-  O448  1  0.41015080  0.32376251  0.51044596  1
  O2-  O449  1  0.43177061  0.32457144  0.86340572  1
  O2-  O450  1  0.42989326  0.59952055  0.18688075  1
  O2-  O451  1  0.41130400  0.57975249  0.50848597  1
  O2-  O452  1  0.41967013  0.57940818  0.85557822  1
  O2-  O453  1  0.41721736  0.83250303  0.18814714  1
  O2-  O454  1  0.42849681  0.83797312  0.51871582  1
  O2-  O455  1  0.41800489  0.82835293  0.85187634  1
  O2-  O456  1  0.67515246  0.08468103  0.17146210  1
  O2-  O457  1  0.66392455  0.04122079  0.48526535  1
  O2-  O458  1  0.66321363  0.07782583  0.86169784  1
  O2-  O459  1  0.67278910  0.33395154  0.18316410  1
  O2-  O460  1  0.67227821  0.30795374  0.52291801  1
  O2-  O461  1  0.66359020  0.32595140  0.86493391  1
  O2-  O462  1  0.67397499  0.59406670  0.18599035  1
  O2-  O463  1  0.66727485  0.56970830  0.52869370  1
  O2-  O464  1  0.66187407  0.57938198  0.84347630  1
  O2-  O465  1  0.66437490  0.84276312  0.19380935  1
  O2-  O466  1  0.67804717  0.80030982  0.52316792  1
  O2-  O467  1  0.66643641  0.82558318  0.84924377  1
  O2-  O468  1  0.91334841  0.08274649  0.18925086  1
  O2-  O469  1  0.96966752  0.09696344  0.50580406  1
  O2-  O470  1  0.92705684  0.07993733  0.83706847  1
  O2-  O471  1  0.92128083  0.33227700  0.19413971  1
  O2-  O472  1  0.92672011  0.31846814  0.50164921  1
  O2-  O473  1  0.91506058  0.33416173  0.85780740  1
  O2-  O474  1  0.91133443  0.58853947  0.19887918  1
  O2-  O475  1  0.91354073  0.57511821  0.52572430  1
  O2-  O476  1  0.91701569  0.58522252  0.86182222  1
  O2-  O477  1  0.95132961  0.89194907  0.19262969  1
  O2-  O478  1  0.92503542  0.83259531  0.51494562  1
  O2-  O479  1  0.93321235  0.83923663  0.85084483  1
  O2-  O480  1  0.18792777  0.12649329  0.30030478  1
  O2-  O481  1  0.15437524  0.08301655  0.63525384  1
  O2-  O482  1  0.17207696  0.07732413  0.99549356  1
  O2-  O483  1  0.09574570  0.29576553  0.30593027  1
  O2-  O484  1  0.15241548  0.32943539  0.63745053  1
  O2-  O485  1  0.16880293  0.33306541  0.97830716  1
  O2-  O486  1  0.17286178  0.56839057  0.31457602  1
  O2-  O487  1  0.16476498  0.59209416  0.64488141  1
  O2-  O488  1  0.14606798  0.57293965  0.99041134  1
  O2-  O489  1  0.16693580  0.84826338  0.31338473  1
  O2-  O490  1  0.16309036  0.83568440  0.64161004  1
  O2-  O491  1  0.18700502  0.83804891  0.99905059  1
  O2-  O492  1  0.41421355  0.07628655  0.32229846  1
  O2-  O493  1  0.40361238  0.08209365  0.64900661  1
  O2-  O494  1  0.42058253  0.08664844  0.98961450  1
  O2-  O495  1  0.43037634  0.34022227  0.31418560  1
  O2-  O496  1  0.35814341  0.30351710  0.62524511  1
  O2-  O497  1  0.42392590  0.33244641  0.98685953  1
  O2-  O498  1  0.43494761  0.60123133  0.31228439  1
  O2-  O499  1  0.40918268  0.59124251  0.62786275  1
  O2-  O500  1  0.44780010  0.59595436  0.97933961  1
  O2-  O501  1  0.38655639  0.80907947  0.30640403  1
  O2-  O502  1  0.41971873  0.85686879  0.64460888  1
  O2-  O503  1  0.37414419  0.81477950  0.97774202  1
  O2-  O504  1  0.62666939  0.06463839  0.29720802  1
  O2-  O505  1  0.66514028  0.09421635  0.64714364  1
  O2-  O506  1  0.66419069  0.07773886  0.98565835  1
  O2-  O507  1  0.61075487  0.30812899  0.30049640  1
  O2-  O508  1  0.59299816  0.28739114  0.62662060  1
  O2-  O509  1  0.67032251  0.33073002  0.98716397  1
  O2-  O510  1  0.68437471  0.59308308  0.30677374  1
  O2-  O511  1  0.68407938  0.57410481  0.64085613  1
  O2-  O512  1  0.65073218  0.56231487  0.97131291  1
  O2-  O513  1  0.66884989  0.83872527  0.31629352  1
  O2-  O514  1  0.64246662  0.84287508  0.65279174  1
  O2-  O515  1  0.66782917  0.83192467  0.97442237  1
  O2-  O516  1  0.91248183  0.07194050  0.30864052  1
  O2-  O517  1  0.92456398  0.08918353  0.62967855  1
  O2-  O518  1  0.91005712  0.07742936  0.99387797  1
  O2-  O519  1  0.91566717  0.32175469  0.31638876  1
  O2-  O520  1  0.86289615  0.33004310  0.66435425  1
  O2-  O521  1  0.91206118  0.33395781  0.98329914  1
  O2-  O522  1  0.90147462  0.66818403  0.30766711  1
  O2-  O523  1  0.92070138  0.59050559  0.65008426  1
  O2-  O524  1  0.91244094  0.58222815  0.98658478  1
  O2-  O525  1  0.91585922  0.82301738  0.30822774  1
  O2-  O526  1  0.90057369  0.83389161  0.63557140  1
  O2-  O527  1  0.93423717  0.85620027  0.97741267  1
  O2-  O528  1  0.08294639  0.16351182  0.02290817  1
  O2-  O529  1  0.06285602  0.14666670  0.36745479  1
  O2-  O530  1  0.07946634  0.17097823  0.67890321  1
  O2-  O531  1  0.07992878  0.40667989  0.02673290  1
  O2-  O532  1  0.08162951  0.41536692  0.35574061  1
  O2-  O533  1  0.03900897  0.40229344  0.69216102  1
  O2-  O534  1  0.07595133  0.66744173  0.03252362  1
  O2-  O535  1  0.04207852  0.68821025  0.34609367  1
  O2-  O536  1  0.08987370  0.67933462  0.68674096  1
  O2-  O537  1  0.09592237  0.91649664  0.02411232  1
  O2-  O538  1  0.08245861  0.92524700  0.35414843  1
  O2-  O539  1  0.07269275  0.92334513  0.66625420  1
  O2-  O540  1  0.34022345  0.17071489  0.03097402  1
  O2-  O541  1  0.34394805  0.17032735  0.35298992  1
  O2-  O542  1  0.30536755  0.15537770  0.69397945  1
  O2-  O543  1  0.34297960  0.41926543  0.01885721  1
  O2-  O544  1  0.32200809  0.41817298  0.31385760  1
  O2-  O545  1  0.30868103  0.42583471  0.65423430  1
  O2-  O546  1  0.31362527  0.66035249  0.03448420  1
  O2-  O547  1  0.33399886  0.65324079  0.36016893  1
  O2-  O548  1  0.34889193  0.69402388  0.66773402  1
  O2-  O549  1  0.33683867  0.92940636  0.04413255  1
  O2-  O550  1  0.32031621  0.92912266  0.35953430  1
  O2-  O551  1  0.32511799  0.92251479  0.69123105  1
  O2-  O552  1  0.58806892  0.16517322  0.02616514  1
  O2-  O553  1  0.58010577  0.16389048  0.35812203  1
  O2-  O554  1  0.62101940  0.19818425  0.70130585  1
  O2-  O555  1  0.58692330  0.41485458  0.02584152  1
  O2-  O556  1  0.58929109  0.43523072  0.35581981  1
  O2-  O557  1  0.66169260  0.43843499  0.69932858  1
  O2-  O558  1  0.60210897  0.67279224  0.02255751  1
  O2-  O559  1  0.60038043  0.67215452  0.35282761  1
  O2-  O560  1  0.57389251  0.67657254  0.67535442  1
  O2-  O561  1  0.58210432  0.91385932  0.01858507  1
  O2-  O562  1  0.63242956  0.95546106  0.37649917  1
  O2-  O563  1  0.57428717  0.93359747  0.69755809  1
  O2-  O564  1  0.83274023  0.17273465  0.02553925  1
  O2-  O565  1  0.84504589  0.15952758  0.34581420  1
  O2-  O566  1  0.83111637  0.16187849  0.69058017  1
  O2-  O567  1  0.83488304  0.41987842  0.03136568  1
  O2-  O568  1  0.83367448  0.40409919  0.36355967  1
  O2-  O569  1  0.81437296  0.43699195  0.70808735  1
  O2-  O570  1  0.85053206  0.69150062  0.02495289  1
  O2-  O571  1  0.83204058  0.60907961  0.34923325  1
  O2-  O572  1  0.83180076  0.66728854  0.68195088  1
  O2-  O573  1  0.83410421  0.91716456  0.02386508  1
  O2-  O574  1  0.83488416  0.90896552  0.34483660  1
  O2-  O575  1  0.81979309  0.91879931  0.67608189  1
