# generated using pymatgen
data_H2O
_symmetry_space_group_name_H-M   'P 1'
_cell_length_a   17.98957170
_cell_length_b   17.98130267
_cell_length_c   21.99682157
_cell_angle_alpha   90.01973086
_cell_angle_beta   89.98031181
_cell_angle_gamma   120.01681505
_symmetry_Int_Tables_number   1
_chemical_formula_structural   H2O
_chemical_formula_sum   'H384 O192'
_cell_volume   6161.10900508
_cell_formula_units_Z   192
loop_
 _symmetry_equiv_pos_site_id
 _symmetry_equiv_pos_as_xyz
  1  'x, y, z'
loop_
 _atom_type_symbol
 _atom_type_oxidation_number
  H+  1.0
  O2-  -2.0
loop_
 _atom_site_type_symbol
 _atom_site_label
 _atom_site_symmetry_multiplicity
 _atom_site_fract_x
 _atom_site_fract_y
 _atom_site_fract_z
 _atom_site_occupancy
  H+  H0  1  0.37518751  0.11004786  0.50409358  1
  H+  H1  1  0.37268594  0.00264360  0.32189272  1
  H+  H2  1  0.02126486  0.63664118  0.82806361  1
  H+  H3  1  1.00953842  0.87732439  0.50290168  1
  H+  H4  1  0.96368353  0.85593304  0.98961711  1
  H+  H5  1  0.60384338  0.71470035  0.50468034  1
  H+  H6  1  0.93996140  0.10052479  0.28442379  1
  H+  H7  1  0.36357876  0.46984781  0.66230643  1
  H+  H8  1  0.72765706  0.85909663  0.51436583  1
  H+  H9  1  0.89130090  0.87053991  0.17366050  1
  H+  H10  1  0.65570558  -0.00015137  0.18447863  1
  H+  H11  1  0.89034968  0.52601966  0.51167747  1
  H+  H12  1  0.63015128  0.61299947  0.98710852  1
  H+  H13  1  0.10760705  0.72274604  -0.02735246  1
  H+  H14  1  0.35305496  0.87162319  0.81065748  1
  H+  H15  1  0.10419844  0.74676370  0.17543170  1
  H+  H16  1  0.83166103  0.41679452  0.09639399  1
  H+  H17  1  0.21805553  0.86298315  0.50755151  1
  H+  H18  1  0.57425469  0.39604285  0.42744727  1
  H+  H19  1  0.66066938  0.67087064  0.65861868  1
  H+  H20  1  0.60905829  0.88286220  0.36188480  1
  H+  H21  1  0.38511130  0.35446362  0.51978598  1
  H+  H22  1  0.46461181  0.11147832  0.50293203  1
  H+  H23  1  0.35459927  0.11619814  0.84224283  1
  H+  H24  1  0.64370426  0.85869924  0.83821228  1
  H+  H25  1  0.39156408  0.78267118  0.65861198  1
  H+  H26  1  0.52170335  0.63284856  0.82184056  1
  H+  H27  1  0.76481027  0.87874273  0.16145813  1
  H+  H28  1  0.85573525  0.72521682  0.00293468  1
  H+  H29  1  0.86373849  0.21578581  0.01610873  1
  H+  H30  1  0.35122861  0.13296397  0.67373836  1
  H+  H31  1  0.87934966  0.53708879  0.83893763  1
  H+  H32  1  0.90520040  0.82502132  0.92654017  1
  H+  H33  1  0.86037990  0.47258711  0.00099442  1
  H+  H34  1  0.61133732  0.15427797  0.49246104  1
  H+  H35  1  0.87769172  0.21286579  0.16217788  1
  H+  H36  1  0.12992780  0.60753209  0.66482035  1
  H+  H37  1  0.47326839  0.86451962  0.96966528  1
  H+  H38  1  0.12108026  0.37918703  0.31636401  1
  H+  H39  1  0.34716149  -0.02995301  0.49022588  1
  H+  H40  1  0.31331130  0.90215603  0.39628142  1
  H+  H41  1  0.35875924  0.73940405  -0.00830349  1
  H+  H42  1  0.60626064  0.62655428  0.51165779  1
  H+  H43  1  0.61588582  0.38667575  0.83548477  1
  H+  H44  1  0.98336940  0.62754997  0.19305372  1
  H+  H45  1  0.12525716  0.61094040  0.97264433  1
  H+  H46  1  0.01901486  0.13156321  0.83742293  1
  H+  H47  1  0.61871723  0.71756846  0.15579500  1
  H+  H48  1  0.37157150  0.26736950  1.00316710  1
  H+  H49  1  1.01575592  0.39251835  1.00728977  1
  H+  H50  1  0.86510324  0.13378967  0.67452051  1
  H+  H51  1  0.56484384  0.89414971  0.02548156  1
  H+  H52  1  0.73675003  0.12347857  0.84451083  1
  H+  H53  1  0.46678389  0.11499465  0.65823743  1
  H+  H54  1  0.89513662  0.34597302  0.84451046  1
  H+  H55  1  0.63116965  0.76425583  0.36493201  1
  H+  H56  1  0.72488772  0.61023611  0.50978660  1
  H+  H57  1  0.89593970  0.86183604  0.65391083  1
  H+  H58  1  0.88553924  0.60648473  0.66913424  1
  H+  H59  1  0.26382483  0.13081345  0.00834934  1
  H+  H60  1  0.12536800  0.70219429  0.34929997  1
  H+  H61  1  0.83768958  0.67219952  0.73612409  1
  H+  H62  1  0.60522074  0.72088571  -0.00332005  1
  H+  H63  1  0.59365255  0.45166885  0.33674132  1
  H+  H64  1  0.77735683  0.64579229  0.82491828  1
  H+  H65  1  0.97264169  0.62037143  0.51380651  1
  H+  H66  1  0.14643320  0.36957445  0.50058056  1
  H+  H67  1  0.63278146  0.36133436  0.16720448  1
  H+  H68  1  0.94239964  0.35635619  0.31974056  1
  H+  H69  1  1.02296380  0.12857115  1.00561839  1
  H+  H70  1  0.44997426  0.11361185  0.17139796  1
  H+  H71  1  0.27003209  0.88495872  -0.00967739  1
  H+  H72  1  0.35418870  0.63793383  0.65824792  1
  H+  H73  1  0.38997740  0.87288768  0.65864535  1
  H+  H74  1  0.12411189  0.10735478  0.84743223  1
  H+  H75  1  0.86556371  0.12591059  0.82884596  1
  H+  H76  1  0.23410671  0.36149347  0.83794354  1
  H+  H77  1  0.74080184  0.84866706  0.68946663  1
  H+  H78  1  0.37834777  0.11608955  -0.00158000  1
  H+  H79  1  0.57659715  0.41642500  0.09869863  1
  H+  H80  1  0.87555146  0.60873837  0.99259988  1
  H+  H81  1  0.11694771  0.47441938  0.67301336  1
  H+  H82  1  0.62152753  0.25810364  0.31957558  1
  H+  H83  1  0.68756243  0.21920183  0.86488816  1
  H+  H84  1  0.63531684  0.03497627  0.66338690  1
  H+  H85  1  0.21391318  0.10939755  0.84280700  1
  H+  H86  1  0.11030447  0.97138931  0.00742639  1
  H+  H87  1  0.75905368  0.88508588  0.33300606  1
  H+  H88  1  0.36533412  0.46699040  0.53252693  1
  H+  H89  1  0.13481025  0.86098491  0.98498861  1
  H+  H90  1  0.01753968  0.62736200  0.67538781  1
  H+  H91  1  0.47597334  0.34895872  0.66644964  1
  H+  H92  1  0.91484380  0.11747770  0.18499782  1
  H+  H93  1  0.76931732  0.12965165  0.35106060  1
  H+  H94  1  0.71680215  0.85304219  0.98466776  1
  H+  H95  1  0.20377032  0.82790442  0.32340033  1
  H+  H96  1  0.85140721  0.87208996  0.99881687  1
  H+  H97  1  0.98722884  0.36763828  0.50740732  1
  H+  H98  1  0.12220158  0.14426489  0.65662056  1
  H+  H99  1  0.62809344  0.65445266  0.62880019  1
  H+  H100  1  0.11199563  0.40069778  0.15088003  1
  H+  H101  1  0.38807507  0.78126263  0.50763595  1
  H+  H102  1  0.85772038  0.63950932  0.50390956  1
  H+  H103  1  0.57811964  0.13121016  0.16883801  1
  H+  H104  1  0.11356769  0.66442673  0.19588178  1
  H+  H105  1  0.28092930  0.65896927  0.30670747  1
  H+  H106  1  0.63167865  0.60596631  0.82924309  1
  H+  H107  1  1.02519573  0.55039798  0.34833067  1
  H+  H108  1  0.68952860  0.11884323  0.18968774  1
  H+  H109  1  0.20828038  0.86906863  0.13468526  1
  H+  H110  1  0.82607263  0.34486342  0.34640741  1
  H+  H111  1  0.39495784  0.64892559  0.51271610  1
  H+  H112  1  0.50702122  0.85935324  0.17938499  1
  H+  H113  1  0.83145440  0.97141838  0.13813854  1
  H+  H114  1  0.08463385  0.27939703  0.30499485  1
  H+  H115  1  0.63235972  0.26313313  0.99920241  1
  H+  H116  1  0.88842055  0.63023749  0.83839042  1
  H+  H117  1  0.62892308  1.01309897  -0.01501309  1
  H+  H118  1  0.86972121  0.64175043  0.15966845  1
  H+  H119  1  0.21612030  0.61381828  0.98706623  1
  H+  H120  1  0.44414680  0.73087943  0.14599763  1
  H+  H121  1  0.60915290  0.47358407  0.15843341  1
  H+  H122  1  0.91260478  0.57682133  0.60847796  1
  H+  H123  1  0.11825591  0.76564360  0.65987130  1
  H+  H124  1  0.32664831  0.35020160  0.33157300  1
  H+  H125  1  0.91527248  0.03355705  0.66829475  1
  H+  H126  1  0.22238267  0.11699393  0.65423506  1
  H+  H127  1  0.13421030  0.88335028  0.16069098  1
  H+  H128  1  0.37588891  0.52677024  0.99359790  1
  H+  H129  1  0.90180088  0.66522626  0.29243414  1
  H+  H130  1  0.86332359  0.72061666  0.67088538  1
  H+  H131  1  0.92869743  0.47022907  0.35140640  1
  H+  H132  1  0.34241460  0.87851542  0.49372557  1
  H+  H133  1  0.85943543  0.73301753  0.50319607  1
  H+  H134  1  0.13795785  0.52002936  0.83198051  1
  H+  H135  1  0.67248486  0.83057135  0.41767372  1
  H+  H136  1  0.26820945  0.38997791  0.00991678  1
  H+  H137  1  0.36208167  0.97490015  0.66490588  1
  H+  H138  1  0.11508583  0.21160609  0.40600928  1
  H+  H139  1  0.87843771  0.35253424  0.16513584  1
  H+  H140  1  0.09808060  0.10306446  0.47535659  1
  H+  H141  1  0.86297132  0.78076406  0.33194422  1
  H+  H142  1  0.96495963  0.85344665  0.84750254  1
  H+  H143  1  0.66716336  0.36274715  0.62289720  1
  H+  H144  1  0.59483065  0.36390896  0.33578935  1
  H+  H145  1  0.38665797  0.61217730  0.83300078  1
  H+  H146  1  0.35123816  0.22774268  0.82909274  1
  H+  H147  1  0.95897576  0.09513544  0.50209915  1
  H+  H148  1  0.46888297  0.64197052  0.34487564  1
  H+  H149  1  0.46495505  0.62541260  0.65334639  1
  H+  H150  1  0.36971351  0.47899598  0.82372661  1
  H+  H151  1  0.43070753  0.79592751  0.22295613  1
  H+  H152  1  0.90323827  0.65748914  0.32594470  1
  H+  H153  1  0.03152412  0.37909540  0.82670246  1
  H+  H154  1  0.43805120  0.61487120  0.18554001  1
  H+  H155  1  0.00036134  0.88389129  0.34930899  1
  H+  H156  1  0.64745477  0.48603242  0.82276343  1
  H+  H157  1  0.59441353  0.66420428  0.09390496  1
  H+  H158  1  0.63503484  0.10304129  0.32817582  1
  H+  H159  1  0.18240609  0.60016331  0.23171428  1
  H+  H160  1  0.51169440  0.11988629  0.33207133  1
  H+  H161  1  0.27293959  0.63182574  0.81629194  1
  H+  H162  1  0.38738286  0.51666308  0.20132290  1
  H+  H163  1  0.66616930  0.10531771  0.57192818  1
  H+  H164  1  0.71215909  0.45749458  0.60407931  1
  H+  H165  1  0.46783435  0.11496208  -0.00851100  1
  H+  H166  1  0.81769244  0.89756745  0.05862292  1
  H+  H167  1  0.16376190  0.50986073  0.34120170  1
  H+  H168  1  0.88600140  1.01149822  0.84287501  1
  H+  H169  1  0.12496982  0.24366241  0.65968318  1
  H+  H170  1  0.89787072  0.84591579  0.47180886  1
  H+  H171  1  0.44031237  1.09906551  0.83753294  1
  H+  H172  1  0.87910677  0.10953194  0.51354764  1
  H+  H173  1  0.78457090  0.88150321  0.82041494  1
  H+  H174  1  0.85025376  0.96351563  0.53844935  1
  H+  H175  1  0.87122488  0.87396505  0.83558706  1
  H+  H176  1  0.48095907  0.60691672  0.55421973  1
  H+  H177  1  0.34950100  0.20174616  0.33475841  1
  H+  H178  1  0.34105362  0.41933842  0.76427957  1
  H+  H179  1  0.45879514  0.34610564  0.16789762  1
  H+  H180  1  0.15514996  0.58362685  0.57083012  1
  H+  H181  1  0.35143473  0.21803295  0.49234845  1
  H+  H182  1  0.12996311  0.54229486  0.17546665  1
  H+  H183  1  0.75093965  0.44326050  0.80412036  1
  H+  H184  1  0.22604379  0.38124946  0.16499777  1
  H+  H185  1  0.87137869  0.23000122  0.50298261  1
  H+  H186  1  0.12194743  0.85665552  0.66230286  1
  H+  H187  1  0.60134017  0.22179495  0.68776734  1
  H+  H188  1  0.12619731  0.25001081  0.14520851  1
  H+  H189  1  0.03905542  0.69653414  0.43939385  1
  H+  H190  1  0.46046933  0.35574282  0.99454473  1
  H+  H191  1  0.63756428  0.51823213  0.50333542  1
  H+  H192  1  0.86554135  0.74060867  0.83258199  1
  H+  H193  1  0.35474423  0.22324952  0.67523843  1
  H+  H194  1  0.06371044  0.46230215  0.34679683  1
  H+  H195  1  0.88249246  0.10097683  -0.00175844  1
  H+  H196  1  0.47354785  0.85693505  0.83684864  1
  H+  H197  1  0.72191404  0.61602943  0.98991702  1
  H+  H198  1  0.08721051  0.90373302  0.06127795  1
  H+  H199  1  0.71769506  0.55017101  0.31031012  1
  H+  H200  1  0.72877368  0.13351749  0.51478300  1
  H+  H201  1  0.58176728  0.91286344  0.90160904  1
  H+  H202  1  0.37848351  0.61731376  0.99056419  1
  H+  H203  1  0.10870795  0.49248714  0.00391472  1
  H+  H204  1  0.57899365  0.61059471  0.35965892  1
  H+  H205  1  0.10392022  0.74567640  0.49429782  1
  H+  H206  1  0.57060855  0.18271504  0.82964139  1
  H+  H207  1  0.13127357  0.77058779  0.83423725  1
  H+  H208  1  0.13219792  0.10554961  0.99670381  1
  H+  H209  1  0.71844077  0.10161655  1.00129022  1
  H+  H210  1  0.75002113  0.80825288  0.68884009  1
  H+  H211  1  0.34574166  0.86733889  0.34248423  1
  H+  H212  1  0.62233229  0.94186396  0.12164676  1
  H+  H213  1  0.60863381  0.86663376  0.63465489  1
  H+  H214  1  0.36614738  0.38227022  0.66931152  1
  H+  H215  1  0.13145948  0.09506399  0.33399104  1
  H+  H216  1  0.13103782  0.76654211  0.27500031  1
  H+  H217  1  0.46919134  0.34600050  0.50903658  1
  H+  H218  1  0.24200808  0.11877427  0.16157618  1
  H+  H219  1  0.59405659  0.23282138  0.47866209  1
  H+  H220  1  0.35815615  0.39441440  0.01139194  1
  H+  H221  1  0.51495402  0.89579852  0.66958014  1
  H+  H222  1  0.85114196  0.87459795  0.53753256  1
  H+  H223  1  0.88664058  0.35698895  0.99430983  1
  H+  H224  1  0.38297264  0.86623463  0.97710422  1
  H+  H225  1  0.60451046  0.12639104  0.00879337  1
  H+  H226  1  0.38148250  0.35769762  0.84171771  1
  H+  H227  1  0.63692938  0.35316006  0.98278282  1
  H+  H228  1  0.47387988  0.84986479  0.34565046  1
  H+  H229  1  0.61064990  -0.02833540  0.34605307  1
  H+  H230  1  0.10712908  0.97398615  0.83091186  1
  H+  H231  1  0.75252704  0.36746320  0.34664762  1
  H+  H232  1  0.74049447  0.65465162  0.36334775  1
  H+  H233  1  -0.02508973  0.10765481  0.35234492  1
  H+  H234  1  0.18802501  0.63180852  0.33216872  1
  H+  H235  1  0.72181246  0.36046343  0.16686896  1
  H+  H236  1  0.69783638  0.74294447  0.66974021  1
  H+  H237  1  0.11650564  0.99974980  0.33704713  1
  H+  H238  1  0.23150130  0.36221067  0.65801068  1
  H+  H239  1  1.01743503  0.88775852  0.66327555  1
  H+  H240  1  0.11602005  0.48483622  0.49808117  1
  H+  H241  1  0.72718138  0.60453897  0.17352869  1
  H+  H242  1  0.11529893  0.60814546  0.51583920  1
  H+  H243  1  0.59178507  0.93400958  0.44654820  1
  H+  H244  1  0.61707288  0.44295477  0.67169974  1
  H+  H245  1  0.87259764  0.25548994  0.32660640  1
  H+  H246  1  0.90301661  0.58293307  0.93043915  1
  H+  H247  1  0.01620612  0.63348276  -0.02352619  1
  H+  H248  1  0.22174718  0.61284884  0.65982025  1
  H+  H249  1  0.34202673  -0.02763797  0.14558570  1
  H+  H250  1  0.89635557  0.36396707  0.51098410  1
  H+  H251  1  0.89932875  0.57019484  0.23145473  1
  H+  H252  1  0.01724017  0.39059796  0.15541629  1
  H+  H253  1  0.64856374  0.86959208  0.18645265  1
  H+  H254  1  0.86341290  0.47463303  0.15641818  1
  H+  H255  1  0.72755360  0.12107031  0.66672985  1
  H+  H256  1  0.13176091  0.86074840  0.83312813  1
  H+  H257  1  0.64761348  0.37119147  0.52802724  1
  H+  H258  1  0.93409545  0.04024892  0.19728673  1
  H+  H259  1  0.77441924  0.38047970  0.00384913  1
  H+  H260  1  0.24577525  0.36005326  0.32350458  1
  H+  H261  1  0.86776822  0.86691054  0.31031088  1
  H+  H262  1  0.35132492  0.38156153  0.16173895  1
  H+  H263  1  0.28041837  0.38421387  0.50860308  1
  H+  H264  1  0.56179597  0.40455588  0.93524100  1
  H+  H265  1  0.26653725  0.87506970  0.81377898  1
  H+  H266  1  0.86875191  0.73004573  0.15988871  1
  H+  H267  1  0.74696961  0.58442760  0.65644796  1
  H+  H268  1  0.59966424  0.22776738  0.16038696  1
  H+  H269  1  0.51520351  0.63368870  0.00161390  1
  H+  H270  1  0.76575369  0.37418329  0.83299380  1
  H+  H271  1  0.45478764  0.33679680  0.32394293  1
  H+  H272  1  0.97060463  0.96075797  0.71338308  1
  H+  H273  1  0.21606200  0.10433410  0.49886193  1
  H+  H274  1  0.90876259  0.82529889  0.59048489  1
  H+  H275  1  0.56727118  0.74083348  0.66829029  1
  H+  H276  1  0.02951231  0.38272042  0.67320464  1
  H+  H277  1  0.35746640  0.97610315  -0.00761466  1
  H+  H278  1  0.78363901  0.39303893  0.51308744  1
  H+  H279  1  0.61055070  0.13875503  0.67755020  1
  H+  H280  1  0.84349690  0.97409197  0.31734309  1
  H+  H281  1  0.14367413  0.26951130  -0.00702270  1
  H+  H282  1  0.86942739  0.46794812  0.67862183  1
  H+  H283  1  0.36572634  0.25965932  0.16868233  1
  H+  H284  1  0.39116519  0.08712454  0.90592654  1
  H+  H285  1  0.05589565  0.15520763  0.16031080  1
  H+  H286  1  1.02740359  0.14486437  0.66144026  1
  H+  H287  1  0.63040744  -0.00394072  0.50366130  1
  H+  H288  1  0.33273486  0.42486547  0.10455362  1
  H+  H289  1  0.10997502  0.21945374  0.83647071  1
  H+  H290  1  0.87978272  0.01060086  0.99457651  1
  H+  H291  1  0.79616939  0.12010594  0.17573115  1
  H+  H292  1  0.61623581  0.98305928  0.85119240  1
  H+  H293  1  0.33279118  0.66454741  0.72241461  1
  H+  H294  1  0.16435227  0.08758364  0.59202158  1
  H+  H295  1  0.32331418  0.15777185  0.43167700  1
  H+  H296  1  0.36772034  0.66096135  0.44755138  1
  H+  H297  1  0.07527278  0.91858186  0.76996776  1
  H+  H298  1  0.08806168  0.41134078  0.76549014  1
  H+  H299  1  0.15370579  0.34760342  0.21744360  1
  H+  H300  1  0.83311880  0.41183544  0.73758488  1
  H+  H301  1  0.90342574  0.32057347  0.22484564  1
  H+  H302  1  0.14204911  0.36479527  0.66033908  1
  H+  H303  1  0.68286463  0.55600284  0.59799107  1
  H+  H304  1  0.41855499  0.32273737  0.60547518  1
  H+  H305  1  0.40233949  0.82166105  0.88639897  1
  H+  H306  1  0.15477719  0.82921091  0.56872826  1
  H+  H307  1  0.16568239  0.83660211  0.92263420  1
  H+  H308  1  0.16184214  0.07566107  0.93721530  1
  H+  H309  1  0.92092196  0.32208738  0.93966144  1
  H+  H310  1  0.10912609  0.63274356  0.82550847  1
  H+  H311  1  0.56113182  0.64278009  0.42288964  1
  H+  H312  1  0.89391416  0.25698226  0.84212865  1
  H+  H313  1  0.88228959  0.93228253  0.74722996  1
  H+  H314  1  0.39368689  0.31920889  0.90364308  1
  H+  H315  1  0.80792060  0.68351731  0.41809004  1
  H+  H316  1  0.33001736  0.91029925  0.72150264  1
  H+  H317  1  0.14452005  0.66585539  0.07600360  1
  H+  H318  1  0.26187117  0.11143233  0.33983413  1
  H+  H319  1  0.86152843  0.13463652  0.35220599  1
  H+  H320  1  0.31589145  0.15804146  0.07088390  1
  H+  H321  1  0.39938068  0.30873222  0.26274179  1
  H+  H322  1  0.41056864  0.70506575  0.31155128  1
  H+  H323  1  0.16700671  0.57889958  0.89089126  1
  H+  H324  1  0.16573480  0.33080294  0.55804244  1
  H+  H325  1  0.14664938  0.36343831  0.83908054  1
  H+  H326  1  0.58237826  0.91954191  0.72481806  1
  H+  H327  1  0.62914729  0.85640802  0.97293161  1
  H+  H328  1  0.54930529  0.67720095  0.72831235  1
  H+  H329  1  0.68799800  0.83710252  0.23847644  1
  H+  H330  1  0.40798031  0.08741571  0.59844415  1
  H+  H331  1  0.10261390  0.88085262  0.50176356  1
  H+  H332  1  0.61245077  0.71947905  0.81724806  1
  H+  H333  1  0.53407378  0.13348694  0.76729588  1
  H+  H334  1  0.59459801  0.39349670  0.73287402  1
  H+  H335  1  0.83323385  0.16828488  0.44503055  1
  H+  H336  1  0.10020932  0.43490996  0.43558557  1
  H+  H337  1  0.61394470  0.48152434  -0.02080959  1
  H+  H338  1  0.07568635  0.43173662  0.07319267  1
  H+  H339  1  0.92195737  0.08249157  0.60422366  1
  H+  H340  1  0.36267045  0.72026188  0.81506801  1
  H+  H341  1  0.83835811  0.15368509  0.07396105  1
  H+  H342  1  0.41360261  0.58625011  0.89582175  1
  H+  H343  1  0.82836699  0.66738727  0.06351277  1
  H+  H344  1  0.93507821  0.96468033  0.42633037  1
  H+  H345  1  0.88978421  0.95483663  0.42107519  1
  H+  H346  1  0.90861739  0.07083856  0.90286071  1
  H+  H347  1  0.17608398  0.33181557  0.93612836  1
  H+  H348  1  0.57018838  0.15659152  0.06624186  1
  H+  H349  1  0.92440518  0.33220064  0.60644063  1
  H+  H350  1  0.39304891  0.64723756  0.10421723  1
  H+  H351  1  0.07938957  0.66215087  0.73328730  1
  H+  H352  1  0.64724014  0.87416621  0.49629410  1
  H+  H353  1  0.33239642  0.12187702  0.16415630  1
  H+  H354  1  0.15447515  0.71090273  0.08214832  1
  H+  H355  1  0.89481376  0.35927016  0.66815726  1
  H+  H356  1  0.66269920  0.56545569  0.26268620  1
  H+  H357  1  0.11840011  0.65466640  0.41286516  1
  H+  H358  1  0.68328504  0.07726579  0.27624793  1
  H+  H359  1  0.10136834  0.98297923  0.66720253  1
  H+  H360  1  0.63348399  0.82234715  0.58055517  1
  H+  H361  1  0.81735734  0.39849811  0.44493612  1
  H+  H362  1  0.32545145  0.91755315  0.08498046  1
  H+  H363  1  0.39311397  0.06993086  0.23046825  1
  H+  H364  1  0.13583113  0.04209707  0.24026719  1
  H+  H365  1  0.91468811  0.83806333  0.23463181  1
  H+  H366  1  0.67842385  0.09931331  0.90503503  1
  H+  H367  1  0.32128099  0.69459775  0.05480168  1
  H+  H368  1  0.86821048  0.22400634  0.67532146  1
  H+  H369  1  0.08840990  0.16783702  0.06282091  1
  H+  H370  1  0.65701766  0.32406056  0.26315459  1
  H+  H371  1  0.64120662  0.60849839  0.16870495  1
  H+  H372  1  0.66404711  0.58586831  0.89217929  1
  H+  H373  1  0.67154093  0.28415966  0.90516620  1
  H+  H374  1  0.12659238  0.01208852  0.50594534  1
  H+  H375  1  0.06079262  0.90984765  0.40953097  1
  H+  H376  1  0.84009998  0.16169606  0.76903908  1
  H+  H377  1  0.32094923  0.16590686  0.76794853  1
  H+  H378  1  0.40186155  0.83670827  0.56722508  1
  H+  H379  1  0.37399869  0.09198892  0.32579714  1
  H+  H380  1  0.67092072  0.81906691  0.88990798  1
  H+  H381  1  1.03199816  0.92601762  0.18179189  1
  H+  H382  1  0.41673461  0.60473891  0.28275459  1
  H+  H383  1  0.57151411  0.15776892  0.39086799  1
  O2-  O384  1  0.10568341  0.18917167  0.13388693  1
  O2-  O385  1  0.05088410  0.11254026  0.45716764  1
  O2-  O386  1  0.07974292  0.15825303  0.82387915  1
  O2-  O387  1  0.07617593  0.42773993  0.13828389  1
  O2-  O388  1  0.09093405  0.42544912  0.48011226  1
  O2-  O389  1  0.09100321  0.41388963  0.81107554  1
  O2-  O390  1  0.08140470  0.69587997  0.20364535  1
  O2-  O391  1  0.06462046  0.68552620  0.47489780  1
  O2-  O392  1  0.08029098  0.66431079  0.81042626  1
  O2-  O393  1  0.09516874  0.95857561  0.17197986  1
  O2-  O394  1  0.07180110  0.91169871  0.48844917  1
  O2-  O395  1  0.07884191  0.91385435  0.81456139  1
  O2-  O396  1  0.30256407  0.15258857  0.14796547  1
  O2-  O397  1  0.31918974  0.15729720  0.47713121  1
  O2-  O398  1  0.31913987  0.16568929  0.81355159  1
  O2-  O399  1  0.32777610  0.41909177  0.14988216  1
  O2-  O400  1  0.34447926  0.41224601  0.51103152  1
  O2-  O401  1  0.34014889  0.41798035  0.80948966  1
  O2-  O402  1  0.44683084  0.68133427  0.12574868  1
  O2-  O403  1  0.40088621  0.69241515  0.48288466  1
  O2-  O404  1  0.33295108  0.65904646  0.80030107  1
  O2-  O405  1  0.31247289  0.91341202  0.12912072  1
  O2-  O406  1  0.31347030  0.91001372  0.47529115  1
  O2-  O407  1  0.32461719  0.90281405  0.79533994  1
  O2-  O408  1  0.56082124  0.16658073  0.14624999  1
  O2-  O409  1  0.57325589  0.17151646  0.47075375  1
  O2-  O410  1  0.52292033  0.13000498  0.81177224  1
  O2-  O411  1  0.57686513  0.41224010  0.14290872  1
  O2-  O412  1  0.57987052  0.40042337  0.47371652  1
  O2-  O413  1  0.64612853  0.43281218  0.80620960  1
  O2-  O414  1  0.61208774  0.66527454  0.13673237  1
  O2-  O415  1  0.56818424  0.65090839  0.50210443  1
  O2-  O416  1  0.57917952  0.65909641  0.80149326  1
  O2-  O417  1  0.61683098  0.93491766  0.16555602  1
  O2-  O418  1  0.60836930  0.93632878  0.48972959  1
  O2-  O419  1  0.58700847  0.91987020  0.85674829  1
  O2-  O420  1  0.85468117  0.15103365  0.15288750  1
  O2-  O421  1  0.83441768  0.16835995  0.49046904  1
  O2-  O422  1  0.84107430  0.16276899  0.81457727  1
  O2-  O423  1  0.82906472  0.41431613  0.14195097  1
  O2-  O424  1  0.83549893  0.41323726  0.48846078  1
  O2-  O425  1  0.79784582  0.43042418  0.81206753  1
  O2-  O426  1  0.83690323  0.66965574  0.14532680  1
  O2-  O427  1  0.82411253  0.66711167  0.49176679  1
  O2-  O428  1  0.83836588  0.67823087  0.81205530  1
  O2-  O429  1  0.82299245  0.91356882  0.14049478  1
  O2-  O430  1  0.81624784  0.90200228  0.54931822  1
  O2-  O431  1  0.84762089  0.91259097  0.81413277  1
  O2-  O432  1  0.12969184  0.04608329  0.19477429  1
  O2-  O433  1  0.15558590  0.07615422  0.51504584  1
  O2-  O434  1  0.15554615  0.07568502  0.86065696  1
  O2-  O435  1  0.16208040  0.35318141  0.17251570  1
  O2-  O436  1  0.17129383  0.33356240  0.51340387  1
  O2-  O437  1  0.17485354  0.33192211  0.85512984  1
  O2-  O438  1  0.15976132  0.60161214  0.19073199  1
  O2-  O439  1  0.15126210  0.58336391  0.52541933  1
  O2-  O440  1  0.16754651  0.58143412  0.84560602  1
  O2-  O441  1  0.14364761  0.84175897  0.13799936  1
  O2-  O442  1  0.15658333  0.83218823  0.52240784  1
  O2-  O443  1  0.16356710  0.83170157  0.84801086  1
  O2-  O444  1  0.39002594  0.07783368  0.18545583  1
  O2-  O445  1  0.40577488  0.08045109  0.52028642  1
  O2-  O446  1  0.38111443  0.08043247  0.86000576  1
  O2-  O447  1  0.39977002  0.31999648  0.18410459  1
  O2-  O448  1  0.41154327  0.31627090  0.52759108  1
  O2-  O449  1  0.40235023  0.32012329  0.85905367  1
  O2-  O450  1  0.42747818  0.57311911  0.21897245  1
  O2-  O451  1  0.41802654  0.58045762  0.56435427  1
  O2-  O452  1  0.41818050  0.58436229  0.85064858  1
  O2-  O453  1  0.44749079  0.81051178  0.17980450  1
  O2-  O454  1  0.38308680  0.82965455  0.52413752  1
  O2-  O455  1  0.41029034  0.82123249  0.84108005  1
  O2-  O456  1  0.70797839  0.08134194  0.20732443  1
  O2-  O457  1  0.66718017  0.10808679  0.52660554  1
  O2-  O458  1  0.67863474  0.10759529  0.86004679  1
  O2-  O459  1  0.66114407  0.32914320  0.18210354  1
  O2-  O460  1  0.62256812  0.35013149  0.48575674  1
  O2-  O461  1  0.67705773  0.26843098  0.86253600  1
  O2-  O462  1  0.66612717  0.57287573  0.18711025  1
  O2-  O463  1  0.66268298  0.57455074  0.52381508  1
  O2-  O464  1  0.66518583  0.58042506  0.84702252  1
  O2-  O465  1  0.67356105  0.83096735  0.19522887  1
  O2-  O466  1  0.66684999  0.82989926  0.49671477  1
  O2-  O467  1  0.67149000  0.82361226  0.84423181  1
  O2-  O468  1  0.95336969  0.10004164  0.20722884  1
  O2-  O469  1  0.90858723  0.07798625  0.52843516  1
  O2-  O470  1  0.90955943  0.07244164  0.85739375  1
  O2-  O471  1  0.91141660  0.32498922  0.17978887  1
  O2-  O472  1  0.92795532  0.33497083  0.52534906  1
  O2-  O473  1  0.92535581  0.31770823  0.86022055  1
  O2-  O474  1  0.91842782  0.58400915  0.18938640  1
  O2-  O475  1  0.91328837  0.58375014  0.53025408  1
  O2-  O476  1  0.91571368  0.59624932  0.85440901  1
  O2-  O477  1  0.92565776  0.84575512  0.18925438  1
  O2-  O478  1  0.90637929  0.82753096  0.51173711  1
  O2-  O479  1  0.90441381  0.82420659  0.86074418  1
  O2-  O480  1  0.15313145  0.05957116  0.31629783  1
  O2-  O481  1  0.16213023  0.09061935  0.63764507  1
  O2-  O482  1  0.16366088  0.07493153  0.98297508  1
  O2-  O483  1  0.13056261  0.33600040  0.29345362  1
  O2-  O484  1  0.16992070  0.33217268  0.64389992  1
  O2-  O485  1  0.17523315  0.33112274  0.98128273  1
  O2-  O486  1  0.22077093  0.61106984  0.30734584  1
  O2-  O487  1  0.15960481  0.57679680  0.64857147  1
  O2-  O488  1  0.15713567  0.57596288  0.97110877  1
  O2-  O489  1  0.14246211  0.78340931  0.31826196  1
  O2-  O490  1  0.14007857  0.82186432  0.63913186  1
  O2-  O491  1  0.16707864  0.83364232  0.96847016  1
  O2-  O492  1  0.40444337  0.06357627  0.30705997  1
  O2-  O493  1  0.40650723  0.08811458  0.64400398  1
  O2-  O494  1  0.40733896  0.08800690  0.97675368  1
  O2-  O495  1  0.39576929  0.30130422  0.30776866  1
  O2-  O496  1  0.41582938  0.32541774  0.65098919  1
  O2-  O497  1  0.39849796  0.32712724  0.98595077  1
  O2-  O498  1  0.41679073  0.63270467  0.32330420  1
  O2-  O499  1  0.40741144  0.57529460  0.63079474  1
  O2-  O500  1  0.40760845  0.58639614  0.97589395  1
  O2-  O501  1  0.40905262  0.81371945  0.34375519  1
  O2-  O502  1  0.42475441  0.84351089  0.64533252  1
  O2-  O503  1  0.40837923  0.83108004  0.96148357  1
  O2-  O504  1  0.67002739  0.07486555  0.32192867  1
  O2-  O505  1  0.66731238  0.09752765  0.65193066  1
  O2-  O506  1  0.66115873  0.07931513  0.98230117  1
  O2-  O507  1  0.65185035  0.32069504  0.30828432  1
  O2-  O508  1  0.70262290  0.40011200  0.58987447  1
  O2-  O509  1  0.66793281  0.32069652  0.97927175  1
  O2-  O510  1  0.66675988  0.55611178  0.30782676  1
  O2-  O511  1  0.69787374  0.53483041  0.63529471  1
  O2-  O512  1  0.66298531  0.58497580  0.97134110  1
  O2-  O513  1  0.66519393  0.82713898  0.37234872  1
  O2-  O514  1  0.62096964  0.82041886  0.62419938  1
  O2-  O515  1  0.65833208  0.82131442  0.96585454  1
  O2-  O516  1  0.92254691  0.09043766  0.32821104  1
  O2-  O517  1  0.93078844  0.09051821  0.64944740  1
  O2-  O518  1  0.91274988  0.07189451  0.98115536  1
  O2-  O519  1  0.88869192  0.31004212  0.30326813  1
  O2-  O520  1  0.92447229  0.32804852  0.65166493  1
  O2-  O521  1  0.92064140  0.32801644  0.98488608  1
  O2-  O522  1  0.98611679  0.49028384  0.33419675  1
  O2-  O523  1  0.91358962  0.57400627  0.65382344  1
  O2-  O524  1  0.90272236  0.57626049  0.97584842  1
  O2-  O525  1  0.90069316  0.83519270  0.30921775  1
  O2-  O526  1  0.91378256  0.82271055  0.63544423  1
  O2-  O527  1  0.90350063  0.82497570  0.97524938  1
  O2-  O528  1  0.08466533  0.15939442  0.01703092  1
  O2-  O529  1  0.07983726  0.15001231  0.39656111  1
  O2-  O530  1  0.09222114  0.17728449  0.67182868  1
  O2-  O531  1  0.07567074  0.43203304  0.02474668  1
  O2-  O532  1  0.11382634  0.45423129  0.35509601  1
  O2-  O533  1  0.09074493  0.41324253  0.68766032  1
  O2-  O534  1  0.07830181  0.65916949  -0.03253275  1
  O2-  O535  1  0.11537438  0.64518001  0.36870109  1
  O2-  O536  1  0.07955564  0.66058992  0.68773049  1
  O2-  O537  1  0.07893489  0.90835412  0.01778318  1
  O2-  O538  1  0.06046753  0.91302516  0.36433166  1
  O2-  O539  1  0.06886810  0.92667759  0.68823058  1
  O2-  O540  1  0.32404137  0.16285112  0.02562474  1
  O2-  O541  1  0.32278829  0.14301976  0.35399807  1
  O2-  O542  1  0.31933106  0.16189306  0.68925215  1
  O2-  O543  1  0.32985327  0.42675294  0.02542160  1
  O2-  O544  1  0.29779405  0.38015327  0.34787408  1
  O2-  O545  1  0.33434118  0.41237880  0.68212885  1
  O2-  O546  1  0.32515301  0.68054108  0.01251163  1
  O2-  O547  1  0.39078386  0.75045020  0.29557318  1
  O2-  O548  1  0.32836077  0.66946615  0.67727907  1
  O2-  O549  1  0.33176005  0.91483823  0.00420659  1
  O2-  O550  1  0.31428238  0.89849891  0.35070940  1
  O2-  O551  1  0.33936068  0.91422841  0.67618603  1
  O2-  O552  1  0.57391645  0.15810024  0.02114861  1
  O2-  O553  1  0.57297583  0.15455920  0.34558450  1
  O2-  O554  1  0.57049110  0.15958163  0.69212449  1
  O2-  O555  1  0.58104172  0.41592123  -0.02255545  1
  O2-  O556  1  0.56349867  0.39232429  0.35338383  1
  O2-  O557  1  0.58026100  0.38454784  0.68905029  1
  O2-  O558  1  0.57701141  0.66080813  0.01311852  1
  O2-  O559  1  0.56462605  0.65135285  0.37764780  1
  O2-  O560  1  0.52381620  0.68900674  0.69191769  1
  O2-  O561  1  0.57535310  0.91053355  -0.01719290  1
  O2-  O562  1  0.57564234  0.91327354  0.36480949  1
  O2-  O563  1  0.57923591  0.93098819  0.68191649  1
  O2-  O564  1  0.83175762  0.15475281  0.02884765  1
  O2-  O565  1  0.83065786  0.16506423  0.36556057  1
  O2-  O566  1  0.83459352  0.16311031  0.69045656  1
  O2-  O567  1  0.83539314  0.41263972  0.01776582  1
  O2-  O568  1  0.80756915  0.38197922  0.36720049  1
  O2-  O569  1  0.84599999  0.40845470  0.69436423  1
  O2-  O570  1  0.82422962  0.66394873  0.01836254  1
  O2-  O571  1  0.79561189  0.70107019  0.37794166  1
  O2-  O572  1  0.83643122  0.66312577  0.69072514  1
  O2-  O573  1  0.81940769  0.90194343  0.01369464  1
  O2-  O574  1  0.80798643  0.91380363  0.30390908  1
  O2-  O575  1  0.91201743  0.94872549  0.70540754  1
