# generated using pymatgen
data_H2O
_symmetry_space_group_name_H-M   'P 1'
_cell_length_a   17.99544053
_cell_length_b   17.99494415
_cell_length_c   22.00231823
_cell_angle_alpha   90.00633479
_cell_angle_beta   90.00658008
_cell_angle_gamma   120.01574928
_symmetry_Int_Tables_number   1
_chemical_formula_structural   H2O
_chemical_formula_sum   'H384 O192'
_cell_volume   6169.40248153
_cell_formula_units_Z   192
loop_
 _symmetry_equiv_pos_site_id
 _symmetry_equiv_pos_as_xyz
  1  'x, y, z'
loop_
 _atom_type_symbol
 _atom_type_oxidation_number
  H+  1.0
  O2-  -2.0
loop_
 _atom_site_type_symbol
 _atom_site_label
 _atom_site_symmetry_multiplicity
 _atom_site_fract_x
 _atom_site_fract_y
 _atom_site_fract_z
 _atom_site_occupancy
  H+  H0  1  0.27724148  0.13796200  0.34238256  1
  H+  H1  1  0.86255111  0.38897070  0.67812747  1
  H+  H2  1  0.52764292  0.88809629  0.83421842  1
  H+  H3  1  0.84647877  0.95074101  -0.02390785  1
  H+  H4  1  0.13378777  0.61244131  0.00197082  1
  H+  H5  1  0.15859424  0.87404925  0.30607938  1
  H+  H6  1  0.10442635  0.37077101  0.15355078  1
  H+  H7  1  0.24201424  0.61079681  0.67198397  1
  H+  H8  1  0.52730376  0.41117844  0.81107157  1
  H+  H9  1  0.41577384  0.11711152  0.62011436  1
  H+  H10  1  0.03475914  0.16019395  0.00249150  1
  H+  H11  1  0.38331734  0.77058813  0.00536896  1
  H+  H12  1  0.76748676  0.37956375  -0.02253339  1
  H+  H13  1  0.62330249  0.64432952  0.81831902  1
  H+  H14  1  0.12187583  0.73418564  0.00889372  1
  H+  H15  1  0.38226129  0.01241984  1.01743513  1
  H+  H16  1  0.87027575  0.27074603  0.31060864  1
  H+  H17  1  0.12489848  0.74774994  0.16824318  1
  H+  H18  1  0.15860315  0.28473493  0.33043797  1
  H+  H19  1  0.61051468  0.89054066  0.50359829  1
  H+  H20  1  0.87283448  0.68788751  0.08771357  1
  H+  H21  1  0.22503408  0.10864275  0.17321664  1
  H+  H22  1  0.77139624  0.14031137  1.00757497  1
  H+  H23  1  0.71882677  0.85240760  0.99260673  1
  H+  H24  1  0.86654290  0.72741614  0.49818290  1
  H+  H25  1  0.53380265  0.14640138  0.16007933  1
  H+  H26  1  0.73861517  0.62536126  0.83157149  1
  H+  H27  1  0.11500548  0.38728059  0.83000617  1
  H+  H28  1  0.39099824  0.38742917  0.82689000  1
  H+  H29  1  0.49465805  0.62205464  0.83887816  1
  H+  H30  1  0.13800717  0.02788267  0.33551045  1
  H+  H31  1  0.38317638  0.52352748  0.64914239  1
  H+  H32  1  -0.00954293  0.58202156  0.67369087  1
  H+  H33  1  0.66988817  0.31465410  0.60566773  1
  H+  H34  1  0.87695978  0.59399343  0.32961861  1
  H+  H35  1  0.40597026  0.90471317  0.13721771  1
  H+  H36  1  0.36517819  0.39638771  0.16117640  1
  H+  H37  1  0.89128940  0.34129011  0.45205670  1
  H+  H38  1  0.91005472  0.62091141  0.99829070  1
  H+  H39  1  0.75975642  0.62482454  0.33569788  1
  H+  H40  1  0.75616449  0.88238654  0.34297837  1
  H+  H41  1  0.42091480  0.64094951  0.85536455  1
  H+  H42  1  0.89666389  0.56099906  0.60181010  1
  H+  H43  1  0.73765402  0.62297908  0.67131315  1
  H+  H44  1  0.40710607  0.33826659  0.58194195  1
  H+  H45  1  0.81004067  0.97109078  0.37781602  1
  H+  H46  1  0.86710463  0.64087025  0.82983452  1
  H+  H47  1  0.37548546  0.38744741  0.32196956  1
  H+  H48  1  0.86793796  0.46233957  0.49204882  1
  H+  H49  1  0.73870295  0.34793642  0.51771646  1
  H+  H50  1  0.61073259  0.47494424  0.15273441  1
  H+  H51  1  -0.00992446  0.12255030  0.17561704  1
  H+  H52  1  0.51108373  0.37528521  0.65450131  1
  H+  H53  1  0.05515008  0.39918885  0.37174134  1
  H+  H54  1  0.58025286  0.22897081  0.83309543  1
  H+  H55  1  0.09495721  0.14317276  0.79946582  1
  H+  H56  1  0.91227202  0.37408368  -0.00453824  1
  H+  H57  1  0.36072237  0.72796988  0.16014237  1
  H+  H58  1  0.62432444  -0.02426051  0.32414982  1
  H+  H59  1  0.11244101  -0.01161277  0.50459924  1
  H+  H60  1  0.22227139  0.84449979  0.83273461  1
  H+  H61  1  0.98735140  0.35400224  0.98889968  1
  H+  H62  1  0.62972645  0.51363089  0.32564756  1
  H+  H63  1  0.01584450  0.88152815  0.35246483  1
  H+  H64  1  0.22671863  0.12170273  0.67796050  1
  H+  H65  1  0.64491570  0.11703558  0.32433153  1
  H+  H66  1  0.70630966  0.59680910  0.97638668  1
  H+  H67  1  0.08811208  1.02041569  0.83845704  1
  H+  H68  1  0.85402349  0.24239721  0.15427951  1
  H+  H69  1  0.08519513  0.91417603  0.10195518  1
  H+  H70  1  0.14194816  0.50696479  0.51036078  1
  H+  H71  1  0.52130873  0.63872166  0.66471999  1
  H+  H72  1  0.26639428  0.63333701  1.00960438  1
  H+  H73  1  0.15994500  0.37502236  0.33318275  1
  H+  H74  1  0.36030444  0.13911353  0.15143402  1
  H+  H75  1  0.38106935  0.01358415  0.49332138  1
  H+  H76  1  0.13290167  0.84334067  0.82791031  1
  H+  H77  1  0.89843422  0.03583096  0.17740582  1
  H+  H78  1  0.20250385  0.60846915  0.84437326  1
  H+  H79  1  1.04316711  0.15848522  0.33592336  1
  H+  H80  1  -0.01202058  0.37986300  0.65865472  1
  H+  H81  1  0.86236122  0.62887393  0.67308081  1
  H+  H82  1  0.83521478  0.37492474  0.33456892  1
  H+  H83  1  0.11906042  0.23574043  0.69188144  1
  H+  H84  1  0.34970538  0.47762425  0.01111678  1
  H+  H85  1  0.38766726  0.62407874  0.17114919  1
  H+  H86  1  0.61202182  0.88441463  1.00862312  1
  H+  H87  1  0.35720924  0.96216128  0.83564143  1
  H+  H88  1  0.11431190  0.98240040  0.00764174  1
  H+  H89  1  0.52946397  0.13319700  0.48540762  1
  H+  H90  1  0.45548114  0.10016371  0.85335159  1
  H+  H91  1  0.88320116  0.60428935  0.50667545  1
  H+  H92  1  0.75511965  0.34729904  1.00249106  1
  H+  H93  1  0.48002769  0.62629366  0.16653275  1
  H+  H94  1  0.31939237  0.17579941  0.86439254  1
  H+  H95  1  0.22919489  0.37041353  0.17362147  1
  H+  H96  1  0.39611815  0.30389530  0.81429045  1
  H+  H97  1  0.22610585  0.12298225  0.51418247  1
  H+  H98  1  0.36207291  0.23016939  0.49454577  1
  H+  H99  1  0.66412260  0.33632873  0.22471072  1
  H+  H100  1  0.57608296  0.37406632  -0.00006710  1
  H+  H101  1  0.89832869  0.77865671  0.83762925  1
  H+  H102  1  0.84219761  0.46951540  0.83407258  1
  H+  H103  1  0.35510359  0.47397350  0.48744261  1
  H+  H104  1  0.07765284  0.66002346  0.65830850  1
  H+  H105  1  0.97653082  0.11239836  0.50382468  1
  H+  H106  1  0.87816785  0.36745412  0.15978684  1
  H+  H107  1  0.58383945  0.46696343  0.99749143  1
  H+  H108  1  0.33309397  0.91218854  0.38977006  1
  H+  H109  1  0.25675356  0.62826536  0.50242813  1
  H+  H110  1  0.62802994  0.26777618  0.31979513  1
  H+  H111  1  0.66242613  0.01334976  0.85438243  1
  H+  H112  1  0.91530726  0.49672332  0.00989944  1
  H+  H113  1  0.63140064  0.02079346  0.51887949  1
  H+  H114  1  0.37640763  0.77560530  0.51199121  1
  H+  H115  1  0.14399387  0.58800360  0.67215468  1
  H+  H116  1  0.01485013  0.36917723  0.14680271  1
  H+  H117  1  0.72284978  0.85716991  0.51357143  1
  H+  H118  1  0.38242008  0.27075532  0.32285606  1
  H+  H119  1  0.98544327  0.60879723  0.17372996  1
  H+  H120  1  0.73614000  0.86503939  0.17026583  1
  H+  H121  1  0.83667607  0.67363452  0.43608404  1
  H+  H122  1  -0.00044487  0.62640891  -0.00969271  1
  H+  H123  1  0.61627936  0.72433039  0.33454727  1
  H+  H124  1  0.58899846  0.16410969  0.39456205  1
  H+  H125  1  0.91075463  0.05475745  1.02235716  1
  H+  H126  1  0.77174015  0.13406983  0.68325284  1
  H+  H127  1  0.89365815  1.01830748  0.51067829  1
  H+  H128  1  0.60795936  0.64059829  0.48973322  1
  H+  H129  1  0.51442220  0.12355711  1.01194697  1
  H+  H130  1  0.38820069  0.77733636  0.85159093  1
  H+  H131  1  0.02903229  0.89187770  0.00573094  1
  H+  H132  1  0.39061833  0.86517587  0.84771916  1
  H+  H133  1  0.36374928  0.27382157  0.63690028  1
  H+  H134  1  0.13369638  0.25988219  -0.00999548  1
  H+  H135  1  0.51754216  0.38188312  0.33589309  1
  H+  H136  1  0.64690302  0.53697873  0.82315484  1
  H+  H137  1  0.63323707  0.11112451  0.99871846  1
  H+  H138  1  0.64670309  0.86412365  0.17337809  1
  H+  H139  1  0.46551003  0.36912214  0.49934681  1
  H+  H140  1  0.45071168  0.34797460  0.98522107  1
  H+  H141  1  0.65415051  0.56443947  0.70720449  1
  H+  H142  1  0.12876315  0.34425591  0.67216031  1
  H+  H143  1  0.36998072  0.49469520  0.82121375  1
  H+  H144  1  0.87382482  0.73892549  0.17637425  1
  H+  H145  1  0.85528254  0.91251686  0.64743757  1
  H+  H146  1  0.87892891  0.72657714  0.67527170  1
  H+  H147  1  0.85274435  0.68698952  0.31019039  1
  H+  H148  1  0.11284118  0.46981564  1.00521365  1
  H+  H149  1  0.61393081  0.88316975  0.82836300  1
  H+  H150  1  0.13776097  0.87113983  0.50937813  1
  H+  H151  1  0.86930999  0.48408483  0.16630110  1
  H+  H152  1  0.48110063  0.88216226  0.66180733  1
  H+  H153  1  0.87678805  0.22767918  0.38513367  1
  H+  H154  1  0.71216399  0.35993965  0.32240944  1
  H+  H155  1  0.62437016  0.23358560  0.15709310  1
  H+  H156  1  0.14963093  0.79947177  0.66153276  1
  H+  H157  1  0.61406010  0.64645863  0.67065932  1
  H+  H158  1  -0.03502202  0.60609485  0.83652882  1
  H+  H159  1  0.39867823  0.77961032  0.31638799  1
  H+  H160  1  0.11127759  0.72061136  0.50271203  1
  H+  H161  1  0.85996580  0.11565492  0.50243530  1
  H+  H162  1  0.38156388  0.48786782  0.31899516  1
  H+  H163  1  0.89441560  0.25860756  0.46938414  1
  H+  H164  1  0.22241392  0.62460476  0.19322642  1
  H+  H165  1  0.59792841  0.47796795  0.49023744  1
  H+  H166  1  0.31571859  0.62254805  0.80391962  1
  H+  H167  1  0.35615087  0.88399348  0.48806272  1
  H+  H168  1  0.26772540  0.88572333  0.48686592  1
  H+  H169  1  0.14013931  0.88447639  0.66414244  1
  H+  H170  1  0.12296532  0.15283751  -0.00111835  1
  H+  H171  1  1.07341391  0.67728007  0.44072761  1
  H+  H172  1  0.47192351  0.61148141  0.99932688  1
  H+  H173  1  0.11519289  0.13595565  0.16638428  1
  H+  H174  1  0.97995138  0.86559517  0.51989196  1
  H+  H175  1  0.14160009  0.48992183  0.35544443  1
  H+  H176  1  0.88953795  0.89542018  0.33518747  1
  H+  H177  1  0.11013239  0.59654693  0.84367930  1
  H+  H178  1  0.91262063  0.05229084  0.32216313  1
  H+  H179  1  0.91010147  0.31806680  0.61724576  1
  H+  H180  1  0.66622400  0.12639218  0.76890110  1
  H+  H181  1  0.11908327  0.22662175  0.16551425  1
  H+  H182  1  0.15041314  0.28814165  0.82459163  1
  H+  H183  1  0.13757886  0.62954909  0.19955505  1
  H+  H184  1  0.35579370  0.63357739  0.00989074  1
  H+  H185  1  0.85113929  0.46947065  0.33962826  1
  H+  H186  1  0.36102552  0.39165499  0.66288513  1
  H+  H187  1  0.72289480  0.10676422  0.51810112  1
  H+  H188  1  0.00166910  0.86840667  0.67228756  1
  H+  H189  1  0.86166305  0.87383957  0.50784612  1
  H+  H190  1  0.34819600  0.12145910  1.00588792  1
  H+  H191  1  0.14096279  0.86485931  0.98828115  1
  H+  H192  1  0.73163331  0.86421348  0.83921077  1
  H+  H193  1  0.13928732  0.12247799  0.68074183  1
  H+  H194  1  0.52681936  0.13219546  0.33589273  1
  H+  H195  1  0.72673210  0.61976781  0.50457558  1
  H+  H196  1  0.13927389  0.36568882  0.98504449  1
  H+  H197  1  0.59735359  0.26040777  0.98758977  1
  H+  H198  1  0.10351668  0.70984313  0.81813494  1
  H+  H199  1  0.82745574  0.89878872  0.44802293  1
  H+  H200  1  0.23295114  0.37079209  -0.00700254  1
  H+  H201  1  0.11217394  0.97658826  0.67737717  1
  H+  H202  1  0.87436082  0.13358155  0.68678643  1
  H+  H203  1  0.17404731  0.59066581  0.29182816  1
  H+  H204  1  0.62602825  0.37131863  0.83184199  1
  H+  H205  1  0.38598018  0.64074260  0.32959596  1
  H+  H206  1  0.38675519  0.61417479  0.64593698  1
  H+  H207  1  0.76484592  0.89629545  0.66828436  1
  H+  H208  1  0.28118899  0.88477166  0.32666714  1
  H+  H209  1  0.68544570  0.15103576  0.79754121  1
  H+  H210  1  0.37900603  0.61667626  0.49767140  1
  H+  H211  1  0.94593914  0.36667534  0.30938316  1
  H+  H212  1  0.63248671  0.60496747  0.32596256  1
  H+  H213  1  0.87406691  0.89612946  0.15864585  1
  H+  H214  1  0.73631891  0.12202546  0.32534715  1
  H+  H215  1  0.38188926  0.27491504  0.16584656  1
  H+  H216  1  0.39277629  0.86587119  0.31808680  1
  H+  H217  1  0.38988362  0.02263380  0.32179965  1
  H+  H218  1  0.55400526  0.16141233  0.77926701  1
  H+  H219  1  0.90025573  0.77579777  -0.00292233  1
  H+  H220  1  0.47317222  0.36196905  0.16747830  1
  H+  H221  1  0.11555806  0.15718188  0.49498295  1
  H+  H222  1  0.36880780  0.13961891  0.70066372  1
  H+  H223  1  0.21984882  0.34742911  0.66810210  1
  H+  H224  1  0.38988298  0.88025983  0.66242278  1
  H+  H225  1  0.08034480  0.92254900  0.44740003  1
  H+  H226  1  0.98700815  0.87255418  0.17586429  1
  H+  H227  1  0.10401139  0.74855653  0.34340355  1
  H+  H228  1  0.60342301  0.45868191  0.65102720  1
  H+  H229  1  0.60455086  0.37922850  0.33665252  1
  H+  H230  1  0.83778631  0.91742265  0.76625064  1
  H+  H231  1  0.38162274  0.75521479  0.66875074  1
  H+  H232  1  0.60532316  0.12981056  0.68037518  1
  H+  H233  1  0.27634002  0.90134038  0.67466823  1
  H+  H234  1  0.14142622  0.11837680  0.33190691  1
  H+  H235  1  0.63295972  0.78132460  0.66134318  1
  H+  H236  1  0.37707468  0.22884487  0.71701843  1
  H+  H237  1  0.58339079  0.16503924  0.06531292  1
  H+  H238  1  0.88574296  0.16125646  0.33739427  1
  H+  H239  1  0.98790800  0.86669126  0.83813167  1
  H+  H240  1  0.89329256  1.02252562  0.84351483  1
  H+  H241  1  0.63077862  0.77221553  0.50720510  1
  H+  H242  1  0.26234266  0.38904163  0.48937810  1
  H+  H243  1  0.64097983  1.02913751  0.66837997  1
  H+  H244  1  0.18234685  0.09728369  0.84096769  1
  H+  H245  1  0.28290197  0.39348008  0.32693122  1
  H+  H246  1  0.36726363  0.48729186  0.16184563  1
  H+  H247  1  0.61007564  0.89269740  0.67554478  1
  H+  H248  1  0.61945094  0.72936391  0.15613578  1
  H+  H249  1  0.40902921  1.03844852  0.16058361  1
  H+  H250  1  0.61659600  0.13129133  0.49320754  1
  H+  H251  1  0.64273846  0.77549559  0.83672071  1
  H+  H252  1  1.00994008  0.66719176  0.35028293  1
  H+  H253  1  0.48472115  0.85874372  0.16916176  1
  H+  H254  1  0.63948078  0.61453119  0.16888446  1
  H+  H255  1  0.48262246  0.12347724  0.67290502  1
  H+  H256  1  0.37949927  0.88916022  1.03720908  1
  H+  H257  1  0.80889938  0.63971367  0.03694155  1
  H+  H258  1  0.05789671  0.82753687  0.37432865  1
  H+  H259  1  0.89177622  0.12788877  0.00266535  1
  H+  H260  1  0.79034732  0.12687462  0.84236001  1
  H+  H261  1  0.66241386  0.57824944  0.22790336  1
  H+  H262  1  0.86305279  0.23146753  0.00558996  1
  H+  H263  1  0.63950928  0.11675155  0.17202005  1
  H+  H264  1  0.21989563  0.11482063  -0.01154717  1
  H+  H265  1  0.88896556  0.03889100  0.67656333  1
  H+  H266  1  0.17599738  0.33532265  0.89049901  1
  H+  H267  1  0.63620244  0.36458144  0.16366839  1
  H+  H268  1  0.10207808  0.46994007  0.83255443  1
  H+  H269  1  0.37095442  0.36370829  0.50013025  1
  H+  H270  1  0.90554892  0.85216090  0.68642671  1
  H+  H271  1  0.11741421  0.96989764  0.16269608  1
  H+  H272  1  0.97916050  0.12758805  0.69226077  1
  H+  H273  1  0.87566898  0.80322605  0.33638736  1
  H+  H274  1  0.24398855  0.61388401  0.34278316  1
  H+  H275  1  0.87104954  0.88679629  0.82360900  1
  H+  H276  1  0.64726098  0.26379937  0.51377280  1
  H+  H277  1  0.60840672  0.22024964  0.67894384  1
  H+  H278  1  0.63040426  0.34575006  0.65924215  1
  H+  H279  1  0.51813458  0.64007160  0.48567209  1
  H+  H280  1  0.35235214  0.21242069  0.99377238  1
  H+  H281  1  0.61976753  0.97526200  0.16351773  1
  H+  H282  1  0.88208085  0.13698005  0.83139766  1
  H+  H283  1  0.63669580  0.85967416  0.31809771  1
  H+  H284  1  0.13159831  0.83937663  0.16699448  1
  H+  H285  1  0.39120012  0.11234176  0.32493975  1
  H+  H286  1  0.08298737  0.40062056  0.06004649  1
  H+  H287  1  0.78455066  0.64864525  0.16916008  1
  H+  H288  1  0.36371430  0.14121402  0.49700988  1
  H+  H289  1  0.30844328  0.68938785  0.76549473  1
  H+  H290  1  0.84197958  0.92236869  0.09900922  1
  H+  H291  1  0.17280143  0.33986482  0.23354132  1
  H+  H292  1  0.42802855  0.59034076  0.25534384  1
  H+  H293  1  0.63735234  0.02365532  1.00529514  1
  H+  H294  1  0.62139671  0.31991539  0.92769362  1
  H+  H295  1  0.53334848  0.88990033  0.32054830  1
  H+  H296  1  0.59179788  0.91572259  0.10450849  1
  H+  H297  1  0.41861963  0.83711468  0.22334112  1
  H+  H298  1  0.76042521  0.14006282  0.15809238  1
  H+  H299  1  0.32236638  0.16357694  0.09410139  1
  H+  H300  1  0.41239947  0.70480212  0.71087087  1
  H+  H301  1  0.14827718  0.08547685  0.93418238  1
  H+  H302  1  0.66624591  0.59043369  0.56241401  1
  H+  H303  1  0.90028439  0.32996919  0.21847855  1
  H+  H304  1  0.40203968  0.05599689  0.95061533  1
  H+  H305  1  0.33683184  0.91374041  0.77103522  1
  H+  H306  1  0.58385221  0.67179812  0.76198822  1
  H+  H307  1  0.88042552  0.43856154  0.06970242  1
  H+  H308  1  0.06611261  0.59106696  0.13278438  1
  H+  H309  1  0.16802791  0.09979977  0.57391379  1
  H+  H310  1  0.32126057  0.66110942  0.10607188  1
  H+  H311  1  0.17222559  0.82245977  0.25157704  1
  H+  H312  1  0.09308136  0.91840761  0.75312924  1
  H+  H313  1  0.33781614  0.17048271  0.40047133  1
  H+  H314  1  0.15277351  0.96230187  0.81505164  1
  H+  H315  1  0.84337938  0.67184646  0.76753470  1
  H+  H316  1  0.12864380  0.40308518  0.44406308  1
  H+  H317  1  0.41992719  0.08569431  0.22482296  1
  H+  H318  1  0.41363907  0.58590074  0.55297182  1
  H+  H319  1  0.58469998  0.66795016  0.09723290  1
  H+  H320  1  0.89561972  0.61289201  0.18683243  1
  H+  H321  1  0.81692427  0.40834434  0.77700919  1
  H+  H322  1  0.92230216  0.82873947  0.57954957  1
  H+  H323  1  0.12527671  0.58683732  0.50297680  1
  H+  H324  1  0.91704626  0.58782176  0.90011361  1
  H+  H325  1  0.56990548  0.41544166  0.43352297  1
  H+  H326  1  0.28048604  0.40435939  0.81997623  1
  H+  H327  1  0.58198454  0.92013369  0.73742339  1
  H+  H328  1  0.40753896  0.32362134  0.92045119  1
  H+  H329  1  0.31584937  0.41824924  0.07025383  1
  H+  H330  1  0.15507018  0.57849254  0.94121126  1
  H+  H331  1  0.41149776  0.84306047  0.56696054  1
  H+  H332  1  0.07792554  0.40077014  0.73654442  1
  H+  H333  1  0.17393642  0.84703194  0.56656987  1
  H+  H334  1  0.89145608  0.25338174  0.84546376  1
  H+  H335  1  0.82391418  0.17303270  0.09367020  1
  H+  H336  1  0.41606959  0.57955419  0.93966104  1
  H+  H337  1  0.35780789  0.07606612  0.86219376  1
  H+  H338  1  0.93489719  0.10535441  0.25983879  1
  H+  H339  1  0.09415594  0.18052306  0.39941229  1
  H+  H340  1  0.06515178  0.63904787  0.76350689  1
  H+  H341  1  0.60633773  0.72322862  1.00195369  1
  H+  H342  1  0.67579596  0.09054133  0.23099595  1
  H+  H343  1  0.83108571  0.16448462  0.74683921  1
  H+  H344  1  0.43235329  0.05575270  0.55216700  1
  H+  H345  1  0.12629627  0.46098201  0.68095278  1
  H+  H346  1  0.39435020  0.68865883  0.39053017  1
  H+  H347  1  0.66011943  0.83755413  0.60089205  1
  H+  H348  1  0.36555535  0.98894003  0.67950790  1
  H+  H349  1  0.16085884  0.82491948  0.93024573  1
  H+  H350  1  0.66311137  0.83072611  0.93210487  1
  H+  H351  1  0.92331862  0.82950773  0.93326305  1
  H+  H352  1  0.92141799  0.57663426  0.27185104  1
  H+  H353  1  0.52361167  0.88461993  0.01573327  1
  H+  H354  1  0.86422146  0.87791028  -0.00199309  1
  H+  H355  1  0.60455711  0.63345536  0.99833207  1
  H+  H356  1  0.58026318  0.42352617  0.74997539  1
  H+  H357  1  0.86016124  0.50094561  0.66297551  1
  H+  H358  1  0.48776871  0.61315370  0.31726208  1
  H+  H359  1  0.81005071  0.12390917  0.44535579  1
  H+  H360  1  0.58218177  0.66624137  0.39474058  1
  H+  H361  1  0.76486500  0.37065880  0.68038419  1
  H+  H362  1  0.70942780  0.36228101  0.84027637  1
  H+  H363  1  0.10660146  0.24198711  0.48764564  1
  H+  H364  1  0.57164328  0.41484062  0.09387235  1
  H+  H365  1  0.77735747  0.39730159  0.15532845  1
  H+  H366  1  0.08005255  0.67004607  0.06874364  1
  H+  H367  1  0.31183258  0.14408040  0.79538131  1
  H+  H368  1  0.41324213  0.32672178  0.25975316  1
  H+  H369  1  0.65634392  0.58326479  0.91576662  1
  H+  H370  1  0.33868411  0.42730794  0.72367781  1
  H+  H371  1  0.92266289  0.32305153  0.90845699  1
  H+  H372  1  0.16926134  0.07847263  0.23450117  1
  H+  H373  1  0.67514623  0.82869134  0.26389221  1
  H+  H374  1  0.30403385  0.67675600  0.44316613  1
  H+  H375  1  0.52236301  0.89120929  0.50123890  1
  H+  H376  1  0.69077753  0.07066450  0.91532777  1
  H+  H377  1  0.97287337  0.60695885  0.51036386  1
  H+  H378  1  0.82319661  0.40822655  0.43282419  1
  H+  H379  1  0.67115506  0.08946103  0.60930620  1
  H+  H380  1  -0.01582460  0.35288591  0.84380966  1
  H+  H381  1  0.41494510  0.83634444  0.94957807  1
  H+  H382  1  0.92941321  0.85814045  0.23608142  1
  H+  H383  1  0.92242747  0.08172896  0.90250401  1
  O2-  O384  1  0.08520306  0.16605310  0.15178491  1
  O2-  O385  1  0.08167920  0.17954685  0.47443833  1
  O2-  O386  1  0.09268487  0.19159895  0.77944660  1
  O2-  O387  1  0.07326401  0.39404320  0.13011006  1
  O2-  O388  1  0.12050246  0.39557675  0.48892943  1
  O2-  O389  1  0.07566225  0.40901052  0.81764643  1
  O2-  O390  1  0.06091025  0.64128466  0.14195534  1
  O2-  O391  1  0.07887055  0.66304056  0.48376119  1
  O2-  O392  1  0.06706989  0.64702017  0.80836985  1
  O2-  O393  1  0.08322076  0.90964573  0.14724985  1
  O2-  O394  1  0.08228981  0.92633090  0.49255004  1
  O2-  O395  1  0.09509435  0.91782422  0.80360734  1
  O2-  O396  1  0.32703184  0.16739926  0.13951326  1
  O2-  O397  1  0.33122555  0.16805645  0.48159437  1
  O2-  O398  1  0.29092537  0.12552087  0.83800492  1
  O2-  O399  1  0.33361959  0.42616533  0.14836741  1
  O2-  O400  1  0.32455280  0.41204668  0.47807923  1
  O2-  O401  1  0.34081455  0.43579008  0.80370480  1
  O2-  O402  1  0.32698165  0.66496726  0.15122563  1
  O2-  O403  1  0.31744430  0.66939783  0.48495032  1
  O2-  O404  1  0.30706755  0.67169413  0.80821287  1
  O2-  O405  1  0.41436094  0.95621925  0.11315220  1
  O2-  O406  1  0.32728336  0.91404639  0.46936987  1
  O2-  O407  1  0.33156819  0.90380697  0.81581007  1
  O2-  O408  1  0.59417426  0.17132663  0.14519371  1
  O2-  O409  1  0.59033727  0.16284714  0.47282055  1
  O2-  O410  1  0.54059742  0.16776127  0.82163108  1
  O2-  O411  1  0.57781832  0.41395249  0.13939599  1
  O2-  O412  1  0.56235293  0.41745395  0.47806009  1
  O2-  O413  1  0.58664707  0.43786615  0.79409513  1
  O2-  O414  1  0.58537778  0.66803186  0.14264262  1
  O2-  O415  1  0.57994327  0.67182673  0.47265814  1
  O2-  O416  1  0.58825073  0.67201783  0.80738825  1
  O2-  O417  1  0.59267746  0.91443290  0.15017947  1
  O2-  O418  1  0.58447347  0.92584916  0.49257802  1
  O2-  O419  1  0.58531593  0.91565020  0.81465315  1
  O2-  O420  1  0.82204366  0.17676557  0.14005999  1
  O2-  O421  1  0.82316784  0.14141441  0.48780653  1
  O2-  O422  1  0.84781313  0.16613234  0.82031909  1
  O2-  O423  1  0.83960876  0.42644544  0.14475371  1
  O2-  O424  1  0.83797637  0.40293520  0.47567507  1
  O2-  O425  1  0.80897708  0.40855915  0.82163800  1
  O2-  O426  1  0.84759128  0.67856866  0.16120999  1
  O2-  O427  1  0.83307632  0.66828634  0.48066983  1
  O2-  O428  1  0.84107722  0.67545997  0.81288989  1
  O2-  O429  1  0.84106825  0.92377160  0.14368280  1
  O2-  O430  1  0.82956873  0.90257659  0.49278657  1
  O2-  O431  1  0.83751675  0.91493370  0.81105645  1
  O2-  O432  1  0.16535206  0.07483701  0.18956885  1
  O2-  O433  1  0.16566014  0.09622211  0.52885956  1
  O2-  O434  1  0.12213948  0.08076704  0.85132895  1
  O2-  O435  1  0.16880015  0.33578610  0.18857581  1
  O2-  O436  1  0.15937531  0.34487276  0.50556301  1
  O2-  O437  1  0.17874228  0.34461738  0.84547435  1
  O2-  O438  1  0.16926619  0.60327563  0.21742549  1
  O2-  O439  1  0.16346249  0.56781693  0.52052633  1
  O2-  O440  1  0.14433712  0.57075804  0.86074224  1
  O2-  O441  1  0.15944329  0.80803524  0.18295876  1
  O2-  O442  1  0.16879772  0.84043294  0.52151175  1
  O2-  O443  1  0.16005011  0.81115532  0.84410392  1
  O2-  O444  1  0.42518742  0.09432564  0.17991019  1
  O2-  O445  1  0.41654443  0.07168652  0.51397628  1
  O2-  O446  1  0.39781227  0.05531479  0.87158215  1
  O2-  O447  1  0.41280889  0.33427315  0.18323831  1
  O2-  O448  1  0.40405927  0.33430488  0.51535323  1
  O2-  O449  1  0.42348474  0.35661203  0.83793762  1
  O2-  O450  1  0.42091443  0.59498018  0.18434446  1
  O2-  O451  1  0.41329128  0.58887150  0.50780038  1
  O2-  O452  1  0.43415825  0.59470746  0.85629563  1
  O2-  O453  1  0.42219313  0.83471429  0.17782035  1
  O2-  O454  1  0.40847776  0.83806886  0.52178442  1
  O2-  O455  1  0.42165394  0.83692615  0.86597666  1
  O2-  O456  1  0.67292558  0.08808652  0.18521059  1
  O2-  O457  1  0.66279021  0.08327710  0.53310671  1
  O2-  O458  1  0.71186681  0.05934488  0.87656996  1
  O2-  O459  1  0.67004572  0.33829163  0.17940572  1
  O2-  O460  1  0.68081074  0.31809540  0.53660603  1
  O2-  O461  1  0.64576885  0.33451657  0.85072673  1
  O2-  O462  1  0.66994000  0.58393774  0.18297443  1
  O2-  O463  1  0.66536955  0.59251873  0.51810858  1
  O2-  O464  1  0.67521939  0.59561211  0.84195925  1
  O2-  O465  1  0.67614436  0.83173124  0.18617952  1
  O2-  O466  1  0.66148369  0.83049900  0.52635176  1
  O2-  O467  1  0.67118508  0.83453993  0.85436258  1
  O2-  O468  1  0.92934822  0.09519611  0.19288204  1
  O2-  O469  1  0.91818338  0.07924313  0.52198925  1
  O2-  O470  1  0.92472918  0.08281567  0.85791548  1
  O2-  O471  1  0.90201460  0.32880936  0.17308549  1
  O2-  O472  1  0.91580044  0.30522071  0.43877760  1
  O2-  O473  1  0.92310123  0.31725991  0.86116045  1
  O2-  O474  1  0.92305471  0.57933528  0.19876138  1
  O2-  O475  1  0.91114594  0.57292751  0.52294771  1
  O2-  O476  1  0.90693519  0.58377229  0.85503393  1
  O2-  O477  1  0.92604209  0.84752088  0.19187786  1
  O2-  O478  1  0.91917800  0.82881854  0.53426706  1
  O2-  O479  1  0.92819936  0.83915336  0.85368794  1
  O2-  O480  1  0.16979849  0.08520662  0.31764842  1
  O2-  O481  1  0.16986235  0.09700628  0.65883726  1
  O2-  O482  1  0.15646461  0.08971440  0.97880887  1
  O2-  O483  1  0.18898744  0.34530600  0.31424745  1
  O2-  O484  1  0.15710806  0.30919467  0.66265107  1
  O2-  O485  1  0.17235567  0.33652815  0.96999133  1
  O2-  O486  1  0.18152760  0.58297677  0.33640116  1
  O2-  O487  1  0.18260773  0.56421282  0.66986267  1
  O2-  O488  1  0.16077764  0.57875619  0.98618323  1
  O2-  O489  1  0.18062502  0.83514317  0.29795559  1
  O2-  O490  1  0.17726127  0.85777085  0.64582011  1
  O2-  O491  1  0.16612800  0.82973542  0.97485383  1
  O2-  O492  1  0.42126401  0.08362440  0.30730780  1
  O2-  O493  1  0.41777476  0.09917371  0.66163326  1
  O2-  O494  1  0.40554101  0.06807091  0.99513658  1
  O2-  O495  1  0.41241377  0.33054018  0.30552926  1
  O2-  O496  1  0.40609390  0.33398695  0.63013739  1
  O2-  O497  1  0.39683730  0.30744911  0.96350501  1
  O2-  O498  1  0.42671950  0.58308022  0.30159481  1
  O2-  O499  1  0.41752900  0.58420658  0.63348270  1
  O2-  O500  1  0.41110283  0.58207981  0.98415187  1
  O2-  O501  1  0.42391061  0.83830621  0.29937119  1
  O2-  O502  1  0.42050095  0.85069968  0.64589045  1
  O2-  O503  1  0.41633389  0.83333788  0.99463707  1
  O2-  O504  1  0.67825092  0.09059038  0.30734044  1
  O2-  O505  1  0.67360861  0.09064996  0.65527830  1
  O2-  O506  1  0.66895251  0.08363106  0.98933659  1
  O2-  O507  1  0.65316992  0.32793354  0.30425913  1
  O2-  O508  1  0.66224744  0.31496093  0.65221861  1
  O2-  O509  1  0.60405648  0.31456366  0.97108646  1
  O2-  O510  1  0.66251672  0.57466042  0.31030978  1
  O2-  O511  1  0.67260030  0.59042166  0.66703834  1
  O2-  O512  1  0.64878843  0.57805790  0.96142581  1
  O2-  O513  1  0.66964289  0.82763775  0.30934717  1
  O2-  O514  1  0.66315231  0.84199171  0.64685894  1
  O2-  O515  1  0.65889235  0.82680120  0.97764412  1
  O2-  O516  1  0.93830185  0.11135592  0.30776330  1
  O2-  O517  1  0.92058453  0.10250509  0.67269712  1
  O2-  O518  1  0.92699260  0.09996984  0.99203035  1
  O2-  O519  1  0.88808122  0.32976255  0.29392156  1
  O2-  O520  1  0.93407097  0.37179202  0.63958621  1
  O2-  O521  1  0.92528946  0.32932611  0.97602548  1
  O2-  O522  1  0.91651365  0.57334140  0.31833184  1
  O2-  O523  1  0.89512659  0.56206864  0.64727770  1
  O2-  O524  1  0.93741047  0.59387655  0.97545237  1
  O2-  O525  1  0.91594552  0.86110814  0.32169819  1
  O2-  O526  1  0.93437649  0.83204801  0.65906098  1
  O2-  O527  1  0.92148430  0.83347754  0.97860303  1
  O2-  O528  1  0.09824778  0.19138544  0.00967644  1
  O2-  O529  1  0.10186394  0.18202309  0.35368983  1
  O2-  O530  1  0.08243917  0.16949036  0.71368276  1
  O2-  O531  1  0.08738140  0.40695473  0.01343501  1
  O2-  O532  1  0.11734786  0.42619856  0.36881043  1
  O2-  O533  1  0.08396559  0.39976678  0.69173238  1
  O2-  O534  1  0.09028496  0.67257898  0.02311687  1
  O2-  O535  1  0.05480877  0.71866097  0.37207217  1
  O2-  O536  1  0.05325268  0.61110070  0.68572454  1
  O2-  O537  1  0.08860257  0.92206473  0.02190553  1
  O2-  O538  1  0.06935431  0.88734477  0.37008954  1
  O2-  O539  1  0.08863130  0.91661307  0.69077288  1
  O2-  O540  1  0.31779552  0.15426970  0.01392518  1
  O2-  O541  1  0.33870628  0.17010487  0.35504918  1
  O2-  O542  1  0.33749146  0.16721232  0.72028137  1
  O2-  O543  1  0.31222303  0.41752901  0.02501343  1
  O2-  O544  1  0.34918095  0.42506142  0.33445124  1
  O2-  O545  1  0.33205159  0.42272313  0.67862991  1
  O2-  O546  1  0.32677800  0.66465847  0.02545985  1
  O2-  O547  1  0.36512881  0.67643300  0.35136991  1
  O2-  O548  1  0.36266588  0.69591949  0.68724517  1
  O2-  O549  1  0.35558314  0.92049946  0.06089669  1
  O2-  O550  1  0.34043682  0.91630341  0.34469425  1
  O2-  O551  1  0.33653583  0.92737570  0.69119501  1
  O2-  O552  1  0.57745579  0.15883727  0.02022934  1
  O2-  O553  1  0.58830148  0.16428034  0.34894714  1
  O2-  O554  1  0.57268445  0.15848699  0.69362815  1
  O2-  O555  1  0.55329287  0.41124858  0.01844244  1
  O2-  O556  1  0.57710402  0.41226860  0.35223033  1
  O2-  O557  1  0.57088504  0.40268780  0.67113027  1
  O2-  O558  1  0.57697751  0.66312768  0.01835160  1
  O2-  O559  1  0.58447244  0.66323059  0.34922192  1
  O2-  O560  1  0.57958466  0.67308215  0.68350581  1
  O2-  O561  1  0.58564795  0.91593890  0.02776244  1
  O2-  O562  1  0.59396047  0.91363743  0.33346167  1
  O2-  O563  1  0.58094440  0.92352343  0.69179488  1
  O2-  O564  1  0.83279606  0.17143473  0.02289361  1
  O2-  O565  1  0.84865710  0.18529030  0.35080659  1
  O2-  O566  1  0.83230509  0.16379768  0.70072548  1
  O2-  O567  1  0.91290084  0.44712370  0.03153495  1
  O2-  O568  1  0.81162343  0.40888418  0.35343854  1
  O2-  O569  1  0.82425649  0.40893254  0.69612869  1
  O2-  O570  1  0.86926405  0.68239109  0.04179812  1
  O2-  O571  1  0.82294239  0.66029905  0.34796030  1
  O2-  O572  1  0.83963018  0.66606099  0.68933832  1
  O2-  O573  1  0.83228756  0.90924887  0.00895761  1
  O2-  O574  1  0.81350471  0.92086133  0.36553727  1
  O2-  O575  1  0.82789355  0.92650831  0.68029892  1
