# generated using pymatgen
data_H2O
_symmetry_space_group_name_H-M   'P 1'
_cell_length_a   17.99945369
_cell_length_b   18.00388622
_cell_length_c   22.01065446
_cell_angle_alpha   90.00565462
_cell_angle_beta   89.99844514
_cell_angle_gamma   120.00571805
_symmetry_Int_Tables_number   1
_chemical_formula_structural   H2O
_chemical_formula_sum   'H384 O192'
_cell_volume   6176.80857445
_cell_formula_units_Z   192
loop_
 _symmetry_equiv_pos_site_id
 _symmetry_equiv_pos_as_xyz
  1  'x, y, z'
loop_
 _atom_type_symbol
 _atom_type_oxidation_number
  H+  1.0
  O2-  -2.0
loop_
 _atom_site_type_symbol
 _atom_site_label
 _atom_site_symmetry_multiplicity
 _atom_site_fract_x
 _atom_site_fract_y
 _atom_site_fract_z
 _atom_site_occupancy
  H+  H0  1  0.28492195  0.89599568  0.34891370  1
  H+  H1  1  0.15608749  0.36209772  0.61421136  1
  H+  H2  1  0.02554961  0.87453272  0.49419230  1
  H+  H3  1  0.39311837  0.12144202  0.83560578  1
  H+  H4  1  0.86968616  0.38638648  0.15787341  1
  H+  H5  1  0.90589773  0.59543651  0.57751590  1
  H+  H6  1  0.61785787  0.37999926  0.34099666  1
  H+  H7  1  0.47922330  0.87294754  0.17371063  1
  H+  H8  1  0.37174820  0.98126676  0.66330224  1
  H+  H9  1  0.36747891  0.35557118  0.84934201  1
  H+  H10  1  0.12718256  0.65262931  0.34708018  1
  H+  H11  1  0.36928161  0.64271378  0.33638846  1
  H+  H12  1  0.34622816  0.13914754  0.51086708  1
  H+  H13  1  0.63088668  0.49961792  0.09923814  1
  H+  H14  1  0.73575980  0.36827352  0.32817205  1
  H+  H15  1  0.63603005  0.65222450  0.81597737  1
  H+  H16  1  0.11768160  0.65063782  0.15550417  1
  H+  H17  1  0.88220548  0.89804057  0.68044572  1
  H+  H18  1  0.33798520  0.42253818  0.77123643  1
  H+  H19  1  0.01827825  0.13524078  0.00158917  1
  H+  H20  1  0.26879856  0.12770033  0.81553438  1
  H+  H21  1  0.63771368  0.52213360  0.50215876  1
  H+  H22  1  0.53579745  0.39848480  0.19777404  1
  H+  H23  1  0.35232519  0.14147211  0.65953797  1
  H+  H24  1  0.76880332  0.39265293  1.00351150  1
  H+  H25  1  0.13048287  0.87490098  0.15903903  1
  H+  H26  1  0.10864589  0.47351487  0.82264355  1
  H+  H27  1  0.86722153  0.53289111  0.65331579  1
  H+  H28  1  0.90035570  0.86176428  0.98064625  1
  H+  H29  1  0.60640522  0.87538963  0.34116545  1
  H+  H30  1  0.01622007  0.39837095  0.15901474  1
  H+  H31  1  0.23089913  0.13554796  0.66263379  1
  H+  H32  1  0.63111572  0.22865841  0.65931340  1
  H+  H33  1  0.02165572  0.88380408  0.82673136  1
  H+  H34  1  1.03784530  0.84071263  0.13061930  1
  H+  H35  1  0.24428534  0.87081725  0.17460471  1
  H+  H36  1  0.47561093  0.60197170  1.00668570  1
  H+  H37  1  0.12636021  1.01667704  -0.02601208  1
  H+  H38  1  0.15283050  0.57894099  0.89013474  1
  H+  H39  1  0.23103423  0.88068195  0.82508316  1
  H+  H40  1  0.17929289  0.56185672  0.52318617  1
  H+  H41  1  0.23143578  0.37010220  0.84623990  1
  H+  H42  1  0.62769064  0.40785001  0.19356933  1
  H+  H43  1  0.11293610  0.36488174  0.34789128  1
  H+  H44  1  0.65676940  0.54274324  0.83764173  1
  H+  H45  1  0.47948731  0.62392302  0.17103447  1
  H+  H46  1  0.11971757  0.89025895  0.82173597  1
  H+  H47  1  -0.01548404  0.62284784  0.67228200  1
  H+  H48  1  0.77558485  0.14192310  0.83484288  1
  H+  H49  1  0.09298732  0.37110340  0.50947654  1
  H+  H50  1  0.15411160  0.87060905  0.98300771  1
  H+  H51  1  0.51762426  0.91171818  0.82742995  1
  H+  H52  1  0.87546602  0.65412254  0.33673579  1
  H+  H53  1  0.52835820  0.14202191  0.82851247  1
  H+  H54  1  0.09101641  0.09019380  0.15309089  1
  H+  H55  1  0.77205156  0.37489178  0.81821447  1
  H+  H56  1  0.88487089  0.38527504  0.98232193  1
  H+  H57  1  0.31711536  0.17442682  1.03392864  1
  H+  H58  1  0.61610220  0.42394818  0.65290986  1
  H+  H59  1  -0.01341991  0.37280580  0.33327565  1
  H+  H60  1  0.13703690  0.28767056  0.52730669  1
  H+  H61  1  0.15096398  0.78096862  0.98291710  1
  H+  H62  1  0.69441724  0.15405816  0.50189846  1
  H+  H63  1  0.35362864  0.47027239  0.33832605  1
  H+  H64  1  0.08035360  0.28504733  0.17979633  1
  H+  H65  1  0.85621808  0.49088686  0.50113392  1
  H+  H66  1  0.65315832  0.27459470  0.32540722  1
  H+  H67  1  0.12008638  0.73901506  0.15866130  1
  H+  H68  1  0.86386529  0.64059428  0.66862463  1
  H+  H69  1  0.27897972  0.64999292  0.15795544  1
  H+  H70  1  0.87490889  0.76534834  0.50096000  1
  H+  H71  1  0.60075152  0.71150611  0.33574318  1
  H+  H72  1  0.39050968  0.36262407  0.33696429  1
  H+  H73  1  0.77785949  0.12678965  0.67944953  1
  H+  H74  1  0.11099821  0.50754225  1.00007174  1
  H+  H75  1  0.18617325  0.59722655  0.67582267  1
  H+  H76  1  0.63410653  0.23050472  0.48805304  1
  H+  H77  1  0.37135479  0.89137761  0.34855086  1
  H+  H78  1  0.39201947  0.53542528  0.17458983  1
  H+  H79  1  0.55001297  0.14002721  0.34842089  1
  H+  H80  1  0.15341229  0.54905555  0.31895886  1
  H+  H81  1  0.22421643  0.13024161  0.51828573  1
  H+  H82  1  0.89258251  0.12203590  0.84119133  1
  H+  H83  1  0.74296096  0.12586457  -0.00709373  1
  H+  H84  1  0.30231324  0.64960702  0.62986252  1
  H+  H85  1  0.39392657  0.27502010  0.34046555  1
  H+  H86  1  0.61146891  0.72545818  1.00750570  1
  H+  H87  1  0.11134392  0.24864261  0.67967022  1
  H+  H88  1  0.91410885  0.17775377  0.54520271  1
  H+  H89  1  0.77758997  0.63534419  0.34900266  1
  H+  H90  1  0.36186757  0.32939326  1.01721677  1
  H+  H91  1  0.74026126  0.63516839  0.99094702  1
  H+  H92  1  0.14025530  0.27096523  -0.00104935  1
  H+  H93  1  0.36716451  0.64737517  0.15908361  1
  H+  H94  1  0.72817815  0.61522760  0.50054360  1
  H+  H95  1  0.29605705  0.40021455  0.18894022  1
  H+  H96  1  0.36226123  0.39884540  0.67322643  1
  H+  H97  1  0.60848112  -0.04004649  0.67590809  1
  H+  H98  1  0.85670231  0.71858151  0.16386583  1
  H+  H99  1  0.12307357  0.45084630  0.67246401  1
  H+  H100  1  0.50963355  0.88648186  0.68206107  1
  H+  H101  1  0.61108320  0.62995879  0.48680010  1
  H+  H102  1  0.17075316  0.31866344  0.15131983  1
  H+  H103  1  0.72030860  0.62492613  0.17729398  1
  H+  H104  1  0.13998318  0.45263296  0.38040435  1
  H+  H105  1  0.82251723  0.14371194  0.44324221  1
  H+  H106  1  1.00637164  0.65133017  0.32581665  1
  H+  H107  1  0.40845493  0.62535441  0.81701141  1
  H+  H108  1  0.35350104  0.89641688  0.81798935  1
  H+  H109  1  0.13999697  0.62855165  -0.00820292  1
  H+  H110  1  0.37494125  0.73661447  0.33555765  1
  H+  H111  1  0.66906517  0.57949981  0.40463470  1
  H+  H112  1  0.61748104  0.30623767  0.66509654  1
  H+  H113  1  0.45836537  0.12227734  0.61059235  1
  H+  H114  1  0.06284072  0.66089452  0.76428721  1
  H+  H115  1  0.79501384  0.14184956  0.33771424  1
  H+  H116  1  0.02886215  0.89487745  0.34611832  1
  H+  H117  1  0.92248831  0.09210725  0.61948203  1
  H+  H118  1  0.91376240  0.84096899  0.60093025  1
  H+  H119  1  0.11251419  0.72349640  0.49951573  1
  H+  H120  1  0.48282450  0.78887343  0.93345869  1
  H+  H121  1  0.64197881  0.27380506  0.83266333  1
  H+  H122  1  0.52685178  0.64896321  0.67271466  1
  H+  H123  1  0.10968385  0.72986187  0.81799737  1
  H+  H124  1  0.28729448  0.13276546  0.09732526  1
  H+  H125  1  0.54812219  0.40417243  0.81512197  1
  H+  H126  1  0.77163093  0.85448881  0.50309878  1
  H+  H127  1  0.61939115  0.86405978  0.17174637  1
  H+  H128  1  0.17101662  0.12301298  0.32047769  1
  H+  H129  1  0.70463907  0.85694927  0.17451524  1
  H+  H130  1  0.35128275  0.38726151  0.50028937  1
  H+  H131  1  0.17650476  0.84584669  0.88718174  1
  H+  H132  1  0.40547577  0.75418713  0.98106572  1
  H+  H133  1  0.42174995  0.80269404  0.50582729  1
  H+  H134  1  0.02684197  0.64729896  0.00317263  1
  H+  H135  1  0.84254183  0.13975107  0.22140459  1
  H+  H136  1  0.86794478  1.01573330  0.13435140  1
  H+  H137  1  0.28870590  0.76615362  0.86538236  1
  H+  H138  1  0.10345116  -0.02209620  0.17946268  1
  H+  H139  1  0.52846229  0.38142816  0.34302123  1
  H+  H140  1  0.86286424  0.63930887  0.50212428  1
  H+  H141  1  0.13463472  0.10962326  0.82243541  1
  H+  H142  1  0.88739989  0.53122389  0.99516027  1
  H+  H143  1  0.88274526  0.98655928  0.83367174  1
  H+  H144  1  0.58728823  0.14575612  0.74270390  1
  H+  H145  1  0.98128549  0.61911448  0.16323616  1
  H+  H146  1  0.37364197  0.89817678  0.50797822  1
  H+  H147  1  0.65031565  0.01808038  0.49182240  1
  H+  H148  1  0.61429386  0.23867653  0.00149225  1
  H+  H149  1  0.10263795  0.18287897  0.15653277  1
  H+  H150  1  0.65970863  0.81062231  0.65670254  1
  H+  H151  1  0.53082835  0.14690788  0.15563340  1
  H+  H152  1  0.63306985  0.54626328  0.65132178  1
  H+  H153  1  0.13556082  0.54349479  0.17142639  1
  H+  H154  1  0.51583740  0.14063585  0.99952882  1
  H+  H155  1  0.35661814  0.71302556  0.81256448  1
  H+  H156  1  0.90265171  0.87024494  0.84099299  1
  H+  H157  1  0.65190212  0.36852853  0.82960983  1
  H+  H158  1  0.87058466  0.48594909  0.34036829  1
  H+  H159  1  0.11373835  0.09871089  0.97159911  1
  H+  H160  1  0.00295514  0.10842359  0.37202489  1
  H+  H161  1  0.89356230  0.78345135  0.65970813  1
  H+  H162  1  0.87086474  0.47575288  0.15548330  1
  H+  H163  1  0.58443337  0.41092381  0.43808327  1
  H+  H164  1  0.09092494  0.40512906  0.76879169  1
  H+  H165  1  0.60326442  0.72694188  0.15486092  1
  H+  H166  1  0.24461033  0.63431596  0.32516833  1
  H+  H167  1  0.72538563  0.85730841  -0.01974125  1
  H+  H168  1  0.08599475  0.48515700  0.52153997  1
  H+  H169  1  0.45658241  0.09805782  0.41841809  1
  H+  H170  1  0.62233651  0.65210567  0.66170570  1
  H+  H171  1  0.47826783  0.36919480  0.51050742  1
  H+  H172  1  0.12248007  0.97950669  0.34151654  1
  H+  H173  1  0.13547091  0.85304597  0.50932019  1
  H+  H174  1  0.08814582  0.18252780  0.77027294  1
  H+  H175  1  0.87004162  0.09685488  0.98766370  1
  H+  H176  1  0.44178557  0.34527809  0.87983240  1
  H+  H177  1  0.63533297  0.13589980  0.33127179  1
  H+  H178  1  0.87828165  0.08128507  0.52172653  1
  H+  H179  1  0.57448372  0.92222002  0.76910593  1
  H+  H180  1  0.39670244  0.02561472  0.17067079  1
  H+  H181  1  0.86889231  0.13085695  0.68837832  1
  H+  H182  1  0.73083920  0.37306224  0.50710074  1
  H+  H183  1  0.64235980  0.12403078  0.16507297  1
  H+  H184  1  0.11382597  0.98291511  0.81809260  1
  H+  H185  1  0.64000001  0.03312170  0.84235869  1
  H+  H186  1  0.40173395  0.03654451  0.98987261  1
  H+  H187  1  0.74656983  0.63254294  0.83573020  1
  H+  H188  1  0.95637527  0.85544413  0.20218216  1
  H+  H189  1  0.48063775  0.86833077  0.32812951  1
  H+  H190  1  0.98499065  0.12642157  0.84135433  1
  H+  H191  1  0.37159487  0.89343550  0.15832210  1
  H+  H192  1  0.35765326  0.45516998  0.03182296  1
  H+  H193  1  0.13453001  0.13190743  0.52052135  1
  H+  H194  1  0.15115182  0.07096808  0.88201484  1
  H+  H195  1  0.34569197  -0.06135441  0.75390444  1
  H+  H196  1  0.84039397  0.87105964  0.16859046  1
  H+  H197  1  0.46669119  0.60284416  0.32630731  1
  H+  H198  1  0.86170192  0.37082446  0.67116170  1
  H+  H199  1  0.96201248  0.09395750  0.12928667  1
  H+  H200  1  0.02409471  0.15890850  0.51836754  1
  H+  H201  1  0.94664395  0.30331777  0.51970074  1
  H+  H202  1  0.35028735  0.21523294  0.18320772  1
  H+  H203  1  0.68100444  0.60754851  0.92373472  1
  H+  H204  1  0.87611466  0.25721623  -0.00000039  1
  H+  H205  1  0.37338840  0.89867553  0.00345380  1
  H+  H206  1  0.41085844  0.64146800  0.50895586  1
  H+  H207  1  0.90104205  0.02622465  0.67685901  1
  H+  H208  1  0.00819343  0.41189337  -0.00580652  1
  H+  H209  1  0.14291640  0.14349992  0.66432038  1
  H+  H210  1  0.89640729  0.77706048  0.83413078  1
  H+  H211  1  0.61511481  0.38679444  0.49906642  1
  H+  H212  1  0.35133798  0.12934525  0.18134522  1
  H+  H213  1  0.53763933  0.89378254  0.00262105  1
  H+  H214  1  0.61997289  0.23746490  0.15674695  1
  H+  H215  1  0.12960086  0.73539434  0.65941682  1
  H+  H216  1  0.35086883  0.21905131  0.82403993  1
  H+  H217  1  0.63889422  0.51285271  0.35234653  1
  H+  H218  1  0.86752035  0.37617279  0.81668756  1
  H+  H219  1  0.54117213  0.64138292  0.81066345  1
  H+  H220  1  0.73410702  0.36538297  0.17248799  1
  H+  H221  1  0.92551627  0.11420574  0.28407313  1
  H+  H222  1  0.29405917  0.13688415  0.34637202  1
  H+  H223  1  0.11193094  0.41948470  0.14284500  1
  H+  H224  1  0.86650926  0.73163832  1.00464798  1
  H+  H225  1  0.50059565  0.89752548  0.51404140  1
  H+  H226  1  0.35495965  0.62477946  0.01340429  1
  H+  H227  1  0.52391868  0.08499276  0.69162392  1
  H+  H228  1  0.39207109  0.28826202  0.66213934  1
  H+  H229  1  0.12051337  0.23261741  0.83352594  1
  H+  H230  1  0.97892991  0.36467153  0.83184211  1
  H+  H231  1  0.22327223  0.37663132  0.51893432  1
  H+  H232  1  0.62361471  0.89304091  1.01183358  1
  H+  H233  1  0.38277020  0.14389762  0.36708766  1
  H+  H234  1  0.02824265  0.15246050  0.68044196  1
  H+  H235  1  0.84774377  0.89253570  0.33207182  1
  H+  H236  1  0.64143190  0.63030560  -0.01064336  1
  H+  H237  1  0.88691594  0.61928343  -0.00360225  1
  H+  H238  1  0.28311615  0.89369053  -0.00089759  1
  H+  H239  1  0.64190146  1.01680157  0.31810039  1
  H+  H240  1  0.89702801  0.27387409  0.18410776  1
  H+  H241  1  0.70761115  0.88903792  0.49809720  1
  H+  H242  1  0.65714032  1.03456592  -0.00625121  1
  H+  H243  1  0.84909753  0.92116548  0.77888974  1
  H+  H244  1  0.66545914  0.60152111  0.59011494  1
  H+  H245  1  0.14880030  0.87049561  0.32857644  1
  H+  H246  1  0.88847502  0.25953646  0.67645719  1
  H+  H247  1  0.87693117  0.40152505  0.34259870  1
  H+  H248  1  0.60380660  0.76868436  0.84621605  1
  H+  H249  1  0.36374179  0.01644978  0.53229643  1
  H+  H250  1  0.11995289  0.60610320  0.83207118  1
  H+  H251  1  0.22552810  0.85473554  0.51207228  1
  H+  H252  1  0.66761300  0.07733537  0.25882715  1
  H+  H253  1  0.83406900  0.90474648  -0.08155090  1
  H+  H254  1  0.86812434  0.64575174  0.82585690  1
  H+  H255  1  0.37449138  0.48367449  0.82819860  1
  H+  H256  1  0.60558412  0.62443615  0.34610626  1
  H+  H257  1  1.03818480  0.88375973  1.00140959  1
  H+  H258  1  0.41658303  0.84528942  0.60826934  1
  H+  H259  1  0.62544406  0.35746615  0.97908633  1
  H+  H260  1  0.59054912  0.85000607  0.85043261  1
  H+  H261  1  0.64799316  0.09786458  0.65990296  1
  H+  H262  1  0.58290335  0.18025532  0.06611680  1
  H+  H263  1  0.79652832  0.90343629  0.68012518  1
  H+  H264  1  0.96664640  0.62268692  0.51429303  1
  H+  H265  1  0.11108876  0.24987634  0.33586606  1
  H+  H266  1  0.09420352  0.62576863  0.50176104  1
  H+  H267  1  0.97295607  0.62374499  0.83930967  1
  H+  H268  1  0.22610205  0.61952401  -0.00699125  1
  H+  H269  1  0.90334236  0.85607515  0.39552815  1
  H+  H270  1  0.39873246  0.53967692  0.66586956  1
  H+  H271  1  0.39829643  0.36410459  0.18459152  1
  H+  H272  1  0.76644924  0.35743904  0.66949358  1
  H+  H273  1  0.70394454  0.84477618  0.31495995  1
  H+  H274  1  0.25296554  0.92564684  0.68869222  1
  H+  H275  1  0.61313374  0.98595186  0.15862676  1
  H+  H276  1  0.15259518  0.78448994  0.33404496  1
  H+  H277  1  0.30917235  0.68177843  0.48785162  1
  H+  H278  1  0.49375023  0.35268066  0.99362612  1
  H+  H279  1  0.52071915  0.40457640  0.66740260  1
  H+  H280  1  0.38082073  0.88021712  0.66831466  1
  H+  H281  1  0.89423783  0.28949919  0.33337950  1
  H+  H282  1  0.06201890  0.60141046  0.68207262  1
  H+  H283  1  0.14094564  0.36566950  0.84791039  1
  H+  H284  1  0.86096310  0.63279291  0.15543114  1
  H+  H285  1  0.98067559  0.34379367  0.66676076  1
  H+  H286  1  0.27038310  0.37639563  0.34117468  1
  H+  H287  1  0.40007439  0.63031874  0.66231267  1
  H+  H288  1  0.06396632  0.44132127  0.06143392  1
  H+  H289  1  0.08922105  0.90833664  0.43832012  1
  H+  H290  1  0.45379887  0.61993957  0.87753817  1
  H+  H291  1  0.43839643  0.60845851  0.56902285  1
  H+  H292  1  0.90507741  0.28268595  0.58545538  1
  H+  H293  1  0.62511694  0.17759776  0.42800897  1
  H+  H294  1  0.67583298  0.09162474  0.90302018  1
  H+  H295  1  0.91594114  0.08826028  0.92829433  1
  H+  H296  1  0.59277493  0.92691400  0.39715486  1
  H+  H297  1  0.51805313  0.63758267  0.49623615  1
  H+  H298  1  0.27764326  0.40800302  0.67879648  1
  H+  H299  1  0.83337308  0.16631122  0.77468440  1
  H+  H300  1  0.57334377  1.01519376  0.46028119  1
  H+  H301  1  0.70973149  0.85606281  0.59701252  1
  H+  H302  1  0.33536091  0.16931302  0.72571156  1
  H+  H303  1  0.91487811  0.59692045  0.89857961  1
  H+  H304  1  -0.03751185  0.16518981  0.39061118  1
  H+  H305  1  0.66624242  0.32293961  0.56264300  1
  H+  H306  1  0.57309661  0.65732351  0.42580135  1
  H+  H307  1  0.15943558  0.89103159  0.67355419  1
  H+  H308  1  0.82768883  0.39752992  0.74998254  1
  H+  H309  1  0.57635753  0.43063294  0.02222701  1
  H+  H310  1  0.88794584  0.27487999  0.83747526  1
  H+  H311  1  0.34061820  0.92359371  0.09867897  1
  H+  H312  1  0.17934226  0.33944492  0.94636585  1
  H+  H313  1  0.83806916  0.67518560  0.76371050  1
  H+  H314  1  0.78019052  0.65376289  0.67174914  1
  H+  H315  1  0.80774568  0.93627835  0.37103628  1
  H+  H316  1  0.58594405  0.66409988  0.06672680  1
  H+  H317  1  0.61852277  0.14103554  0.83387305  1
  H+  H318  1  0.26383377  0.37150251  0.02508097  1
  H+  H319  1  0.63696044  0.54459142  0.20123931  1
  H+  H320  1  0.88436304  0.81713091  0.25097639  1
  H+  H321  1  0.39103603  0.78286430  0.17317783  1
  H+  H322  1  0.18561087  0.84137585  0.23628908  1
  H+  H323  1  0.16887556  0.10847543  0.59385944  1
  H+  H324  1  0.38081494  0.80228269  0.89420454  1
  H+  H325  1  0.18530967  0.07632886  0.26607514  1
  H+  H326  1  0.67830662  0.33315360  0.23374140  1
  H+  H327  1  0.91728716  0.93208816  0.48449793  1
  H+  H328  1  0.64402802  0.52996042  0.07261714  1
  H+  H329  1  0.05473621  0.00366899  0.22742685  1
  H+  H330  1  0.05028866  0.38170932  0.44920925  1
  H+  H331  1  0.33913513  0.92175319  0.44885587  1
  H+  H332  1  0.38742996  0.28190006  0.51436020  1
  H+  H333  1  0.36441249  0.28715853  0.95530562  1
  H+  H334  1  0.41195253  0.58438157  0.26567975  1
  H+  H335  1  0.08878161  0.68103886  0.06120330  1
  H+  H336  1  0.31859422  0.41057236  0.44066384  1
  H+  H337  1  0.15023080  0.29898847  0.27337740  1
  H+  H338  1  0.92931675  0.34419121  0.23669201  1
  H+  H339  1  0.08924723  0.67270627  0.40842959  1
  H+  H340  1  0.61238514  0.64239368  0.16195175  1
  H+  H341  1  0.67140892  0.33303952  0.92731819  1
  H+  H342  1  0.34106857  0.66217702  0.75028654  1
  H+  H343  1  0.92581784  0.58981408  0.22314912  1
  H+  H344  1  0.86368760  0.13614077  0.15437547  1
  H+  H345  1  0.87996091  0.77932864  0.35138169  1
  H+  H346  1  0.98494798  0.70238377  0.27922940  1
  H+  H347  1  0.07278130  0.18368962  0.45595333  1
  H+  H348  1  0.36144731  0.74296776  0.66137392  1
  H+  H349  1  0.72992746  0.12013738  0.17412640  1
  H+  H350  1  0.40375921  0.02687807  0.36952773  1
  H+  H351  1  0.43295730  0.09468956  0.92903745  1
  H+  H352  1  0.80285784  0.87308888  0.10467227  1
  H+  H353  1  0.10788227  0.92234873  0.05474108  1
  H+  H354  1  0.33441070  0.67290056  0.06531390  1
  H+  H355  1  0.43392267  0.08051558  0.23065228  1
  H+  H356  1  0.58230175  0.92429645  0.10039917  1
  H+  H357  1  0.93365675  0.82557909  0.93041270  1
  H+  H358  1  0.83116726  0.41710075  0.06213819  1
  H+  H359  1  0.35961530  0.69037186  0.42742966  1
  H+  H360  1  0.84266433  0.02458677  0.29099635  1
  H+  H361  1  0.41950851  0.34682869  0.60242543  1
  H+  H362  1  0.83768869  0.66700116  0.43751732  1
  H+  H363  1  0.78912690  0.18387572  0.52820229  1
  H+  H364  1  0.86305649  0.97026255  -0.02759824  1
  H+  H365  1  0.39286666  0.03318344  0.83430167  1
  H+  H366  1  0.32851197  0.17162690  0.44756872  1
  H+  H367  1  0.08211042  0.14929049  0.05585735  1
  H+  H368  1  0.69240045  0.08980922  0.59909243  1
  H+  H369  1  0.63571517  0.81336851  0.26210690  1
  H+  H370  1  0.40126782  0.54523152  0.95957396  1
  H+  H371  1  0.42052488  0.84236875  0.26857994  1
  H+  H372  1  0.13083754  0.55439628  0.61590563  1
  H+  H373  1  0.17249331  0.79665768  0.60330784  1
  H+  H374  1  0.92063266  0.35636002  0.92273672  1
  H+  H375  1  0.82766573  0.67045990  0.06464515  1
  H+  H376  1  0.32906718  0.40909175  0.11870526  1
  H+  H377  1  0.41893671  0.32939826  0.24485786  1
  H+  H378  1  0.83455444  0.43220248  0.44215197  1
  H+  H379  1  0.17530776  0.60633834  0.22926108  1
  H+  H380  1  0.59988167  0.67986174  0.73236063  1
  H+  H381  1  0.89532929  0.19853188  0.04282241  1
  H+  H382  1  0.60417685  0.43803435  0.75680736  1
  H+  H383  1  0.64022658  0.82213875  0.93991678  1
  O2-  O384  1  0.07406431  0.12925909  0.13317152  1
  O2-  O385  1  0.08295548  0.18461142  0.50008301  1
  O2-  O386  1  0.08714121  0.17399850  0.81518924  1
  O2-  O387  1  0.07201645  0.44055967  0.13690719  1
  O2-  O388  1  0.04702208  0.38330691  0.49388473  1
  O2-  O389  1  0.08243268  0.40999975  0.81261131  1
  O2-  O390  1  0.08645549  0.68025922  0.14073367  1
  O2-  O391  1  0.07555149  0.66303691  0.48228795  1
  O2-  O392  1  0.07508098  0.66767191  0.80974967  1
  O2-  O393  1  0.09105177  0.89378619  0.13906072  1
  O2-  O394  1  0.08659264  0.90310546  0.48285423  1
  O2-  O395  1  0.08288506  0.91707069  0.80840141  1
  O2-  O396  1  0.31175062  0.15217143  0.18029138  1
  O2-  O397  1  0.32378606  0.17495535  0.49270335  1
  O2-  O398  1  0.33079428  0.16298352  0.80357664  1
  O2-  O399  1  0.34646141  0.42603724  0.16290152  1
  O2-  O400  1  0.31403524  0.40922971  0.48541329  1
  O2-  O401  1  0.33907126  0.42231748  0.81657222  1
  O2-  O402  1  0.33907189  0.67930212  0.14241688  1
  O2-  O403  1  0.36619433  0.69746261  0.47314898  1
  O2-  O404  1  0.35847531  0.66449726  0.79286964  1
  O2-  O405  1  0.34104226  0.92431804  0.14400716  1
  O2-  O406  1  0.33798369  0.92325747  0.49403509  1
  O2-  O407  1  0.33473869  0.93583668  0.80301232  1
  O2-  O408  1  0.58986908  0.17821164  0.13787466  1
  O2-  O409  1  0.62110025  0.17288929  0.47319855  1
  O2-  O410  1  0.58981835  0.17094680  0.81381530  1
  O2-  O411  1  0.59760757  0.43886107  0.20511491  1
  O2-  O412  1  0.58551927  0.41804547  0.48336486  1
  O2-  O413  1  0.60790804  0.43461037  0.80196790  1
  O2-  O414  1  0.57873851  0.66674453  0.13984444  1
  O2-  O415  1  0.57884653  0.65975432  0.47242278  1
  O2-  O416  1  0.60281925  0.67780820  0.79723801  1
  O2-  O417  1  0.57970400  0.92404395  0.14587769  1
  O2-  O418  1  0.59577710  0.97761701  0.47173231  1
  O2-  O419  1  0.57587022  0.92662276  0.81631110  1
  O2-  O420  1  0.84083533  0.16514306  0.18172634  1
  O2-  O421  1  0.86543600  0.16034020  0.41021941  1
  O2-  O422  1  0.83683931  0.17231696  0.82021736  1
  O2-  O423  1  0.83981022  0.41537854  0.14053132  1
  O2-  O424  1  0.82738462  0.43010926  0.48658596  1
  O2-  O425  1  0.83141126  0.40112994  0.79846253  1
  O2-  O426  1  0.83104139  0.66394307  0.14147496  1
  O2-  O427  1  0.83025423  0.66824217  0.48224538  1
  O2-  O428  1  0.83742038  0.67720140  0.80982030  1
  O2-  O429  1  0.80949502  0.89512350  0.14602416  1
  O2-  O430  1  0.87758067  0.87213671  0.47301815  1
  O2-  O431  1  0.85508653  0.92414350  0.82436888  1
  O2-  O432  1  0.10711877  0.02707435  0.20333843  1
  O2-  O433  1  0.16541184  0.10317297  0.53730863  1
  O2-  O434  1  0.16169801  0.07533663  0.83551509  1
  O2-  O435  1  0.13658795  0.29118405  0.18763797  1
  O2-  O436  1  0.16394037  0.34959373  0.53867556  1
  O2-  O437  1  0.17257092  0.33709925  0.86328172  1
  O2-  O438  1  0.17245671  0.60424227  0.18394388  1
  O2-  O439  1  0.12172986  0.54566723  0.53701322  1
  O2-  O440  1  0.14743780  0.57252680  0.84578516  1
  O2-  O441  1  0.18355960  0.83900995  0.19075023  1
  O2-  O442  1  0.16389960  0.81959916  0.52244558  1
  O2-  O443  1  0.17067794  0.84709193  0.84215035  1
  O2-  O444  1  0.42910679  0.08594746  0.18701141  1
  O2-  O445  1  0.38337272  0.07826028  0.54281342  1
  O2-  O446  1  0.42546369  0.09364755  0.85124621  1
  O2-  O447  1  0.42172061  0.32824043  0.19949485  1
  O2-  O448  1  0.41935288  0.34299065  0.52816267  1
  O2-  O449  1  0.38167115  0.31305841  0.86800663  1
  O2-  O450  1  0.41912793  0.59667849  0.18732387  1
  O2-  O451  1  0.44096314  0.61141816  0.52399526  1
  O2-  O452  1  0.44169849  0.59736868  0.83623291  1
  O2-  O453  1  0.41879556  0.84248938  0.18989883  1
  O2-  O454  1  0.44060417  0.85823737  0.52641928  1
  O2-  O455  1  0.34958503  0.79527712  0.85517935  1
  O2-  O456  1  0.66656292  0.08863619  0.18110304  1
  O2-  O457  1  0.73307470  0.13255284  0.51829998  1
  O2-  O458  1  0.67169480  0.09380904  0.85676737  1
  O2-  O459  1  0.67439239  0.33431612  0.18833928  1
  O2-  O460  1  0.66745937  0.33472576  0.51889402  1
  O2-  O461  1  0.67841733  0.33577840  0.84595680  1
  O2-  O462  1  0.66576008  0.60885918  0.19775412  1
  O2-  O463  1  0.66461064  0.58581470  0.51063265  1
  O2-  O464  1  0.68399270  0.60283807  0.85241334  1
  O2-  O465  1  0.64342085  0.82747240  0.18703522  1
  O2-  O466  1  0.71551057  0.84506242  0.51744855  1
  O2-  O467  1  0.58817511  0.80129905  0.87433036  1
  O2-  O468  1  0.90094476  0.07679352  0.12302499  1
  O2-  O469  1  0.92496906  0.12692057  0.54484912  1
  O2-  O470  1  0.92423409  0.09314113  0.85645513  1
  O2-  O471  1  0.92757866  0.33774456  0.19141987  1
  O2-  O472  1  0.89900132  0.25709530  0.54386543  1
  O2-  O473  1  0.91772062  0.33867424  0.84682775  1
  O2-  O474  1  0.92072572  0.58403665  0.17848828  1
  O2-  O475  1  0.90623599  0.59529127  0.52815127  1
  O2-  O476  1  0.91240910  0.59822610  0.85377892  1
  O2-  O477  1  0.89407542  0.82300036  0.20701872  1
  O2-  O478  1  0.90952685  0.82910157  0.51409300  1
  O2-  O479  1  0.93148109  0.83602870  0.85298689  1
  O2-  O480  1  0.19362609  0.08525012  0.31067249  1
  O2-  O481  1  0.17013425  0.11061329  0.64720305  1
  O2-  O482  1  0.11921356  0.05596343  0.94650414  1
  O2-  O483  1  0.15327481  0.30569954  0.31789193  1
  O2-  O484  1  0.15979208  0.36278869  0.66052105  1
  O2-  O485  1  0.17671169  0.33386311  0.99130198  1
  O2-  O486  1  0.18391847  0.60988654  0.30861953  1
  O2-  O487  1  0.13262102  0.54854406  0.66098374  1
  O2-  O488  1  0.16545435  0.59229646  0.97811311  1
  O2-  O489  1  0.18224093  0.84288201  0.31512425  1
  O2-  O490  1  0.18546086  0.77652765  0.64119121  1
  O2-  O491  1  0.18531561  0.84092330  0.96744990  1
  O2-  O492  1  0.44085265  0.09097745  0.37542992  1
  O2-  O493  1  0.39579227  0.08557071  0.60924951  1
  O2-  O494  1  0.43743405  0.09592534  0.97451862  1
  O2-  O495  1  0.42250869  0.33393671  0.32266571  1
  O2-  O496  1  0.42111412  0.34953284  0.64860160  1
  O2-  O497  1  0.38455739  0.29484845  0.99763605  1
  O2-  O498  1  0.40666673  0.57820107  0.31105505  1
  O2-  O499  1  0.43370164  0.60097166  0.65204846  1
  O2-  O500  1  0.41153175  0.56677340  1.00115120  1
  O2-  O501  1  0.41940524  0.83860228  0.31411229  1
  O2-  O502  1  0.40568970  0.83569207  0.65225732  1
  O2-  O503  1  0.44500162  0.80479548  0.95505683  1
  O2-  O504  1  0.67532117  0.07716748  0.30378836  1
  O2-  O505  1  0.68342246  0.07476665  0.64284836  1
  O2-  O506  1  0.68579724  0.09170210  0.97436773  1
  O2-  O507  1  0.67639877  0.33546673  0.31175320  1
  O2-  O508  1  0.65600598  0.28975415  0.64607206  1
  O2-  O509  1  0.66539700  0.33385413  0.97226715  1
  O2-  O510  1  0.66864498  0.57717988  0.36019309  1
  O2-  O511  1  0.66402139  0.60615286  0.63539977  1
  O2-  O512  1  0.67941626  0.60806312  0.97063453  1
  O2-  O513  1  0.64107043  0.81071247  0.30765702  1
  O2-  O514  1  0.70589681  0.86492553  0.64112104  1
  O2-  O515  1  0.66138037  0.82813174  0.98306299  1
  O2-  O516  1  0.86326175  0.08543842  0.28141260  1
  O2-  O517  1  0.92712051  0.08929551  0.66428311  1
  O2-  O518  1  0.90876232  0.07679049  0.97391315  1
  O2-  O519  1  0.92849868  0.34865115  0.31574865  1
  O2-  O520  1  0.91905999  0.31863757  0.65709324  1
  O2-  O521  1  0.92284784  0.36184632  0.96831900  1
  O2-  O522  1  0.95795258  0.64627636  0.29894509  1
  O2-  O523  1  0.90109589  0.59303641  0.64147203  1
  O2-  O524  1  0.92050718  0.59257056  0.98225547  1
  O2-  O525  1  0.90737608  0.84403014  0.35179011  1
  O2-  O526  1  0.92014519  0.84388531  0.64526713  1
  O2-  O527  1  0.93049043  0.82824047  0.97594758  1
  O2-  O528  1  0.08005830  0.16251586  0.01227424  1
  O2-  O529  1  0.01768280  0.16751312  0.38032689  1
  O2-  O530  1  0.09077628  0.18862593  0.69234949  1
  O2-  O531  1  0.06880911  0.44373562  0.01579298  1
  O2-  O532  1  0.08960712  0.39971410  0.36711557  1
  O2-  O533  1  0.09822912  0.38813186  0.68360425  1
  O2-  O534  1  0.08876950  0.67779774  0.01586884  1
  O2-  O535  1  0.09537003  0.68063863  0.36258845  1
  O2-  O536  1  0.04356068  0.64220534  0.69378153  1
  O2-  O537  1  0.10095159  0.91617109  0.01032822  1
  O2-  O538  1  0.09079948  0.91817206  0.35366308  1
  O2-  O539  1  0.20881564  0.94328552  0.68869260  1
  O2-  O540  1  0.27617419  0.12022116  0.05347388  1
  O2-  O541  1  0.34711981  0.17202565  0.37034209  1
  O2-  O542  1  0.33354800  0.17784818  0.68063441  1
  O2-  O543  1  0.32244481  0.39576098  0.04673201  1
  O2-  O544  1  0.32960906  0.41163009  0.35615632  1
  O2-  O545  1  0.33861447  0.43397174  0.69099286  1
  O2-  O546  1  0.33212047  0.66431538  0.01990264  1
  O2-  O547  1  0.34276550  0.67648891  0.35281698  1
  O2-  O548  1  0.33416961  0.67480532  0.66712106  1
  O2-  O549  1  0.34211666  0.92633197  0.01825642  1
  O2-  O550  1  0.34293692  0.92106397  0.36794199  1
  O2-  O551  1  0.36253424  0.93603329  0.69184389  1
  O2-  O552  1  0.58074341  0.17874603  0.01955978  1
  O2-  O553  1  0.61352801  0.17279588  0.34959410  1
  O2-  O554  1  0.58279145  0.13187850  0.69747432  1
  O2-  O555  1  0.55694826  0.39240896  -0.01296154  1
  O2-  O556  1  0.58811042  0.40876491  0.35988717  1
  O2-  O557  1  0.58425155  0.44184874  0.67924882  1
  O2-  O558  1  0.58475326  0.66340558  0.02018397  1
  O2-  O559  1  0.57092990  0.65267452  0.35478268  1
  O2-  O560  1  0.59167882  0.68061549  0.68419528  1
  O2-  O561  1  0.59351335  0.92498838  0.02353068  1
  O2-  O562  1  0.58448218  0.91466617  0.35306275  1
  O2-  O563  1  0.56836265  0.90998475  0.70020060  1
  O2-  O564  1  0.85041966  0.19909671  0.01854754  1
  O2-  O565  1  0.82958392  0.19229103  0.36428960  1
  O2-  O566  1  0.83560753  0.16038579  0.69963368  1
  O2-  O567  1  0.83013291  0.42311586  0.01690799  1
  O2-  O568  1  0.84223588  0.42778562  0.35650276  1
  O2-  O569  1  0.82534363  0.39514486  0.68525866  1
  O2-  O570  1  0.82687288  0.67084412  0.01892879  1
  O2-  O571  1  0.84010121  0.67503702  0.35723310  1
  O2-  O572  1  0.83804218  0.67687928  0.68867330  1
  O2-  O573  1  0.83473748  0.90674040  -0.03681332  1
  O2-  O574  1  0.81166014  0.92041228  0.32919226  1
  O2-  O575  1  0.85479998  0.92963257  0.69993095  1
