# generated using pymatgen
data_H2O
_symmetry_space_group_name_H-M   'P 1'
_cell_length_a   17.99803578
_cell_length_b   17.99623557
_cell_length_c   22.00629081
_cell_angle_alpha   89.98672881
_cell_angle_beta   90.01512755
_cell_angle_gamma   120.02009095
_symmetry_Int_Tables_number   1
_chemical_formula_structural   H2O
_chemical_formula_sum   'H384 O192'
_cell_volume   6171.57886932
_cell_formula_units_Z   192
loop_
 _symmetry_equiv_pos_site_id
 _symmetry_equiv_pos_as_xyz
  1  'x, y, z'
loop_
 _atom_type_symbol
 _atom_type_oxidation_number
  H+  1.0
  O2-  -2.0
loop_
 _atom_site_type_symbol
 _atom_site_label
 _atom_site_symmetry_multiplicity
 _atom_site_fract_x
 _atom_site_fract_y
 _atom_site_fract_z
 _atom_site_occupancy
  H+  H0  1  0.79240473  0.39957843  0.66883205  1
  H+  H1  1  0.46371933  0.86252970  1.01453713  1
  H+  H2  1  0.02615005  0.66096111  0.83767464  1
  H+  H3  1  0.88284724  0.11370163  0.32937720  1
  H+  H4  1  0.98097306  0.61416472  0.17280874  1
  H+  H5  1  0.12826733  0.26114369  0.84008594  1
  H+  H6  1  0.61025291  0.24499818  0.17375492  1
  H+  H7  1  0.68802188  0.82609413  0.68323790  1
  H+  H8  1  0.52428056  0.38399050  0.03056761  1
  H+  H9  1  0.63774269  0.62040919  0.17640908  1
  H+  H10  1  0.01860853  0.13313271  0.01314687  1
  H+  H11  1  0.37120680  0.50883548  0.84082781  1
  H+  H12  1  0.02441426  0.38575120  0.00491155  1
  H+  H13  1  0.77789530  0.38510305  1.01262655  1
  H+  H14  1  0.38312958  1.04480203  0.66206069  1
  H+  H15  1  0.73439553  0.11744610  1.02005310  1
  H+  H16  1  0.85830031  0.72426740  0.33650536  1
  H+  H17  1  0.90046524  0.28182030  0.64999049  1
  H+  H18  1  0.36883955  0.59670716  0.84151727  1
  H+  H19  1  0.52269788  0.15213515  0.17205913  1
  H+  H20  1  0.36331856  -0.02613941  0.16587742  1
  H+  H21  1  0.89145864  0.10105707  0.65232543  1
  H+  H22  1  0.23106772  0.87725487  0.84625729  1
  H+  H23  1  0.52421246  0.63775469  0.16228577  1
  H+  H24  1  0.60756981  0.72712028  0.49723766  1
  H+  H25  1  0.38360639  0.27555220  1.00752819  1
  H+  H26  1  0.11316585  0.84223869  0.18436748  1
  H+  H27  1  0.61441151  0.13277628  0.49576351  1
  H+  H28  1  0.72179705  0.35939231  0.50154066  1
  H+  H29  1  0.27373885  0.63910398  0.33565286  1
  H+  H30  1  0.85968733  0.97836717  0.48413370  1
  H+  H31  1  0.61163196  0.38096475  0.03084946  1
  H+  H32  1  0.86227057  0.22648328  0.48951486  1
  H+  H33  1  -0.02398888  0.36839263  0.49686568  1
  H+  H34  1  1.00219276  0.61549052  0.33984612  1
  H+  H35  1  0.12473615  0.13460656  0.34050889  1
  H+  H36  1  0.49270156  0.77936355  0.60031024  1
  H+  H37  1  0.22465795  0.36421003  0.18328259  1
  H+  H38  1  -0.03542807  0.36366910  0.32539886  1
  H+  H39  1  0.47775969  0.11625655  0.00296792  1
  H+  H40  1  0.14015394  0.52371830  0.99710061  1
  H+  H41  1  0.27524310  0.39503259  0.49443304  1
  H+  H42  1  0.86639997  0.65058021  0.81327127  1
  H+  H43  1  0.63702063  0.85537959  0.83645613  1
  H+  H44  1  0.27598232  0.89271852  0.34343813  1
  H+  H45  1  0.36401349  0.13621809  0.01219229  1
  H+  H46  1  0.36931426  0.14064859  0.49385435  1
  H+  H47  1  0.13274373  0.35712645  0.17778563  1
  H+  H48  1  0.85160040  0.63339041  0.33114157  1
  H+  H49  1  0.80102256  0.40095081  0.38719344  1
  H+  H50  1  0.73282866  0.63045216  0.82595211  1
  H+  H51  1  0.38782293  0.02536115  0.50536711  1
  H+  H52  1  0.43995023  0.07460819  0.90903894  1
  H+  H53  1  0.38212601  0.72030704  0.67044363  1
  H+  H54  1  0.66473934  0.29192878  0.66180624  1
  H+  H55  1  0.34095365  0.15475595  0.89953823  1
  H+  H56  1  0.87313438  0.47154999  1.01191667  1
  H+  H57  1  0.88543998  0.03206940  0.84783050  1
  H+  H58  1  0.11336251  0.11060332  0.84052147  1
  H+  H59  1  0.13202930  0.02077777  0.66086291  1
  H+  H60  1  0.26207468  0.37290911  0.82872587  1
  H+  H61  1  0.89206595  0.52440747  0.17169301  1
  H+  H62  1  0.03058448  0.64406251  0.68334012  1
  H+  H63  1  0.71711622  0.11373456  0.84888742  1
  H+  H64  1  0.13685244  0.22911143  0.16150421  1
  H+  H65  1  0.53786110  0.11782985  0.82438193  1
  H+  H66  1  0.62988705  0.60150834  0.65349150  1
  H+  H67  1  0.60754247  0.13857240  0.03100543  1
  H+  H68  1  0.97307308  0.87089114  0.83566379  1
  H+  H69  1  0.12394234  0.73247112  0.01318516  1
  H+  H70  1  0.20010195  0.11341773  0.83043663  1
  H+  H71  1  0.11327057  0.89600866  0.82958530  1
  H+  H72  1  0.14893789  0.48209852  0.81349935  1
  H+  H73  1  0.13735516  1.02715551  0.33448148  1
  H+  H74  1  0.61339001  0.64243991  1.00039516  1
  H+  H75  1  0.22921004  0.87038820  1.00376301  1
  H+  H76  1  0.90014824  0.53947652  0.83715031  1
  H+  H77  1  0.92174415  0.07817987  0.59091150  1
  H+  H78  1  0.60163764  -0.02238901  1.02399528  1
  H+  H79  1  0.56215914  0.90793190  0.82101150  1
  H+  H80  1  0.88278501  0.78583977  0.83029089  1
  H+  H81  1  0.81335828  0.17435980  0.81328627  1
  H+  H82  1  0.48869986  0.61477553  0.50486631  1
  H+  H83  1  0.11813193  0.63390680  0.16397647  1
  H+  H84  1  0.84914771  0.72756237  0.00546952  1
  H+  H85  1  0.84961500  0.74064811  0.66291398  1
  H+  H86  1  0.65935564  0.92211989  0.66175218  1
  H+  H87  1  0.22696036  0.11678479  0.32931309  1
  H+  H88  1  0.74885552  0.83722115  0.34051065  1
  H+  H89  1  0.14082958  0.77425945  0.33086195  1
  H+  H90  1  0.71159702  0.60822484  0.32996376  1
  H+  H91  1  0.12036676  0.15034650  0.49120171  1
  H+  H92  1  0.47702269  0.38940805  0.84954441  1
  H+  H93  1  0.35688506  0.72656204  0.01904540  1
  H+  H94  1  0.68790173  0.34805958  0.60278016  1
  H+  H95  1  -0.02171379  0.11820734  0.49820980  1
  H+  H96  1  0.78063820  0.90780309  0.83186312  1
  H+  H97  1  0.90413753  0.25688992  0.81655209  1
  H+  H98  1  0.25786933  0.10938068  0.16620180  1
  H+  H99  1  0.12756485  0.26420534  0.65724044  1
  H+  H100  1  0.85616537  0.88807157  0.48868519  1
  H+  H101  1  0.85491856  0.37863040  0.47973473  1
  H+  H102  1  0.97877214  0.67707115  0.60962077  1
  H+  H103  1  0.36170537  0.13327508  0.33930773  1
  H+  H104  1  0.34991916  0.36673166  0.33690084  1
  H+  H105  1  0.65332935  0.38408117  0.19289649  1
  H+  H106  1  0.88500009  0.27042209  0.16924616  1
  H+  H107  1  0.36983469  0.50215875  0.65734662  1
  H+  H108  1  0.37097823  0.75451305  0.85696234  1
  H+  H109  1  0.13387483  0.76726738  0.17680710  1
  H+  H110  1  0.25951078  0.37128771  0.67174946  1
  H+  H111  1  0.50648477  0.39082240  0.67364457  1
  H+  H112  1  0.37840677  0.85254547  0.17533227  1
  H+  H113  1  0.59338022  0.40225882  0.83040760  1
  H+  H114  1  0.60419829  0.47089312  0.49011893  1
  H+  H115  1  0.13637236  0.77445745  0.51494430  1
  H+  H116  1  0.62284572  0.49114889  0.17558615  1
  H+  H117  1  1.03064371  0.39149798  0.66699730  1
  H+  H118  1  0.88238521  0.48729579  0.66347579  1
  H+  H119  1  0.34586005  0.19641659  0.17568285  1
  H+  H120  1  0.84771961  0.62709199  0.48373532  1
  H+  H121  1  0.21489162  0.34707033  0.33033324  1
  H+  H122  1  0.10778649  0.47040321  0.33234862  1
  H+  H123  1  0.22144747  0.62596999  0.50142257  1
  H+  H124  1  0.86637336  0.38625621  0.16357327  1
  H+  H125  1  0.14235934  0.61728746  0.66460637  1
  H+  H126  1  0.62701468  0.61047018  0.50205372  1
  H+  H127  1  0.03235643  0.89452946  0.34337946  1
  H+  H128  1  0.41838512  0.10915311  0.85118363  1
  H+  H129  1  0.58273475  0.66828434  0.10192989  1
  H+  H130  1  0.77378206  0.13137330  0.13260891  1
  H+  H131  1  0.46193395  0.58742951  0.65911593  1
  H+  H132  1  0.36126553  0.63921472  0.01181674  1
  H+  H133  1  0.63713786  -0.00285156  0.66226559  1
  H+  H134  1  0.88072436  0.45111567  0.75956162  1
  H+  H135  1  0.62037618  0.38636205  0.34354430  1
  H+  H136  1  0.90143784  0.37226174  0.65393107  1
  H+  H137  1  0.91283103  0.42280929  0.81915406  1
  H+  H138  1  0.02214244  0.38118037  0.16037497  1
  H+  H139  1  0.33338223  0.66200310  0.11027279  1
  H+  H140  1  0.57559017  0.40725183  0.43299943  1
  H+  H141  1  0.38067923  0.36335160  0.66415959  1
  H+  H142  1  0.11900265  0.23148333  0.33702209  1
  H+  H143  1  0.81968578  0.66944233  0.06457555  1
  H+  H144  1  0.38582990  0.77841278  0.33230363  1
  H+  H145  1  0.23129245  0.61869302  0.65892806  1
  H+  H146  1  0.12094646  0.48029519  0.66773912  1
  H+  H147  1  0.38742637  0.86815354  0.33233303  1
  H+  H148  1  0.11146353  0.65529830  0.84031474  1
  H+  H149  1  0.96454276  0.60424587  0.49984584  1
  H+  H150  1  0.07877506  0.97550652  0.12640480  1
  H+  H151  1  0.07007920  0.91504671  0.73273284  1
  H+  H152  1  0.88827662  0.11612247  0.50047899  1
  H+  H153  1  0.90733828  0.83648904  0.93031536  1
  H+  H154  1  0.47373070  0.62387122  0.33810834  1
  H+  H155  1  0.40760528  0.57788330  0.93852800  1
  H+  H156  1  0.10643995  0.88685776  0.01009353  1
  H+  H157  1  0.52484575  0.89502597  0.34614075  1
  H+  H158  1  0.32755322  0.65966572  0.76742249  1
  H+  H159  1  0.86331472  0.58076796  0.88602135  1
  H+  H160  1  0.66798466  0.83326473  0.93929209  1
  H+  H161  1  0.13274345  0.35650833  0.65712927  1
  H+  H162  1  0.37730943  0.14917953  0.64034819  1
  H+  H163  1  0.22360721  0.10782266  0.65270310  1
  H+  H164  1  0.63656481  0.27079503  1.01160773  1
  H+  H165  1  0.14111080  0.79186766  0.84728942  1
  H+  H166  1  0.72281672  0.10709015  0.50014273  1
  H+  H167  1  0.89681187  0.12694016  0.84701249  1
  H+  H168  1  0.22959415  0.60710446  0.17256300  1
  H+  H169  1  0.33243681  0.92189101  0.40440411  1
  H+  H170  1  0.88576751  0.22752856  0.05156899  1
  H+  H171  1  0.62292128  0.23202929  0.34689290  1
  H+  H172  1  0.52233390  0.64245530  1.00498143  1
  H+  H173  1  0.38357906  0.97438050  0.83106400  1
  H+  H174  1  0.86755748  0.90747101  0.82619399  1
  H+  H175  1  0.73775680  0.85984680  0.00073552  1
  H+  H176  1  0.14768017  0.10860674  0.17013198  1
  H+  H177  1  0.13069219  0.27034096  -0.00277921  1
  H+  H178  1  0.88987985  0.84802982  0.32686922  1
  H+  H179  1  0.13593426  0.77942931  0.66605260  1
  H+  H180  1  0.39019943  0.02837444  0.33332568  1
  H+  H181  1  0.64467057  0.63244359  0.82943096  1
  H+  H182  1  -0.03118631  0.88071206  0.66057025  1
  H+  H183  1  0.60721354  0.89588240  0.48998784  1
  H+  H184  1  0.73792693  0.37618979  0.18264775  1
  H+  H185  1  0.79035600  0.14742389  0.66113503  1
  H+  H186  1  0.72135107  0.34764739  0.79148630  1
  H+  H187  1  0.63923322  0.18015475  0.82096369  1
  H+  H188  1  0.41742335  0.58997552  0.27869803  1
  H+  H189  1  0.27576928  0.88877212  0.49962340  1
  H+  H190  1  0.88759277  0.11255404  0.17105432  1
  H+  H191  1  0.84975684  0.96297687  0.01069544  1
  H+  H192  1  0.36032387  0.89171454  0.01440154  1
  H+  H193  1  0.77571012  0.64369548  0.16619929  1
  H+  H194  1  0.85202104  0.46558156  0.47918787  1
  H+  H195  1  0.72701973  0.86782187  0.18298226  1
  H+  H196  1  0.88306480  0.36502081  -0.00830045  1
  H+  H197  1  0.76931306  0.64386958  0.65953048  1
  H+  H198  1  0.58986745  0.69720807  0.66941513  1
  H+  H199  1  0.38282929  0.52407443  1.00016946  1
  H+  H200  1  0.08722816  0.53369370  0.86114451  1
  H+  H201  1  0.13885782  0.35470772  0.83685769  1
  H+  H202  1  0.49615066  0.38204285  0.17690439  1
  H+  H203  1  0.22612230  0.12513290  0.50672818  1
  H+  H204  1  0.90353605  0.96434009  0.65373105  1
  H+  H205  1  0.47553471  0.12326999  0.33194452  1
  H+  H206  1  0.36414319  0.39342966  0.16618266  1
  H+  H207  1  0.40911624  0.82803034  0.23611955  1
  H+  H208  1  0.09363343  0.88117877  0.67244090  1
  H+  H209  1  0.63802867  1.02080634  0.32928384  1
  H+  H210  1  0.27021672  0.88948249  0.16230594  1
  H+  H211  1  0.10357423  -0.02568119  1.00692430  1
  H+  H212  1  0.52134324  0.85637617  0.64570741  1
  H+  H213  1  0.33485187  0.15790870  0.82826515  1
  H+  H214  1  0.59537203  -0.00805576  0.90663191  1
  H+  H215  1  0.65891522  0.78179455  0.84991007  1
  H+  H216  1  0.61297598  0.49974055  0.82255905  1
  H+  H217  1  0.86800333  0.51775838  0.31677418  1
  H+  H218  1  0.85358988  0.22295090  0.33905112  1
  H+  H219  1  0.71459275  0.60705289  0.49915980  1
  H+  H220  1  0.36908002  0.23104405  0.49268817  1
  H+  H221  1  0.35532993  0.38282787  0.83090482  1
  H+  H222  1  0.10574148  0.63679634  0.49923308  1
  H+  H223  1  0.41539507  0.31074360  0.14264729  1
  H+  H224  1  0.96482618  0.86282776  0.99059762  1
  H+  H225  1  0.63383596  0.36002140  0.50790212  1
  H+  H226  1  0.72103479  0.62652493  0.99292023  1
  H+  H227  1  0.11306612  0.48381742  0.48852792  1
  H+  H228  1  0.99350738  0.60757002  1.00756577  1
  H+  H229  1  0.52509206  0.37394538  0.33604553  1
  H+  H230  1  0.38680956  0.26525338  0.32237362  1
  H+  H231  1  0.37150272  0.84231600  0.86099468  1
  H+  H232  1  0.36405351  0.64229156  0.34270548  1
  H+  H233  1  0.60817889  0.48223599  0.66810086  1
  H+  H234  1  0.62962025  0.86625595  0.33192354  1
  H+  H235  1  0.33124452  0.17222869  0.58924466  1
  H+  H236  1  0.83645158  0.41431715  0.10416594  1
  H+  H237  1  0.72821410  0.15132957  0.87008254  1
  H+  H238  1  0.22451108  0.11559414  0.99727296  1
  H+  H239  1  0.36738931  0.84922820  0.66250564  1
  H+  H240  1  0.76633570  0.13135091  0.33816593  1
  H+  H241  1  0.47538502  0.36603174  0.50325432  1
  H+  H242  1  0.39132972  0.61601828  0.18245722  1
  H+  H243  1  0.34020434  0.86467591  0.67784176  1
  H+  H244  1  0.35838014  0.62416330  0.67311295  1
  H+  H245  1  0.89622383  0.64423911  0.64932187  1
  H+  H246  1  0.53702466  0.14762070  0.66349803  1
  H+  H247  1  0.12204285  0.89709049  0.34366268  1
  H+  H248  1  0.15429758  0.32036618  0.27036453  1
  H+  H249  1  0.63470283  0.30895445  0.85075949  1
  H+  H250  1  0.39013982  0.52732807  0.18255852  1
  H+  H251  1  0.40392066  0.29333195  0.86172135  1
  H+  H252  1  0.26757694  0.38822248  0.01371411  1
  H+  H253  1  0.60674756  0.64646331  0.34712857  1
  H+  H254  1  0.35387693  0.73869226  0.48693442  1
  H+  H255  1  0.42555277  0.08556683  0.59631248  1
  H+  H256  1  0.38996555  0.51369120  0.50245031  1
  H+  H257  1  0.62192476  0.52059243  0.33069988  1
  H+  H258  1  0.36782109  0.89249335  0.49402215  1
  H+  H259  1  0.26125716  0.62927438  0.82313691  1
  H+  H260  1  0.02002318  0.12847420  0.66853314  1
  H+  H261  1  0.96999099  0.11235126  0.32962012  1
  H+  H262  1  0.72384349  0.86210324  0.50070481  1
  H+  H263  1  0.12779600  0.64430965  1.01231816  1
  H+  H264  1  0.58438136  0.03841798  0.84955405  1
  H+  H265  1  0.61435074  0.22265689  0.50131506  1
  H+  H266  1  0.72854903  0.31836164  0.81241222  1
  H+  H267  1  1.01287695  0.38254609  0.83699812  1
  H+  H268  1  0.31927171  0.67304731  0.43176066  1
  H+  H269  1  0.13923132  0.37307339  0.50288646  1
  H+  H270  1  0.57596394  0.17852569  0.08369416  1
  H+  H271  1  1.01037581  0.13255143  0.82978883  1
  H+  H272  1  0.08168711  0.90731780  0.43923392  1
  H+  H273  1  0.10965497  0.13781523  0.00781511  1
  H+  H274  1  0.35802718  0.72112072  0.17042023  1
  H+  H275  1  0.38180721  0.09965909  0.17925376  1
  H+  H276  1  0.13847422  0.51706228  0.16937433  1
  H+  H277  1  0.11634916  0.23823658  0.48587945  1
  H+  H278  1  0.13512250  0.60631641  0.31641967  1
  H+  H279  1  0.10341715  0.97930819  0.82748979  1
  H+  H280  1  0.23120043  0.61314958  0.99788372  1
  H+  H281  1  0.39197220  0.28023333  0.64900630  1
  H+  H282  1  0.24390992  0.92252702  0.68052244  1
  H+  H283  1  0.11204637  0.38330467  0.00573893  1
  H+  H284  1  0.92050057  0.77243377  0.18289931  1
  H+  H285  1  0.35684240  0.38934475  0.01923243  1
  H+  H286  1  0.49785099  0.62593864  0.82672592  1
  H+  H287  1  0.86437915  0.97847096  0.16761601  1
  H+  H288  1  0.56317143  0.64639381  0.73179685  1
  H+  H289  1  0.87038028  0.27660429  0.96519832  1
  H+  H290  1  0.33246342  0.92623523  0.07152038  1
  H+  H291  1  0.38875637  0.02617765  0.99887514  1
  H+  H292  1  0.41927174  0.34529306  0.95384881  1
  H+  H293  1  0.62945211  0.01461180  0.50064530  1
  H+  H294  1  0.69129446  0.12197621  0.95969153  1
  H+  H295  1  0.54776513  0.71958069  0.80079757  1
  H+  H296  1  0.16433606  0.33600016  0.56147251  1
  H+  H297  1  0.40454656  0.82415280  0.95431391  1
  H+  H298  1  0.10019799  0.37802137  0.33777709  1
  H+  H299  1  0.41904609  0.57126328  0.56772742  1
  H+  H300  1  0.47964287  0.11360324  0.50548205  1
  H+  H301  1  0.59355171  0.89898679  0.75506438  1
  H+  H302  1  0.77443333  0.87982714  0.65037826  1
  H+  H303  1  0.90748126  0.08364713  0.94720122  1
  H+  H304  1  0.04671514  0.57865150  0.38115418  1
  H+  H305  1  0.91159346  0.32595743  0.23077184  1
  H+  H306  1  0.49255320  0.88263858  0.49428457  1
  H+  H307  1  0.60691590  0.73713075  0.34465937  1
  H+  H308  1  0.16214385  0.09429839  0.56374806  1
  H+  H309  1  0.08152032  0.40935712  0.10098039  1
  H+  H310  1  0.98514797  0.87045036  0.16660036  1
  H+  H311  1  0.89788561  0.82942850  0.55897859  1
  H+  H312  1  0.94599562  0.35552701  0.89408856  1
  H+  H313  1  0.08809532  0.67538394  0.74308235  1
  H+  H314  1  0.66904899  0.60389029  0.93003110  1
  H+  H315  1  0.32696751  0.42080972  0.11032082  1
  H+  H316  1  0.85604504  0.18028791  0.71797405  1
  H+  H317  1  0.15836973  0.83442198  0.60336042  1
  H+  H318  1  0.67592541  0.83500964  0.56380735  1
  H+  H319  1  0.63924998  0.77980423  0.17963794  1
  H+  H320  1  0.32480567  0.40396990  0.39431568  1
  H+  H321  1  0.09340316  0.17232312  0.40407381  1
  H+  H322  1  0.10216032  0.42178447  0.75571134  1
  H+  H323  1  0.67392963  0.06935629  0.26702023  1
  H+  H324  1  0.94352722  0.57698736  0.94587430  1
  H+  H325  1  0.15924454  0.06690127  0.23089797  1
  H+  H326  1  0.65396691  0.12703294  0.64835426  1
  H+  H327  1  0.36213218  0.38888172  0.49411160  1
  H+  H328  1  0.83163529  0.16597704  0.43084568  1
  H+  H329  1  0.65783706  0.57353971  0.59165004  1
  H+  H330  1  0.58338651  0.92702428  0.40741590  1
  H+  H331  1  0.81854050  0.65910908  0.42554795  1
  H+  H332  1  0.66134113  0.59168258  0.23946210  1
  H+  H333  1  0.65519110  0.83353380  0.26997827  1
  H+  H334  1  0.41736530  0.07797162  0.23927895  1
  H+  H335  1  0.83421113  0.91034895  0.11460706  1
  H+  H336  1  0.16594907  0.82837806  0.26963003  1
  H+  H337  1  0.16440705  0.08927392  0.93777916  1
  H+  H338  1  0.67855283  0.09031627  0.58944229  1
  H+  H339  1  0.59440711  0.16247956  0.72166407  1
  H+  H340  1  0.57775151  0.17890566  0.40674656  1
  H+  H341  1  0.57369824  0.43136599  0.73661571  1
  H+  H342  1  0.87250831  0.35890885  0.31978577  1
  H+  H343  1  0.06754157  0.15772147  0.76654123  1
  H+  H344  1  0.65297674  0.33218196  0.95469299  1
  H+  H345  1  0.32758017  0.15743896  0.07181369  1
  H+  H346  1  0.01324455  0.86941201  0.49283087  1
  H+  H347  1  0.33320157  0.16630224  0.39792792  1
  H+  H348  1  0.41761298  0.32584272  0.26351094  1
  H+  H349  1  0.70803231  0.36119682  0.27840155  1
  H+  H350  1  0.57209089  0.92485807  0.08359208  1
  H+  H351  1  0.85902017  0.63532865  0.15849650  1
  H+  H352  1  0.36650412  0.90434320  0.77970026  1
  H+  H353  1  0.91301519  0.58197253  0.26073712  1
  H+  H354  1  0.85353283  0.87504572  0.00388158  1
  H+  H355  1  0.16619013  0.57484516  0.25903834  1
  H+  H356  1  0.80945427  0.86978388  0.39716124  1
  H+  H357  1  0.16368300  0.58801580  0.56205050  1
  H+  H358  1  0.41887783  0.34294804  0.56389183  1
  H+  H359  1  0.29492745  0.95768590  0.74209389  1
  H+  H360  1  0.94387633  0.83655501  0.27062912  1
  H+  H361  1  0.09286448  0.66925414  0.10556731  1
  H+  H362  1  0.54316486  0.27051100  0.88011793  1
  H+  H363  1  0.42950024  0.84081000  0.55320810  1
  H+  H364  1  0.13233796  0.86032747  0.51180589  1
  H+  H365  1  0.27162127  0.12958212  0.75928991  1
  H+  H366  1  0.15912335  0.58509527  0.90998970  1
  H+  H367  1  0.10839064  0.17418783  0.10019564  1
  H+  H368  1  0.89798776  0.57053529  0.55337605  1
  H+  H369  1  0.28085905  0.17571844  0.75919656  1
  H+  H370  1  0.63242465  0.76278566  -0.00180463  1
  H+  H371  1  0.83417082  0.67814596  0.75376333  1
  H+  H372  1  0.08336036  0.42185464  0.42965677  1
  H+  H373  1  0.31781303  0.40290338  0.73315502  1
  H+  H374  1  0.88232497  0.10336934  1.01338957  1
  H+  H375  1  0.59330737  0.42274985  0.11966169  1
  H+  H376  1  0.07538427  0.67168643  0.44298188  1
  H+  H377  1  0.57586074  0.67234719  0.43413518  1
  H+  H378  1  0.16317902  0.32802303  0.93716328  1
  H+  H379  1  0.11091799  0.13423994  0.67475200  1
  H+  H380  1  0.91424413  0.08756229  0.23341080  1
  H+  H381  1  0.17023203  0.84181867  0.94473180  1
  H+  H382  1  0.91903222  0.34029062  0.55648418  1
  H+  H383  1  0.86667574  0.76510367  0.50160674  1
  O2-  O384  1  0.13708557  0.18117112  0.13986580  1
  O2-  O385  1  0.08837531  0.17773678  0.47073565  1
  O2-  O386  1  0.07030701  0.16034949  0.81218128  1
  O2-  O387  1  0.08305030  0.41024663  0.14630377  1
  O2-  O388  1  0.08458225  0.42244328  0.47512501  1
  O2-  O389  1  0.10907503  0.42261177  0.80186417  1
  O2-  O390  1  0.08876293  0.66620190  0.15111632  1
  O2-  O391  1  0.07202684  0.66647322  0.48770537  1
  O2-  O392  1  0.08543871  0.68764021  0.82194415  1
  O2-  O393  1  0.01823295  0.93912309  0.11457678  1
  O2-  O394  1  0.07466774  0.89346767  0.48326376  1
  O2-  O395  1  0.07879306  0.91988385  0.81118972  1
  O2-  O396  1  0.32172961  0.14387673  0.15166948  1
  O2-  O397  1  0.33564477  0.16908561  0.48161576  1
  O2-  O398  1  0.37498384  0.17990258  0.86268226  1
  O2-  O399  1  0.32913844  0.42021235  0.15573904  1
  O2-  O400  1  0.33639186  0.42408049  0.47976513  1
  O2-  O401  1  0.32186504  0.40703275  0.81148705  1
  O2-  O402  1  0.33089590  0.65899286  0.15542744  1
  O2-  O403  1  0.31465301  0.67718422  0.47683850  1
  O2-  O404  1  0.32203637  0.65296048  0.81269765  1
  O2-  O405  1  0.32954164  0.91572933  0.14648792  1
  O2-  O406  1  0.33435846  0.92192825  0.48186284  1
  O2-  O407  1  0.34052763  0.91668428  0.81436929  1
  O2-  O408  1  0.57871175  0.18976971  0.15188793  1
  O2-  O409  1  0.58254080  0.16364619  0.48401535  1
  O2-  O410  1  0.59110231  0.13142425  0.80114325  1
  O2-  O411  1  0.59438934  0.42756716  0.16592732  1
  O2-  O412  1  0.57433925  0.40899767  0.47861820  1
  O2-  O413  1  0.57380412  0.43809180  0.80911660  1
  O2-  O414  1  0.58466232  0.66684116  0.14694174  1
  O2-  O415  1  0.57416395  0.66622045  0.48108318  1
  O2-  O416  1  0.55363968  0.66848491  0.80529985  1
  O2-  O417  1  0.62143814  0.98684965  0.15914150  1
  O2-  O418  1  0.57977295  0.92854489  0.47711489  1
  O2-  O419  1  0.57434900  0.86967364  0.79497347  1
  O2-  O420  1  0.83690930  0.16673803  0.12495447  1
  O2-  O421  1  0.83418678  0.16537001  0.47669020  1
  O2-  O422  1  0.87281802  0.19669225  0.80010978  1
  O2-  O423  1  0.83749557  0.41830491  0.14944717  1
  O2-  O424  1  0.82142885  0.40540238  0.46379836  1
  O2-  O425  1  0.89904711  0.46573323  0.80268284  1
  O2-  O426  1  0.83310657  0.67032163  0.14644976  1
  O2-  O427  1  0.81625019  0.65695439  0.47138237  1
  O2-  O428  1  0.83352514  0.67809500  0.79913126  1
  O2-  O429  1  0.82890542  0.91578749  0.15841038  1
  O2-  O430  1  0.82447516  0.91648527  0.47337398  1
  O2-  O431  1  0.83982013  0.94193072  0.81610855  1
  O2-  O432  1  0.16551736  0.06673022  0.18644260  1
  O2-  O433  1  0.16652395  0.10584685  0.51956522  1
  O2-  O434  1  0.14858081  0.08378008  0.85534739  1
  O2-  O435  1  0.16350828  0.32977053  0.19683306  1
  O2-  O436  1  0.16991206  0.34220201  0.51631919  1
  O2-  O437  1  0.16254927  0.32119312  0.85646206  1
  O2-  O438  1  0.16698239  0.57700681  0.18548643  1
  O2-  O439  1  0.15920374  0.58909039  0.51713662  1
  O2-  O440  1  0.14553744  0.58244056  0.86431074  1
  O2-  O441  1  0.15794946  0.82759061  0.19272329  1
  O2-  O442  1  0.16734039  0.83475745  0.52953986  1
  O2-  O443  1  0.17202402  0.85261653  0.86184054  1
  O2-  O444  1  0.41809239  0.07572137  0.19365825  1
  O2-  O445  1  0.41847813  0.08642024  0.52041747  1
  O2-  O446  1  0.44386688  0.07385843  0.86294104  1
  O2-  O447  1  0.42984315  0.34544302  0.17943524  1
  O2-  O448  1  0.41432388  0.33754794  0.51909181  1
  O2-  O449  1  0.42062485  0.35358336  0.87014009  1
  O2-  O450  1  0.42434490  0.58796976  0.19640264  1
  O2-  O451  1  0.42490129  0.57505350  0.52170130  1
  O2-  O452  1  0.40241889  0.56958825  0.85609199  1
  O2-  O453  1  0.40259680  0.81787723  0.19143230  1
  O2-  O454  1  0.42566580  0.84774311  0.50931626  1
  O2-  O455  1  0.39477394  0.80887014  0.87967440  1
  O2-  O456  1  0.65989691  0.06788475  0.15533553  1
  O2-  O457  1  0.66403899  0.07934796  0.51762889  1
  O2-  O458  1  0.56090604  -0.01730674  0.87031492  1
  O2-  O459  1  0.68325808  0.35240005  0.20636700  1
  O2-  O460  1  0.66613971  0.33268570  0.52394375  1
  O2-  O461  1  0.59903457  0.32277144  0.87689878  1
  O2-  O462  1  0.66837530  0.59170006  0.19445191  1
  O2-  O463  1  0.65500151  0.57778447  0.51697453  1
  O2-  O464  1  0.67214224  0.59969446  0.84193538  1
  O2-  O465  1  0.66567136  0.83786766  0.19719857  1
  O2-  O466  1  0.66517264  0.82807244  0.51981664  1
  O2-  O467  1  0.67447129  0.83977897  0.86268692  1
  O2-  O468  1  0.91863105  0.08586508  0.18822642  1
  O2-  O469  1  0.91892109  0.08517173  0.51445927  1
  O2-  O470  1  0.91857857  0.09221177  0.86695666  1
  O2-  O471  1  0.91609498  0.32952906  0.18524692  1
  O2-  O472  1  0.91513164  0.33788390  0.51121722  1
  O2-  O473  1  0.95118818  0.35627323  0.84900540  1
  O2-  O474  1  0.92017139  0.58463687  0.18730625  1
  O2-  O475  1  0.90123436  0.56990312  0.50872714  1
  O2-  O476  1  0.91033963  0.59549202  0.85765182  1
  O2-  O477  1  0.97144472  0.82399419  0.19926485  1
  O2-  O478  1  0.89977378  0.82638125  0.51436201  1
  O2-  O479  1  0.91183514  0.84386685  0.84877161  1
  O2-  O480  1  0.16453009  0.08790889  0.31785934  1
  O2-  O481  1  0.16108792  0.08144285  0.64625989  1
  O2-  O482  1  0.16424033  0.08842969  0.98272574  1
  O2-  O483  1  0.15200640  0.31722041  0.31648081  1
  O2-  O484  1  0.16107763  0.32464637  0.64146152  1
  O2-  O485  1  0.16272344  0.33173241  0.98229876  1
  O2-  O486  1  0.16432019  0.57442157  0.30515674  1
  O2-  O487  1  0.17023095  0.58728504  0.64549788  1
  O2-  O488  1  0.17039805  0.58382187  0.98117456  1
  O2-  O489  1  0.16942242  0.83289398  0.31530567  1
  O2-  O490  1  0.15272133  0.83682360  0.64914204  1
  O2-  O491  1  0.16818243  0.83537212  0.98955403  1
  O2-  O492  1  0.41560342  0.08733353  0.31537966  1
  O2-  O493  1  0.42940738  0.09717012  0.64140441  1
  O2-  O494  1  0.42100136  0.08643317  0.98120999  1
  O2-  O495  1  0.41976715  0.32649423  0.30832267  1
  O2-  O496  1  0.42183387  0.34519705  0.64796786  1
  O2-  O497  1  0.41428119  0.33842757  0.99858165  1
  O2-  O498  1  0.41339633  0.59396596  0.32338956  1
  O2-  O499  1  0.40363228  0.56266060  0.64103884  1
  O2-  O500  1  0.41275994  0.58389026  0.98340620  1
  O2-  O501  1  0.41760980  0.83861843  0.31642772  1
  O2-  O502  1  0.46954011  0.80485191  0.62807691  1
  O2-  O503  1  0.40270899  0.82963263  0.99961752  1
  O2-  O504  1  0.67271417  0.07954538  0.31032470  1
  O2-  O505  1  0.68537460  0.09699303  0.63568318  1
  O2-  O506  1  0.67814448  0.09533374  0.99981486  1
  O2-  O507  1  0.70892969  0.36004871  0.32503801  1
  O2-  O508  1  0.69710998  0.35216123  0.64759883  1
  O2-  O509  1  0.66912348  0.33243256  0.99736794  1
  O2-  O510  1  0.65002982  0.58159756  0.31783108  1
  O2-  O511  1  0.66137923  0.57306766  0.63786813  1
  O2-  O512  1  0.66122011  0.60154909  0.97417178  1
  O2-  O513  1  0.65136215  0.82840410  0.31613892  1
  O2-  O514  1  0.71130435  0.85974036  0.64636807  1
  O2-  O515  1  0.67005452  0.82773753  0.98453046  1
  O2-  O516  1  0.91262756  0.08472296  0.31168425  1
  O2-  O517  1  0.92157054  0.07137338  0.63641971  1
  O2-  O518  1  0.90810391  0.07381885  0.99188943  1
  O2-  O519  1  0.90572115  0.33120821  0.30750423  1
  O2-  O520  1  0.93192608  0.34338604  0.63662835  1
  O2-  O521  1  0.91424401  0.33637117  0.97148570  1
  O2-  O522  1  0.90725704  0.57891261  0.30686146  1
  O2-  O523  1  0.93746394  0.62695828  0.63280812  1
  O2-  O524  1  0.93556282  0.56854661  0.98968229  1
  O2-  O525  1  0.93520930  0.83354979  0.31607314  1
  O2-  O526  1  0.90917194  0.85636279  0.64149379  1
  O2-  O527  1  0.90400335  0.83380651  0.97539465  1
  O2-  O528  1  0.08072950  0.16971379  0.02237084  1
  O2-  O529  1  0.09337820  0.16826661  0.35628784  1
  O2-  O530  1  0.07781524  0.16236241  0.68855096  1
  O2-  O531  1  0.08347516  0.41575098  0.02110291  1
  O2-  O532  1  0.07274336  0.41176601  0.35065965  1
  O2-  O533  1  0.09125685  0.41976349  0.68323483  1
  O2-  O534  1  0.09642695  0.67214680  0.02937158  1
  O2-  O535  1  0.05835898  0.63191269  0.36127121  1
  O2-  O536  1  0.09034959  0.67086570  0.69795531  1
  O2-  O537  1  0.06800502  0.91139574  0.01030634  1
  O2-  O538  1  0.09353818  0.92824389  0.35918738  1
  O2-  O539  1  0.06609634  0.91445413  0.68732744  1
  O2-  O540  1  0.33244791  0.16533953  0.02664716  1
  O2-  O541  1  0.33072860  0.16458154  0.35276572  1
  O2-  O542  1  0.34038441  0.17677266  0.63332524  1
  O2-  O543  1  0.32681498  0.42123423  0.03088450  1
  O2-  O544  1  0.30829374  0.38279074  0.35246900  1
  O2-  O545  1  0.32044329  0.40330902  0.68758077  1
  O2-  O546  1  0.32643893  0.66325866  0.02899665  1
  O2-  O547  1  0.33073732  0.67227578  0.35505510  1
  O2-  O548  1  0.33912611  0.66392482  0.68817524  1
  O2-  O549  1  0.33403708  0.92794702  0.02564834  1
  O2-  O550  1  0.33588509  0.92469511  0.35885175  1
  O2-  O551  1  0.29145263  0.97439872  0.70040849  1
  O2-  O552  1  0.57650623  0.17022318  0.03706636  1
  O2-  O553  1  0.56746377  0.19059733  0.36424987  1
  O2-  O554  1  0.59780025  0.17593246  0.67784780  1
  O2-  O555  1  0.58202522  0.40952493  0.04870937  1
  O2-  O556  1  0.58262017  0.40901701  0.35567076  1
  O2-  O557  1  0.57058689  0.42486340  0.69028908  1
  O2-  O558  1  0.58324956  0.67395272  0.01885289  1
  O2-  O559  1  0.57889645  0.67735995  0.36460627  1
  O2-  O560  1  0.56720929  0.63979336  0.68651078  1
  O2-  O561  1  0.56450736  0.91928817  0.03933319  1
  O2-  O562  1  0.58545384  0.92484771  0.36032011  1
  O2-  O563  1  0.61542593  0.93584844  0.67584651  1
  O2-  O564  1  0.84134687  0.16716841  0.05764979  1
  O2-  O565  1  0.82686927  0.16422424  0.35596772  1
  O2-  O566  1  0.85256413  0.17550043  0.67306619  1
  O2-  O567  1  0.83916353  0.40915964  0.02515495  1
  O2-  O568  1  0.80109339  0.40432531  0.34118327  1
  O2-  O569  1  0.85600921  0.43068986  0.68240041  1
  O2-  O570  1  0.81440670  0.66740664  0.01960836  1
  O2-  O571  1  0.82170046  0.66250089  0.34833955  1
  O2-  O572  1  0.82931743  0.68006448  0.67472266  1
  O2-  O573  1  0.81837087  0.90081043  0.02123213  1
  O2-  O574  1  0.79772780  0.83528412  0.35992357  1
  O2-  O575  1  0.87331517  0.90501172  0.67155999  1
