# generated using pymatgen
data_H2O
_symmetry_space_group_name_H-M   'P 1'
_cell_length_a   17.97588824
_cell_length_b   17.97780448
_cell_length_c   22.01006913
_cell_angle_alpha   89.96769619
_cell_angle_beta   90.02211539
_cell_angle_gamma   119.97810814
_symmetry_Int_Tables_number   1
_chemical_formula_structural   H2O
_chemical_formula_sum   'H384 O192'
_cell_volume   6161.33382805
_cell_formula_units_Z   192
loop_
 _symmetry_equiv_pos_site_id
 _symmetry_equiv_pos_as_xyz
  1  'x, y, z'
loop_
 _atom_type_symbol
 _atom_type_oxidation_number
  H+  1.0
  O2-  -2.0
loop_
 _atom_site_type_symbol
 _atom_site_label
 _atom_site_symmetry_multiplicity
 _atom_site_fract_x
 _atom_site_fract_y
 _atom_site_fract_z
 _atom_site_occupancy
  H+  H0  1  0.13876697  0.53270015  0.50874991  1
  H+  H1  1  0.76442504  0.87729932  0.16589503  1
  H+  H2  1  0.88284405  0.52564871  0.33253517  1
  H+  H3  1  0.85341437  0.12050876  0.67371358  1
  H+  H4  1  0.77505476  0.12576619  0.49542144  1
  H+  H5  1  0.50000278  0.61872276  0.34055132  1
  H+  H6  1  0.47225408  0.33914008  0.83761772  1
  H+  H7  1  0.38170879  0.53011520  0.50839725  1
  H+  H8  1  0.12564230  0.40315149  0.49494419  1
  H+  H9  1  0.22350832  0.12262669  0.67111098  1
  H+  H10  1  0.96953967  0.36594217  0.98375793  1
  H+  H11  1  0.35160476  0.63459878  0.34256375  1
  H+  H12  1  0.83005756  0.17957322  1.05812340  1
  H+  H13  1  0.60104462  0.18300573  0.03851417  1
  H+  H14  1  0.55299276  0.64040794  0.84064400  1
  H+  H15  1  0.46795173  0.60344083  0.18100635  1
  H+  H16  1  0.79259437  0.15397387  0.15748970  1
  H+  H17  1  0.37986313  0.35107452  0.16602999  1
  H+  H18  1  0.75273726  0.11687015  0.66823250  1
  H+  H19  1  0.04390074  0.85408355  0.82813055  1
  H+  H20  1  0.63680188  0.36591938  0.17168626  1
  H+  H21  1  0.86647922  0.64427009  0.49081501  1
  H+  H22  1  0.10703944  0.24482695  0.82141221  1
  H+  H23  1  0.64362566  0.12303915  0.50870908  1
  H+  H24  1  0.13295092  0.13568835  0.16698490  1
  H+  H25  1  0.54419147  0.13608014  0.19664995  1
  H+  H26  1  0.09795991  0.90612289  0.73059398  1
  H+  H27  1  0.17732095  0.07381673  0.40663651  1
  H+  H28  1  0.76858272  0.13285738  0.82678547  1
  H+  H29  1  0.58844536  0.17770088  0.44247898  1
  H+  H30  1  0.60645150  0.62612994  0.17641038  1
  H+  H31  1  0.32720939  0.67282651  0.43773469  1
  H+  H32  1  0.65004861  0.51352007  0.50857611  1
  H+  H33  1  0.72009275  0.61638652  0.33454110  1
  H+  H34  1  0.78113572  0.64514755  0.67425160  1
  H+  H35  1  0.98210489  0.62522346  0.50727763  1
  H+  H36  1  0.61111626  0.24029974  0.34622425  1
  H+  H37  1  0.64578557  0.40239516  0.99192570  1
  H+  H38  1  0.10072864  0.38535811  0.34664032  1
  H+  H39  1  0.89239295  0.37700483  0.17694134  1
  H+  H40  1  0.12655677  0.60987780  0.33083259  1
  H+  H41  1  0.26858163  0.64039258  0.01677272  1
  H+  H42  1  0.86236147  0.38654420  0.81389276  1
  H+  H43  1  0.01222553  0.38671552  0.34582208  1
  H+  H44  1  0.62875083  0.85292383  0.19126455  1
  H+  H45  1  0.23977645  0.12130992  0.35246593  1
  H+  H46  1  0.91794611  0.83297008  0.56671970  1
  H+  H47  1  0.10536315  0.88984348  0.32719807  1
  H+  H48  1  0.97304354  0.63356197  0.99643835  1
  H+  H49  1  0.29134850  0.03316062  0.60120360  1
  H+  H50  1  0.35513756  -0.03107499  1.00514836  1
  H+  H51  1  0.29733197  0.77554275  0.86568938  1
  H+  H52  1  0.41456022  0.62070816  0.84691024  1
  H+  H53  1  0.26789207  0.64511781  0.49772818  1
  H+  H54  1  0.12976217  0.60250206  0.18211072  1
  H+  H55  1  0.23848660  0.37900620  0.50232025  1
  H+  H56  1  0.26046533  0.38886886  0.34523966  1
  H+  H57  1  0.52901680  0.39127878  0.65875796  1
  H+  H58  1  0.38096506  0.76705219  0.99904891  1
  H+  H59  1  0.53585868  0.37466482  0.49430481  1
  H+  H60  1  0.11617094  0.72458098  0.66583931  1
  H+  H61  1  0.43614386  0.45373993  0.46505141  1
  H+  H62  1  0.02791529  0.13764861  0.34631278  1
  H+  H63  1  0.38504312  0.89249640  0.50652828  1
  H+  H64  1  0.11332560  0.63420017  0.67124914  1
  H+  H65  1  0.36588240  0.13641578  0.32736202  1
  H+  H66  1  0.88106490  0.53157222  0.65684929  1
  H+  H67  1  0.61290806  0.74530551  0.33677138  1
  H+  H68  1  0.63768537  0.23411288  0.82765548  1
  H+  H69  1  -0.02604192  0.12125268  0.83387544  1
  H+  H70  1  0.82038323  0.90217682  0.06764073  1
  H+  H71  1  0.11218452  0.38836895  0.81441784  1
  H+  H72  1  0.65849302  0.61573168  0.93842048  1
  H+  H73  1  0.51241523  0.87591400  0.34559783  1
  H+  H74  1  0.80854966  0.91666122  0.27741767  1
  H+  H75  1  0.36604724  0.51990699  0.33032033  1
  H+  H76  1  0.13706617  0.49098690  0.66277464  1
  H+  H77  1  0.27126166  0.38098769  0.14479811  1
  H+  H78  1  0.38948245  0.11983565  0.85636149  1
  H+  H79  1  0.12683111  0.26820248  0.33783248  1
  H+  H80  1  0.64246410  0.37615447  0.33155490  1
  H+  H81  1  0.39260456  0.36592339  0.64428091  1
  H+  H82  1  0.27182098  0.14144813  0.82783686  1
  H+  H83  1  0.64734864  0.52885216  0.66274710  1
  H+  H84  1  0.35298106  0.89886658  0.82337958  1
  H+  H85  1  0.62861918  0.77628971  0.50750755  1
  H+  H86  1  0.36047337  0.36857620  0.49290426  1
  H+  H87  1  0.15993052  0.86747052  0.92028848  1
  H+  H88  1  0.78168670  0.88860165  0.67035179  1
  H+  H89  1  0.36492237  0.24671375  0.49817493  1
  H+  H90  1  0.51751225  0.37742431  0.15590886  1
  H+  H91  1  0.15421420  0.62355766  0.79799771  1
  H+  H92  1  0.35571506  0.99958246  0.15913610  1
  H+  H93  1  0.07738468  0.74519704  0.80509372  1
  H+  H94  1  0.88798481  0.02282134  0.66351307  1
  H+  H95  1  0.16751429  0.12688460  0.91217135  1
  H+  H96  1  0.85152723  0.88178117  0.32216693  1
  H+  H97  1  0.48442220  0.35811844  0.32487960  1
  H+  H98  1  0.64900060  1.00849550  0.34129938  1
  H+  H99  1  0.20337156  0.84111051  0.15638352  1
  H+  H100  1  0.39128954  0.02416559  0.32119378  1
  H+  H101  1  0.87036670  0.24836160  0.15152191  1
  H+  H102  1  0.36493910  0.23253852  0.67197458  1
  H+  H103  1  0.38021959  0.26119413  0.84430954  1
  H+  H104  1  0.36945506  0.76134444  0.17788579  1
  H+  H105  1  0.21263672  0.85903515  0.29378754  1
  H+  H106  1  0.64194149  0.84673047  -0.02690903  1
  H+  H107  1  0.39553303  0.03663391  0.85215401  1
  H+  H108  1  0.89283264  0.03038187  0.32865464  1
  H+  H109  1  0.93084204  0.08739536  0.26979620  1
  H+  H110  1  0.12017561  0.14343630  0.35827250  1
  H+  H111  1  0.19150636  0.99471223  1.04898415  1
  H+  H112  1  0.66441621  0.03653716  0.18633174  1
  H+  H113  1  0.13609906  0.62153387  0.50917416  1
  H+  H114  1  0.36329434  0.92740616  0.44586583  1
  H+  H115  1  0.10916082  0.14339227  0.67250118  1
  H+  H116  1  0.39869801  0.82568521  0.27382889  1
  H+  H117  1  0.46184471  0.09317839  0.00739010  1
  H+  H118  1  0.21847162  0.91229970  0.82583537  1
  H+  H119  1  0.36238558  0.23151250  1.00356683  1
  H+  H120  1  0.35722897  0.63647208  0.01579330  1
  H+  H121  1  0.37325464  0.64694901  0.67040564  1
  H+  H122  1  0.03605438  0.88944523  0.67370663  1
  H+  H123  1  0.14335158  0.86131942  0.65605376  1
  H+  H124  1  0.63810181  0.00627655  0.98686291  1
  H+  H125  1  0.85334831  0.64318479  0.00774957  1
  H+  H126  1  0.14960073  0.28548578  0.50221094  1
  H+  H127  1  0.53316636  0.64264823  0.67586225  1
  H+  H128  1  0.23463352  0.61790628  0.66099100  1
  H+  H129  1  0.88865425  0.77533033  0.99632390  1
  H+  H130  1  0.61265664  0.47794523  0.34809332  1
  H+  H131  1  0.08572195  0.67411243  0.43329387  1
  H+  H132  1  0.27557741  0.38829158  0.65126446  1
  H+  H133  1  0.11339885  0.75170191  0.15773325  1
  H+  H134  1  0.73652414  0.37861941  0.83455411  1
  H+  H135  1  0.50164003  0.12761961  0.51176826  1
  H+  H136  1  0.85792826  0.13256849  0.82216892  1
  H+  H137  1  0.64777841  0.61783464  0.66079386  1
  H+  H138  1  0.14455851  0.89403833  0.98632459  1
  H+  H139  1  0.86337705  0.39181836  0.34436834  1
  H+  H140  1  0.59406891  0.86252651  0.34793726  1
  H+  H141  1  0.22552683  0.21091760  0.87665613  1
  H+  H142  1  0.37841096  0.38546318  0.84796364  1
  H+  H143  1  0.52864136  0.88999076  0.50054543  1
  H+  H144  1  0.62693521  0.37206945  0.49886498  1
  H+  H145  1  0.26183611  0.63370794  0.34469538  1
  H+  H146  1  0.21598398  0.13599334  -0.00430121  1
  H+  H147  1  0.04767401  0.18234836  0.02803714  1
  H+  H148  1  0.26659928  0.88225994  -0.00516057  1
  H+  H149  1  0.58305712  0.42318635  0.10068966  1
  H+  H150  1  0.88031157  0.77351394  0.50784472  1
  H+  H151  1  0.37771221  0.18667845  0.41972215  1
  H+  H152  1  0.88712468  0.37129556  0.66908294  1
  H+  H153  1  0.88028211  0.14790450  0.34329595  1
  H+  H154  1  0.11300916  -0.01986018  0.34378487  1
  H+  H155  1  0.13573980  0.26724034  0.16046534  1
  H+  H156  1  0.52337232  0.15205918  0.34259344  1
  H+  H157  1  0.13701346  0.52751386  0.79969847  1
  H+  H158  1  0.64105915  0.36551459  0.65034114  1
  H+  H159  1  0.51046205  0.65087426  0.49463784  1
  H+  H160  1  0.11108944  0.75749144  -0.00810783  1
  H+  H161  1  0.59359931  0.66474352  0.73484015  1
  H+  H162  1  0.41294861  0.03453443  0.50769186  1
  H+  H163  1  0.48445351  0.87188442  0.66708766  1
  H+  H164  1  0.86745197  0.48411030  0.49836048  1
  H+  H165  1  0.98544137  0.61849587  0.83990509  1
  H+  H166  1  0.12392123  0.73781813  0.49047803  1
  H+  H167  1  0.26679983  0.63076294  0.17020990  1
  H+  H168  1  0.77870271  0.40428126  0.00567223  1
  H+  H169  1  0.23165775  0.37450755  0.84431181  1
  H+  H170  1  0.15823666  0.92036318  0.48834704  1
  H+  H171  1  0.60748635  0.17861606  0.76610121  1
  H+  H172  1  0.87865026  0.52472156  0.17415781  1
  H+  H173  1  0.88385966  0.37005106  -0.01724030  1
  H+  H174  1  0.70806329  0.64551781  0.83212404  1
  H+  H175  1  0.76872425  0.65323018  0.00736813  1
  H+  H176  1  0.88355418  0.27256995  0.82629692  1
  H+  H177  1  0.58234104  0.98164500  0.10405947  1
  H+  H178  1  0.13966689  0.27662425  0.65050957  1
  H+  H179  1  0.17353325  0.33810376  0.58917042  1
  H+  H180  1  0.63487243  0.89572754  0.82070356  1
  H+  H181  1  -0.02265514  0.86449065  -0.00269534  1
  H+  H182  1  0.96964544  0.86601393  0.32908874  1
  H+  H183  1  0.10344648  0.72338929  0.33300997  1
  H+  H184  1  0.12661851  0.15952973  0.50266229  1
  H+  H185  1  0.30880396  0.10291241  0.17337435  1
  H+  H186  1  0.39105172  0.77458035  0.51521915  1
  H+  H187  1  0.28588307  0.89631564  0.37144535  1
  H+  H188  1  0.61773570  0.88985596  0.67272577  1
  H+  H189  1  0.16455556  0.03403083  0.18279383  1
  H+  H190  1  0.74118645  0.86148092  0.98703766  1
  H+  H191  1  0.97156835  0.86696569  0.17838712  1
  H+  H192  1  0.41887323  0.09619846  0.13950410  1
  H+  H193  1  0.64670880  0.77883948  0.66298057  1
  H+  H194  1  0.63292789  0.51637697  0.17885869  1
  H+  H195  1  0.13361782  0.14848082  0.00637491  1
  H+  H196  1  0.88055075  0.77464988  0.33142291  1
  H+  H197  1  0.85747397  0.72705092  0.16539123  1
  H+  H198  1  0.10255054  0.48356080  0.00792146  1
  H+  H199  1  0.27839055  0.39669727  0.00253053  1
  H+  H200  1  0.36427534  0.88455998  0.34715954  1
  H+  H201  1  0.85347075  0.87777371  0.16331560  1
  H+  H202  1  0.37047571  0.89812141  0.67120308  1
  H+  H203  1  0.13904087  0.02922649  0.66990960  1
  H+  H204  1  0.10889544  0.38215539  0.14578541  1
  H+  H205  1  0.62448846  0.97813938  0.82547106  1
  H+  H206  1  0.60160347  0.09803080  1.02733962  1
  H+  H207  1  0.70394450  0.83785154  0.33411333  1
  H+  H208  1  0.41690214  0.53544733  0.86275238  1
  H+  H209  1  0.39378488  0.78347502  0.66753475  1
  H+  H210  1  0.60133485  0.34716892  0.81333888  1
  H+  H211  1  0.38634509  0.53150434  1.00110357  1
  H+  H212  1  0.37366249  0.23058898  0.32957716  1
  H+  H213  1  0.34036242  0.86975144  0.15447776  1
  H+  H214  1  0.35047136  -0.02399273  0.66089767  1
  H+  H215  1  0.86868400  0.48936176  1.00851791  1
  H+  H216  1  0.88288690  0.03200643  0.98840549  1
  H+  H217  1  0.16603354  0.05573815  0.51189838  1
  H+  H218  1  0.01454222  0.63617985  0.34066536  1
  H+  H219  1  0.76884610  0.39584543  0.66156791  1
  H+  H220  1  0.66823902  0.33230419  0.58957851  1
  H+  H221  1  0.85837878  0.87964838  0.50455007  1
  H+  H222  1  0.87099074  0.09415383  0.50605565  1
  H+  H223  1  0.63280239  0.63533012  1.00446884  1
  H+  H224  1  0.52020745  0.64261657  1.02506662  1
  H+  H225  1  0.01980673  0.38167333  0.80695775  1
  H+  H226  1  0.14573598  0.28835304  -0.00119516  1
  H+  H227  1  0.62483375  0.24064216  0.50255842  1
  H+  H228  1  -0.02773185  0.11800242  0.66087104  1
  H+  H229  1  0.14541718  0.29529989  0.09546780  1
  H+  H230  1  0.06824769  0.67506954  0.75728923  1
  H+  H231  1  0.63700631  1.02105993  0.65780947  1
  H+  H232  1  0.13621005  0.63990677  1.00051741  1
  H+  H233  1  0.76609066  0.88000439  0.50378041  1
  H+  H234  1  0.86395922  -0.01270896  0.51006779  1
  H+  H235  1  0.36596940  0.25694209  0.17108570  1
  H+  H236  1  0.11550522  0.47332535  0.16184065  1
  H+  H237  1  0.12502638  0.51924517  0.33402240  1
  H+  H238  1  0.29012605  0.62625280  0.81617185  1
  H+  H239  1  0.45444121  0.85304726  0.17930580  1
  H+  H240  1  0.89975293  0.78060540  0.66476415  1
  H+  H241  1  0.85563063  0.64095759  0.34260766  1
  H+  H242  1  0.72498760  0.35954501  0.51018997  1
  H+  H243  1  0.63739354  1.02998442  0.50740059  1
  H+  H244  1  0.57820331  0.66262536  0.08425865  1
  H+  H245  1  -0.01375679  0.37819253  0.52072994  1
  H+  H246  1  0.82893369  0.63173647  0.82632326  1
  H+  H247  1  -0.02471853  0.61630270  0.65851272  1
  H+  H248  1  0.17352057  0.58911095  0.60077358  1
  H+  H249  1  0.13556168  0.39171872  0.65846485  1
  H+  H250  1  0.60574766  0.71517995  0.17874406  1
  H+  H251  1  0.88208475  0.98101200  0.82285001  1
  H+  H252  1  0.16280512  0.60004715  0.94738271  1
  H+  H253  1  0.14175716  0.37608195  0.98955664  1
  H+  H254  1  0.53217985  0.40979934  0.00591341  1
  H+  H255  1  0.75829157  0.86777862  0.83213807  1
  H+  H256  1  0.86124843  0.88352988  0.00823275  1
  H+  H257  1  0.37143006  0.61504622  0.50761087  1
  H+  H258  1  0.90234106  0.87038150  0.66081336  1
  H+  H259  1  0.23138479  0.86017179  0.65894660  1
  H+  H260  1  0.40818093  0.15824639  0.48090984  1
  H+  H261  1  0.12945145  1.01543231  0.01381184  1
  H+  H262  1  0.38376917  0.85723973  -0.00600397  1
  H+  H263  1  0.37965303  0.60544916  0.17616167  1
  H+  H264  1  0.88556919  0.27485948  0.33217483  1
  H+  H265  1  0.37064873  0.76550252  0.33327222  1
  H+  H266  1  0.89655508  0.37361313  0.52070406  1
  H+  H267  1  0.87083771  0.64615199  0.67655322  1
  H+  H268  1  0.62334781  0.23575013  0.67124177  1
  H+  H269  1  0.10342219  0.88447242  0.15977164  1
  H+  H270  1  0.85030514  0.22760179  -0.00616423  1
  H+  H271  1  0.92479839  0.33851953  0.62067728  1
  H+  H272  1  0.61733210  0.50416126  0.00755081  1
  H+  H273  1  0.87927464  0.11796622  0.98575105  1
  H+  H274  1  0.91350041  0.08548370  0.89312096  1
  H+  H275  1  0.89665312  0.77621441  0.83786001  1
  H+  H276  1  0.00257379  0.61859074  0.16241617  1
  H+  H277  1  0.89258461  0.01998500  0.17737346  1
  H+  H278  1  0.39642550  0.53547676  0.65431322  1
  H+  H279  1  0.64476992  0.11841860  0.83757815  1
  H+  H280  1  0.66341564  0.12219264  0.19827926  1
  H+  H281  1  0.39560266  0.37499615  0.99327211  1
  H+  H282  1  0.15145598  0.32745673  0.27871810  1
  H+  H283  1  0.97937786  0.37283580  0.17617988  1
  H+  H284  1  0.89195133  0.89574399  0.82259400  1
  H+  H285  1  0.59111371  0.61795063  0.34321974  1
  H+  H286  1  0.64465394  0.28124078  0.18064793  1
  H+  H287  1  0.63692332  0.31111149  0.98449178  1
  H+  H288  1  0.42518048  0.59973260  0.59955778  1
  H+  H289  1  0.82491844  0.42775109  0.72332105  1
  H+  H290  1  0.06728628  0.50156800  0.89064219  1
  H+  H291  1  0.38967147  0.07967367  0.58354236  1
  H+  H292  1  0.42690103  0.33889345  0.93800984  1
  H+  H293  1  0.37205754  0.44250706  0.79699907  1
  H+  H294  1  0.58195056  0.91590939  0.43863697  1
  H+  H295  1  0.32532899  0.66305927  0.10954925  1
  H+  H296  1  0.67106533  0.98760301  0.09963321  1
  H+  H297  1  0.33802944  0.42139763  0.06239771  1
  H+  H298  1  0.82646333  0.67451180  0.76372536  1
  H+  H299  1  0.61856003  0.14563664  0.67338774  1
  H+  H300  1  0.91421756  0.33612620  0.27261240  1
  H+  H301  1  0.07314044  0.54618634  0.88901703  1
  H+  H302  1  0.77512451  0.39368987  0.16007068  1
  H+  H303  1  0.58274600  0.14416077  0.13019492  1
  H+  H304  1  0.40749142  0.07092465  0.25678412  1
  H+  H305  1  0.92062628  0.59662750  0.56577207  1
  H+  H306  1  0.35902774  0.46917656  0.16016675  1
  H+  H307  1  0.67047556  0.83546098  0.60228336  1
  H+  H308  1  0.33466333  0.41815209  0.39515622  1
  H+  H309  1  0.34481335  0.66941532  0.73244823  1
  H+  H310  1  0.90360243  0.06821146  0.56964655  1
  H+  H311  1  0.51837842  0.86096163  0.98626867  1
  H+  H312  1  0.38271306  0.81514210  0.90303705  1
  H+  H313  1  0.88177925  0.61628622  0.17454749  1
  H+  H314  1  0.27918977  0.22859156  0.53106516  1
  H+  H315  1  0.57956491  0.87848672  0.04193719  1
  H+  H316  1  0.63898523  0.87009738  0.51150720  1
  H+  H317  1  0.86971142  0.47813343  0.82121777  1
  H+  H318  1  0.16771315  0.09678601  0.57676970  1
  H+  H319  1  0.52448899  0.27924048  0.77411943  1
  H+  H320  1  0.08182608  0.18324493  0.72689988  1
  H+  H321  1  0.40933474  0.07839678  0.94469629  1
  H+  H322  1  0.83980988  0.42316586  0.44089118  1
  H+  H323  1  0.66184496  0.57944042  0.27499771  1
  H+  H324  1  0.05144771  0.60335925  0.10768248  1
  H+  H325  1  0.09143371  0.18353121  0.44286152  1
  H+  H326  1  0.42814225  0.32919700  0.26338451  1
  H+  H327  1  0.09253556  0.41567835  0.72036108  1
  H+  H328  1  0.25836234  0.27838074  0.24896204  1
  H+  H329  1  0.69553509  0.83670657  0.91193595  1
  H+  H330  1  0.68784964  0.07280542  0.28553972  1
  H+  H331  1  0.82847348  0.67148021  0.40297116  1
  H+  H332  1  0.66604888  0.08241229  0.89884898  1
  H+  H333  1  0.39977921  0.57861072  0.27034714  1
  H+  H334  1  0.34710129  0.13612575  0.66614909  1
  H+  H335  1  0.13988213  0.81780313  0.24604349  1
  H+  H336  1  0.82726867  0.67033971  0.10489397  1
  H+  H337  1  0.08742769  0.71390067  0.05695895  1
  H+  H338  1  0.16659165  0.34508429  0.89950802  1
  H+  H339  1  0.08519421  0.42730930  0.43873292  1
  H+  H340  1  0.72167056  0.60676176  0.17853278  1
  H+  H341  1  0.22216154  0.23339787  0.25354370  1
  H+  H342  1  0.11001098  0.93662090  0.43475318  1
  H+  H343  1  0.59392144  0.92256687  0.73362253  1
  H+  H344  1  0.42576439  0.83479549  0.57574903  1
  H+  H345  1  0.11176448  0.16072745  0.82486639  1
  H+  H346  1  0.67939059  0.36211380  0.89534546  1
  H+  H347  1  0.93431867  0.83490312  0.89675527  1
  H+  H348  1  0.33101847  0.16487409  0.76789403  1
  H+  H349  1  0.91548092  0.33517596  0.88375470  1
  H+  H350  1  0.33288934  0.41223690  0.70899905  1
  H+  H351  1  0.57547132  0.39876630  0.72141927  1
  H+  H352  1  0.81785172  0.15109885  0.73517752  1
  H+  H353  1  0.67895328  0.57744870  0.56530280  1
  H+  H354  1  0.65233191  0.81747896  0.25013521  1
  H+  H355  1  0.35025096  0.13754017  1.00362206  1
  H+  H356  1  0.42800333  0.60048107  0.94755333  1
  H+  H357  1  0.91629950  0.59158911  0.93826734  1
  H+  H358  1  0.18041814  0.83850787  0.56232905  1
  H+  H359  1  0.08627494  0.93802712  0.11113602  1
  H+  H360  1  0.39615286  0.31026909  0.59086263  1
  H+  H361  1  0.31376496  0.89671225  0.09093149  1
  H+  H362  1  0.84493403  0.91798893  0.72856186  1
  H+  H363  1  0.90928116  0.58387632  0.27224064  1
  H+  H364  1  0.67022787  0.08438458  0.59772538  1
  H+  H365  1  0.83604049  0.42430285  0.10073289  1
  H+  H366  1  0.67446841  0.34873328  0.27170055  1
  H+  H367  1  0.24816628  0.86990752  0.50781256  1
  H+  H368  1  0.10087095  0.16680389  0.10803341  1
  H+  H369  1  0.77616981  0.39540708  0.34506791  1
  H+  H370  1  -0.01304416  0.10119990  0.17909174  1
  H+  H371  1  0.77247097  0.63356866  0.49324005  1
  H+  H372  1  0.16034476  0.57528516  0.24210183  1
  H+  H373  1  0.91133296  0.83270441  0.23723351  1
  H+  H374  1  0.78616373  0.13414398  0.35001491  1
  H+  H375  1  0.72050823  0.10356851  0.99549300  1
  H+  H376  1  0.84027039  0.15688542  0.43840754  1
  H+  H377  1  0.34042113  0.93824549  0.76263287  1
  H+  H378  1  0.66800439  0.77654582  0.83506760  1
  H+  H379  1  0.07289726  0.41936002  0.06324924  1
  H+  H380  1  0.97168532  0.54208479  0.88059688  1
  H+  H381  1  0.56663867  0.66978545  0.43493702  1
  H+  H382  1  0.36780535  0.71815147  0.82773565  1
  H+  H383  1  0.58849044  0.41281471  0.40519219  1
  O2-  O384  1  0.09300685  0.15507334  0.15320027  1
  O2-  O385  1  0.10194812  0.19477495  0.48716775  1
  O2-  O386  1  0.07786513  0.18466775  0.80553373  1
  O2-  O387  1  0.07963231  0.41687178  0.14140206  1
  O2-  O388  1  0.09488344  0.43425226  0.48359730  1
  O2-  O389  1  0.08037049  0.41171825  0.79149284  1
  O2-  O390  1  0.06239129  0.64005805  0.14307483  1
  O2-  O391  1  0.08935838  0.67596296  0.47854201  1
  O2-  O392  1  0.06703565  0.68579506  0.80196446  1
  O2-  O393  1  0.08319374  0.92669789  0.15537859  1
  O2-  O394  1  0.14622603  0.96421159  0.47063812  1
  O2-  O395  1  0.09411771  0.85461997  0.80698883  1
  O2-  O396  1  0.27801901  0.13328499  0.16057074  1
  O2-  O397  1  0.40232208  0.20509248  0.46134491  1
  O2-  O398  1  0.33148290  0.16403464  0.81343234  1
  O2-  O399  1  0.33497736  0.41195437  0.13969015  1
  O2-  O400  1  0.37510766  0.42624490  0.47483397  1
  O2-  O401  1  0.35452208  0.42504570  0.83878966  1
  O2-  O402  1  0.32759908  0.66388472  0.15512877  1
  O2-  O403  1  0.32918604  0.67347421  0.48319599  1
  O2-  O404  1  0.35394451  0.66068082  0.81216117  1
  O2-  O405  1  0.30874593  0.89710379  0.13665316  1
  O2-  O406  1  0.35716877  0.92556763  0.49062810  1
  O2-  O407  1  0.33382488  0.93805975  0.80782210  1
  O2-  O408  1  0.59747330  0.16355641  0.17323173  1
  O2-  O409  1  0.59380725  0.17561974  0.48766863  1
  O2-  O410  1  0.61118494  0.17524132  0.81171872  1
  O2-  O411  1  0.57971858  0.41311797  0.14547034  1
  O2-  O412  1  0.59499726  0.40704746  0.48017646  1
  O2-  O413  1  0.54874149  0.33784982  0.78947060  1
  O2-  O414  1  0.57405906  0.65541373  0.16314883  1
  O2-  O415  1  0.56969315  0.68345552  0.47879581  1
  O2-  O416  1  0.61194468  0.66809539  0.82124410  1
  O2-  O417  1  0.61493754  0.95532827  0.11933992  1
  O2-  O418  1  0.58813804  0.92307174  0.48381091  1
  O2-  O419  1  0.59920248  0.91976169  0.80709110  1
  O2-  O420  1  0.83907863  0.19246103  0.12976314  1
  O2-  O421  1  0.83448889  0.14288544  0.48257571  1
  O2-  O422  1  0.82727901  0.16249676  0.80667738  1
  O2-  O423  1  0.83648299  0.42596413  0.14610112  1
  O2-  O424  1  0.83981890  0.42284422  0.48601214  1
  O2-  O425  1  0.83316108  0.42014359  0.80371431  1
  O2-  O426  1  0.82784304  0.66646275  0.15010022  1
  O2-  O427  1  0.83288823  0.67119222  0.47595672  1
  O2-  O428  1  0.81760222  0.67546976  0.80978260  1
  O2-  O429  1  0.82172522  0.90581031  0.14620249  1
  O2-  O430  1  0.82801791  0.91247386  0.49063282  1
  O2-  O431  1  0.85650179  0.92037638  0.80746924  1
  O2-  O432  1  0.20000629  0.09372758  0.19883852  1
  O2-  O433  1  0.17897495  0.11018196  0.53270436  1
  O2-  O434  1  0.18704083  0.14984170  0.86916659  1
  O2-  O435  1  0.15868165  0.32195880  0.13692376  1
  O2-  O436  1  0.17992661  0.34966863  0.51793653  1
  O2-  O437  1  0.16965354  0.34682490  0.85346861  1
  O2-  O438  1  0.16359569  0.57612212  0.19612581  1
  O2-  O439  1  0.16784666  0.59319895  0.52576571  1
  O2-  O440  1  0.18213656  0.58901068  0.80091074  1
  O2-  O441  1  0.14179403  0.81293455  0.16992645  1
  O2-  O442  1  0.18541557  0.84279142  0.51703793  1
  O2-  O443  1  0.16719718  0.90774929  0.84748693  1
  O2-  O444  1  0.38388212  0.06122153  0.17337652  1
  O2-  O445  1  0.43652677  0.09483472  0.52178223  1
  O2-  O446  1  0.41775328  0.09073193  0.87545453  1
  O2-  O447  1  0.40829617  0.31790193  0.17873419  1
  O2-  O448  1  0.33854268  0.27599862  0.52489315  1
  O2-  O449  1  0.41722069  0.32203143  0.85945347  1
  O2-  O450  1  0.40533844  0.57136268  0.19186564  1
  O2-  O451  1  0.40443702  0.58822956  0.52509343  1
  O2-  O452  1  0.44888127  0.59875039  0.86853600  1
  O2-  O453  1  0.39437589  0.82365638  0.19179402  1
  O2-  O454  1  0.42650469  0.83494536  0.53005365  1
  O2-  O455  1  0.35947510  0.80618770  0.86044540  1
  O2-  O456  1  0.69719384  0.09306184  0.20560411  1
  O2-  O457  1  0.67071201  0.08913555  0.52456156  1
  O2-  O458  1  0.67091986  0.08265351  0.85427710  1
  O2-  O459  1  0.67376522  0.34363017  0.18858194  1
  O2-  O460  1  0.66420569  0.32930138  0.52329375  1
  O2-  O461  1  0.67661446  0.34805348  0.85158829  1
  O2-  O462  1  0.66228244  0.57596517  0.19558856  1
  O2-  O463  1  0.67967240  0.57512213  0.52049365  1
  O2-  O464  1  0.65079195  0.62270642  0.85240070  1
  O2-  O465  1  0.66070668  0.82495743  0.20403292  1
  O2-  O466  1  0.66457680  0.83532881  0.52676812  1
  O2-  O467  1  0.69742213  0.83793749  0.84866827  1
  O2-  O468  1  0.92854563  0.07596335  0.19710434  1
  O2-  O469  1  0.89972200  0.05996828  0.52481437  1
  O2-  O470  1  0.91344736  0.08257436  0.84739279  1
  O2-  O471  1  0.91988224  0.34470039  0.19298385  1
  O2-  O472  1  0.92882684  0.34797297  0.53935330  1
  O2-  O473  1  0.91630520  0.33446017  0.83841971  1
  O2-  O474  1  0.91187464  0.58551200  0.18982469  1
  O2-  O475  1  0.92097313  0.59517031  0.52033049  1
  O2-  O476  1  0.94007865  0.56993777  0.86611347  1
  O2-  O477  1  0.91052111  0.83255827  0.19139552  1
  O2-  O478  1  0.90892895  0.83412742  0.52247987  1
  O2-  O479  1  0.94030564  0.83507480  0.85182716  1
  O2-  O480  1  0.17619665  0.08856581  0.36395512  1
  O2-  O481  1  0.16278913  0.08996100  0.65624313  1
  O2-  O482  1  0.15343278  0.10920379  0.98511514  1
  O2-  O483  1  0.15195307  0.33006233  0.32289693  1
  O2-  O484  1  0.17433173  0.33792682  0.63561797  1
  O2-  O485  1  0.17331825  0.34734182  0.97513938  1
  O2-  O486  1  0.15766277  0.57957172  0.31723045  1
  O2-  O487  1  0.17362745  0.58348153  0.64655111  1
  O2-  O488  1  0.16233170  0.60335960  0.99164761  1
  O2-  O489  1  0.15018776  0.82696617  0.29109566  1
  O2-  O490  1  0.17183016  0.82906989  0.64132783  1
  O2-  O491  1  0.16018601  0.85496102  0.96455973  1
  O2-  O492  1  0.41666534  0.08086179  0.30082491  1
  O2-  O493  1  0.34813219  0.05981070  0.61994457  1
  O2-  O494  1  0.40337286  0.07028688  0.99137348  1
  O2-  O495  1  0.42530217  0.32437965  0.30802362  1
  O2-  O496  1  0.41797847  0.32979710  0.63327246  1
  O2-  O497  1  0.42979548  0.34659356  0.98295000  1
  O2-  O498  1  0.39870783  0.58224620  0.31562479  1
  O2-  O499  1  0.42891195  0.59782058  0.64511677  1
  O2-  O500  1  0.41538460  0.59487835  0.99193710  1
  O2-  O501  1  0.40185731  0.82740238  0.31886837  1
  O2-  O502  1  0.42352892  0.84351363  0.65167449  1
  O2-  O503  1  0.41165956  0.82478109  0.97834334  1
  O2-  O504  1  0.68788029  0.06927162  0.33023824  1
  O2-  O505  1  0.67131480  0.08259431  0.64406237  1
  O2-  O506  1  0.65693852  0.06818501  0.98535185  1
  O2-  O507  1  0.67519051  0.34745426  0.31664510  1
  O2-  O508  1  0.67180380  0.33530176  0.63775993  1
  O2-  O509  1  0.67619893  0.37129221  0.97527671  1
  O2-  O510  1  0.65906554  0.58206075  0.32013756  1
  O2-  O511  1  0.68087924  0.58959474  0.64836618  1
  O2-  O512  1  0.66552553  0.60995534  0.98238640  1
  O2-  O513  1  0.64245294  0.80742347  0.32178092  1
  O2-  O514  1  0.67573125  0.83916169  0.64807382  1
  O2-  O515  1  0.68585299  0.83035488  0.96052124  1
  O2-  O516  1  0.93021032  0.09071571  0.31601995  1
  O2-  O517  1  0.91056330  0.08346002  0.64860889  1
  O2-  O518  1  0.91147702  0.08984595  0.97056820  1
  O2-  O519  1  0.91326986  0.33634887  0.31793840  1
  O2-  O520  1  0.91889134  0.33999580  0.66551492  1
  O2-  O521  1  0.91092545  0.33810353  0.96538729  1
  O2-  O522  1  0.91174041  0.58700394  0.31728225  1
  O2-  O523  1  0.91533554  0.59458986  0.64439617  1
  O2-  O524  1  0.91246986  0.59615289  0.98327160  1
  O2-  O525  1  0.90932953  0.83416565  0.31332251  1
  O2-  O526  1  0.93453647  0.84070425  0.64904618  1
  O2-  O527  1  0.92029538  0.83583948  0.97893227  1
  O2-  O528  1  0.10882620  0.20937390  0.03780027  1
  O2-  O529  1  0.08708001  0.17403071  0.36403915  1
  O2-  O530  1  0.08136544  0.17869019  0.68153925  1
  O2-  O531  1  0.07353927  0.42183308  0.01771520  1
  O2-  O532  1  0.07363928  0.41896273  0.36071112  1
  O2-  O533  1  0.10831684  0.42625441  0.67514509  1
  O2-  O534  1  0.08457716  0.70005273  0.01371432  1
  O2-  O535  1  0.07696314  0.66663443  0.35315608  1
  O2-  O536  1  0.08239055  0.66495348  0.68290930  1
  O2-  O537  1  0.13265834  0.96547655  0.03333965  1
  O2-  O538  1  0.07642314  0.91659589  0.34871504  1
  O2-  O539  1  0.09818010  0.91988512  0.68708310  1
  O2-  O540  1  0.32038263  0.17020335  0.01076382  1
  O2-  O541  1  0.34102806  0.16906409  0.34670400  1
  O2-  O542  1  0.33167624  0.17372553  0.69024621  1
  O2-  O543  1  0.33957554  0.42598588  0.01685427  1
  O2-  O544  1  0.32303543  0.42461226  0.35239084  1
  O2-  O545  1  0.33777956  0.42097400  0.66527584  1
  O2-  O546  1  0.32860353  0.66867414  0.03213719  1
  O2-  O547  1  0.32290804  0.66665264  0.35885495  1
  O2-  O548  1  0.33998256  0.67326744  0.68749037  1
  O2-  O549  1  0.32318801  0.90488521  0.01523600  1
  O2-  O550  1  0.34773274  0.92656175  0.36499320  1
  O2-  O551  1  0.33406674  0.92281316  0.68465041  1
  O2-  O552  1  0.57079451  0.12307493  0.05133157  1
  O2-  O553  1  0.57802723  0.18238237  0.36462407  1
  O2-  O554  1  0.59430848  0.17855615  0.69213496  1
  O2-  O555  1  0.59316485  0.44307312  0.02121363  1
  O2-  O556  1  0.58544427  0.41604331  0.35941925  1
  O2-  O557  1  0.58596621  0.42073251  0.67897079  1
  O2-  O558  1  0.58058579  0.67052798  0.03940741  1
  O2-  O559  1  0.56023569  0.64828324  0.35706816  1
  O2-  O560  1  0.59399643  0.67034418  0.69023576  1
  O2-  O561  1  0.58060008  0.88484472  -0.00236411  1
  O2-  O562  1  0.57152389  0.90039770  0.36187281  1
  O2-  O563  1  0.58858996  0.92132440  0.68752613  1
  O2-  O564  1  0.82219784  0.16931179  0.01239899  1
  O2-  O565  1  0.84856847  0.17540814  0.36023156  1
  O2-  O566  1  0.81600019  0.14471702  0.68885409  1
  O2-  O567  1  0.83861498  0.42758676  0.02060986  1
  O2-  O568  1  0.83738402  0.42613919  0.35950631  1
  O2-  O569  1  0.82881967  0.43391876  0.67857875  1
  O2-  O570  1  0.82867563  0.67805727  0.02407573  1
  O2-  O571  1  0.82644844  0.67257487  0.35662605  1
  O2-  O572  1  0.84057887  0.67684671  0.69257460  1
  O2-  O573  1  0.82436486  0.90718479  0.02202885  1
  O2-  O574  1  0.81547170  0.91051236  0.32076192  1
  O2-  O575  1  0.84366938  0.91996324  0.68331398  1
