# generated using pymatgen
data_H2O
_symmetry_space_group_name_H-M   'P 1'
_cell_length_a   17.98614387
_cell_length_b   17.99694148
_cell_length_c   21.99881172
_cell_angle_alpha   90.00560143
_cell_angle_beta   89.99880903
_cell_angle_gamma   119.99347584
_symmetry_Int_Tables_number   1
_chemical_formula_structural   H2O
_chemical_formula_sum   'H384 O192'
_cell_volume   6167.30131484
_cell_formula_units_Z   192
loop_
 _symmetry_equiv_pos_site_id
 _symmetry_equiv_pos_as_xyz
  1  'x, y, z'
loop_
 _atom_type_symbol
 _atom_type_oxidation_number
  H+  1.0
  O2-  -2.0
loop_
 _atom_site_type_symbol
 _atom_site_label
 _atom_site_symmetry_multiplicity
 _atom_site_fract_x
 _atom_site_fract_y
 _atom_site_fract_z
 _atom_site_occupancy
  H+  H0  1  0.40030974  0.27480831  0.85173398  1
  H+  H1  1  0.65227523  0.46063485  0.80833155  1
  H+  H2  1  0.13491777  0.02431135  0.65410851  1
  H+  H3  1  0.85238973  0.73603289  0.48752084  1
  H+  H4  1  0.87962875  0.64331197  0.99786315  1
  H+  H5  1  0.38497632  0.53246176  0.98035028  1
  H+  H6  1  0.89104726  0.86887453  0.50558661  1
  H+  H7  1  0.05905363  0.68155679  0.81420930  1
  H+  H8  1  0.87021555  0.89659217  0.67532654  1
  H+  H9  1  0.52601539  0.63047609  0.34917870  1
  H+  H10  1  0.36014304  0.86285209  0.32311899  1
  H+  H11  1  0.88777236  0.77675624  0.98802148  1
  H+  H12  1  0.27399889  0.38588253  0.33965346  1
  H+  H13  1  0.28368604  0.38527709  -0.01825734  1
  H+  H14  1  0.13882906  0.87382856  0.65498023  1
  H+  H15  1  0.91545493  0.08450614  0.26921019  1
  H+  H16  1  0.85121963  0.87336972  0.16294118  1
  H+  H17  1  0.36803210  0.64720551  0.16267097  1
  H+  H18  1  0.19069319  0.38459201  0.81742124  1
  H+  H19  1  0.38516894  0.10910155  0.79903309  1
  H+  H20  1  0.16030860  0.32987457  0.57988207  1
  H+  H21  1  0.89818515  0.31798971  0.26312319  1
  H+  H22  1  0.71909214  0.86137334  0.18332947  1
  H+  H23  1  0.84454279  0.44426207  0.68821572  1
  H+  H24  1  0.76398574  0.63604357  0.66476255  1
  H+  H25  1  0.22368790  0.09549351  0.32400936  1
  H+  H26  1  0.42343816  0.07985931  0.09404693  1
  H+  H27  1  0.22723098  0.11127292  0.99416761  1
  H+  H28  1  0.88035574  0.26272422  0.66708718  1
  H+  H29  1  0.37430756  0.73978451  1.00364132  1
  H+  H30  1  0.37257787  -0.01877492  0.14865102  1
  H+  H31  1  0.87528820  0.00644126  0.82786061  1
  H+  H32  1  0.34582364  0.86949168  0.00588218  1
  H+  H33  1  0.92126419  0.54661769  0.18518262  1
  H+  H34  1  0.89955514  0.13194768  0.84239698  1
  H+  H35  1  0.62977576  0.09236606  0.83401557  1
  H+  H36  1  0.14408594  0.76232312  0.32104653  1
  H+  H37  1  0.14930706  0.56043806  0.99455188  1
  H+  H38  1  0.23020423  0.36675167  0.66458635  1
  H+  H39  1  0.29434278  0.59643140  0.67434282  1
  H+  H40  1  0.89625077  0.64578532  0.15982540  1
  H+  H41  1  1.01865088  0.13541341  0.50249977  1
  H+  H42  1  0.77150509  0.12980750  0.82976506  1
  H+  H43  1  0.37378005  0.89536054  0.65368940  1
  H+  H44  1  0.14897880  0.79294076  0.21569849  1
  H+  H45  1  0.47525855  0.85167002  0.82455762  1
  H+  H46  1  0.60415082  0.32183746  0.92312319  1
  H+  H47  1  0.27357290  0.38833274  0.18690856  1
  H+  H48  1  0.65157407  0.57794285  1.01117563  1
  H+  H49  1  -0.02650148  0.86838919  -0.00688756  1
  H+  H50  1  0.88616665  0.01345187  0.17596640  1
  H+  H51  1  0.38403357  0.37330678  0.48368114  1
  H+  H52  1  0.03915173  0.91294600  0.82762258  1
  H+  H53  1  0.37399350  0.77416381  0.63790664  1
  H+  H54  1  0.76016940  0.65178672  0.48310160  1
  H+  H55  1  0.85752555  0.57435114  0.83517713  1
  H+  H56  1  0.87745072  0.11325882  0.32584918  1
  H+  H57  1  0.87526596  0.75631928  0.17307631  1
  H+  H58  1  0.13468175  0.40665476  0.35613513  1
  H+  H59  1  0.11501318  -0.02754736  0.48763300  1
  H+  H60  1  0.41320250  0.08143705  0.41279951  1
  H+  H61  1  0.94847320  0.36442952  0.85023698  1
  H+  H62  1  0.15514945  0.35812200  0.96315355  1
  H+  H63  1  0.14999455  0.12755265  0.83884478  1
  H+  H64  1  0.87568370  0.49566938  0.00823456  1
  H+  H65  1  0.27763759  0.14437313  0.82446527  1
  H+  H66  1  0.89510098  0.35222807  0.16036728  1
  H+  H67  1  0.88749482  0.33041233  0.94518864  1
  H+  H68  1  0.48764847  0.36554781  0.48938957  1
  H+  H69  1  0.70043327  0.59927597  0.84252700  1
  H+  H70  1  0.39012800  0.27713718  0.64342707  1
  H+  H71  1  0.38247561  0.26854105  0.18409033  1
  H+  H72  1  0.47884820  0.36500747  0.64805996  1
  H+  H73  1  0.39367416  0.36155917  0.99557118  1
  H+  H74  1  0.08719748  0.40945815  0.01910090  1
  H+  H75  1  0.47912790  0.36879329  0.84842094  1
  H+  H76  1  1.01672002  0.37675553  0.49798033  1
  H+  H77  1  0.77923999  0.40336464  0.33601326  1
  H+  H78  1  0.15047133  0.03906069  0.83624893  1
  H+  H79  1  0.37980782  0.61073716  0.33486558  1
  H+  H80  1  0.35933231  0.47820809  0.67586990  1
  H+  H81  1  0.88723088  0.86258396  0.32516138  1
  H+  H82  1  0.38451649  0.10292358  0.15267075  1
  H+  H83  1  0.86151126  0.13459454  0.67595521  1
  H+  H84  1  0.33780210  0.62249966  0.81070126  1
  H+  H85  1  0.64040325  0.60035738  0.55247892  1
  H+  H86  1  0.13831687  0.27297421  0.17780191  1
  H+  H87  1  0.90275556  0.52922989  0.33143426  1
  H+  H88  1  0.60928296  0.38830967  0.16739835  1
  H+  H89  1  0.85912507  0.11954522  0.16131501  1
  H+  H90  1  0.73349878  0.87336182  0.99226893  1
  H+  H91  1  -0.08768731  0.82780393  0.26562233  1
  H+  H92  1  0.47910563  0.86760875  0.17817872  1
  H+  H93  1  0.64581123  0.87861323  0.83344450  1
  H+  H94  1  0.08991218  0.48079669  0.82934683  1
  H+  H95  1  -0.02483070  0.85941534  0.50758513  1
  H+  H96  1  0.09718156  0.15974985  0.34818675  1
  H+  H97  1  0.50656772  0.36727566  1.01435676  1
  H+  H98  1  0.47374485  0.83860044  0.47977170  1
  H+  H99  1  0.11306224  0.94605534  0.33582937  1
  H+  H100  1  0.22583221  0.11002779  0.64580931  1
  H+  H101  1  0.62036736  0.52372025  0.17836158  1
  H+  H102  1  0.53830410  0.14888528  0.15946467  1
  H+  H103  1  0.59906188  0.87469569  0.39947447  1
  H+  H104  1  0.37172728  0.88547818  0.16373748  1
  H+  H105  1  0.62355015  0.60904298  0.66020959  1
  H+  H106  1  0.61566793  0.12863651  0.48960364  1
  H+  H107  1  0.78769026  0.63187090  0.00436912  1
  H+  H108  1  0.68328041  0.36202080  0.98213155  1
  H+  H109  1  0.06861911  0.41854333  0.72726135  1
  H+  H110  1  0.48284877  0.59878568  0.49184049  1
  H+  H111  1  0.64017593  0.61649335  0.32953080  1
  H+  H112  1  0.98135740  0.12305548  0.65963009  1
  H+  H113  1  0.82308515  0.44163501  0.82891242  1
  H+  H114  1  0.08842872  0.66625955  0.72002500  1
  H+  H115  1  0.77936831  0.88238642  0.48640424  1
  H+  H116  1  0.87563989  0.40020601  0.48411719  1
  H+  H117  1  0.45989507  0.91796668  0.95593121  1
  H+  H118  1  0.61754847  0.23374926  0.64906700  1
  H+  H119  1  0.63616527  1.02912951  0.65605870  1
  H+  H120  1  0.08929309  0.61290395  0.81774392  1
  H+  H121  1  0.63604678  1.01325815  -0.00416028  1
  H+  H122  1  0.72346746  0.10226083  0.17619806  1
  H+  H123  1  0.36445335  -0.03621739  0.48857638  1
  H+  H124  1  0.35569479  0.71383104  0.47015798  1
  H+  H125  1  0.52897638  0.14786614  0.34839918  1
  H+  H126  1  0.12772540  0.84063960  0.31749160  1
  H+  H127  1  0.31067525  0.16483219  0.40075664  1
  H+  H128  1  0.36525424  0.22131531  0.01052773  1
  H+  H129  1  0.11845897  0.51575821  0.53593869  1
  H+  H130  1  0.89411591  0.03305931  0.66170235  1
  H+  H131  1  0.58978803  0.65148422  0.40567495  1
  H+  H132  1  0.87493450  0.35707058  0.31987059  1
  H+  H133  1  0.38530597  1.01074826  0.81483425  1
  H+  H134  1  0.46733723  0.62588198  0.97920019  1
  H+  H135  1  0.16900262  0.81163114  0.83962948  1
  H+  H136  1  0.86225028  0.72481969  0.33290530  1
  H+  H137  1  0.02279344  0.88924451  0.67094777  1
  H+  H138  1  0.87540446  0.91821662  0.83172712  1
  H+  H139  1  0.36730670  0.39368818  0.67302891  1
  H+  H140  1  0.85461543  0.39241835  0.01843436  1
  H+  H141  1  0.88910651  0.11290079  0.99539186  1
  H+  H142  1  0.26274048  0.11837528  0.17598579  1
  H+  H143  1  0.11677464  0.14002166  0.66820945  1
  H+  H144  1  0.00392419  0.14726129  0.34495860  1
  H+  H145  1  0.74987935  0.89749990  0.84049947  1
  H+  H146  1  0.92990172  0.09935382  0.90063834  1
  H+  H147  1  0.10687945  0.98168503  0.00581223  1
  H+  H148  1  0.52581947  0.87829086  1.01222076  1
  H+  H149  1  0.84908620  0.35929281  0.67808849  1
  H+  H150  1  0.13414117  0.23793945  0.81885423  1
  H+  H151  1  0.12241442  0.66184376  1.00876788  1
  H+  H152  1  0.37223445  0.13247423  0.64650114  1
  H+  H153  1  0.10646976  0.89305587  0.00321029  1
  H+  H154  1  0.34921293  0.22511693  0.34124782  1
  H+  H155  1  0.14023280  0.36436353  0.18250333  1
  H+  H156  1  0.26103095  0.88235225  0.33256582  1
  H+  H157  1  0.60882217  0.18272170  0.10942322  1
  H+  H158  1  0.28924142  0.90181660  0.66092016  1
  H+  H159  1  0.71684607  0.34778594  0.64847986  1
  H+  H160  1  0.48629661  0.10598384  0.49605661  1
  H+  H161  1  0.91615535  0.56087739  0.62586044  1
  H+  H162  1  -0.01344523  0.61804735  -0.01199731  1
  H+  H163  1  0.88517226  0.10418402  0.50521823  1
  H+  H164  1  0.15842686  0.64127610  0.18914350  1
  H+  H165  1  0.69992845  0.31423689  0.85348506  1
  H+  H166  1  0.85195342  0.34455168  0.84997446  1
  H+  H167  1  0.12667587  0.90935346  0.82587143  1
  H+  H168  1  0.21956323  0.86893373  -0.00378122  1
  H+  H169  1  0.67258192  0.33301737  0.00945424  1
  H+  H170  1  0.89453318  0.31248818  0.57691610  1
  H+  H171  1  0.23993762  0.64326823  0.99010716  1
  H+  H172  1  0.86601748  0.97486318  0.49334194  1
  H+  H173  1  0.63673716  0.83580996  0.48055472  1
  H+  H174  1  0.12468515  0.72890237  0.49066388  1
  H+  H175  1  0.12428169  0.06341482  0.32247188  1
  H+  H176  1  0.06987804  0.38446765  0.82912751  1
  H+  H177  1  0.62221153  0.13817096  0.65549115  1
  H+  H178  1  0.88192651  0.77836367  0.66151608  1
  H+  H179  1  0.12380067  0.49003025  0.18159395  1
  H+  H180  1  0.43330443  0.07916084  0.58529727  1
  H+  H181  1  0.64026209  0.28980837  0.33729981  1
  H+  H182  1  0.40182740  0.02395848  0.64778745  1
  H+  H183  1  0.62838699  0.21764424  0.00727710  1
  H+  H184  1  0.39384863  0.10525985  0.50143490  1
  H+  H185  1  0.61010728  0.44981983  1.01325930  1
  H+  H186  1  0.11868739  0.22298467  0.00097546  1
  H+  H187  1  0.85673720  0.20675164  0.49504152  1
  H+  H188  1  0.37835767  0.46643599  0.47953237  1
  H+  H189  1  0.85991795  0.88725169  0.00720354  1
  H+  H190  1  0.12996527  0.28635873  0.33670066  1
  H+  H191  1  0.63551783  0.77520932  0.33718511  1
  H+  H192  1  0.58265721  0.70991230  0.68945442  1
  H+  H193  1  0.62096936  0.90055911  0.66005340  1
  H+  H194  1  -0.01567893  0.36119037  0.17778410  1
  H+  H195  1  0.64676481  0.29114087  0.18791372  1
  H+  H196  1  0.14789325  0.49953522  0.36395878  1
  H+  H197  1  0.86394661  0.97794076  0.00841844  1
  H+  H198  1  0.08740486  0.92481099  0.72806899  1
  H+  H199  1  0.76035406  0.42474933  0.16287940  1
  H+  H200  1  0.38894566  0.35754976  0.33193814  1
  H+  H201  1  0.37266419  0.11129397  0.36161053  1
  H+  H202  1  0.12732137  0.00553515  0.16561556  1
  H+  H203  1  0.84593258  0.21563952  0.01253335  1
  H+  H204  1  0.10365069  0.38471867  0.67395397  1
  H+  H205  1  0.27495051  0.12788607  0.49844853  1
  H+  H206  1  0.71881959  0.11575822  0.33169877  1
  H+  H207  1  0.64402741  0.27062934  0.50081676  1
  H+  H208  1  0.40015900  0.10633828  1.00889667  1
  H+  H209  1  0.36454516  0.47553602  0.34022013  1
  H+  H210  1  0.36315590  0.64663766  -0.00184117  1
  H+  H211  1  0.62585059  0.12790746  0.00834982  1
  H+  H212  1  0.29619338  0.91204586  0.85178005  1
  H+  H213  1  -0.05699859  0.35052462  0.00691641  1
  H+  H214  1  0.94342470  0.56951963  0.82854458  1
  H+  H215  1  0.86237616  0.20968754  0.15916218  1
  H+  H216  1  0.85746616  0.64313032  0.66696628  1
  H+  H217  1  0.49010386  0.10536563  1.01386477  1
  H+  H218  1  0.37473256  0.46927687  0.77750753  1
  H+  H219  1  0.78243951  0.38859720  0.48425986  1
  H+  H220  1  0.92061934  0.57407678  0.92946828  1
  H+  H221  1  0.11488222  0.13416857  0.00668119  1
  H+  H222  1  0.23651419  0.87099581  0.50659358  1
  H+  H223  1  0.61752419  0.14618959  0.33953531  1
  H+  H224  1  0.60842454  0.49235621  0.46837623  1
  H+  H225  1  0.20402771  0.61920702  0.61031486  1
  H+  H226  1  0.60770409  0.73353852  0.16634825  1
  H+  H227  1  0.36019629  0.96293795  0.01792615  1
  H+  H228  1  0.04046572  0.32105552  0.05236903  1
  H+  H229  1  0.03915728  0.15562049  0.82781338  1
  H+  H230  1  0.89333996  0.64257645  0.48937079  1
  H+  H231  1  0.32741940  0.16091723  0.06759487  1
  H+  H232  1  0.14463054  0.78637176  0.65450425  1
  H+  H233  1  0.64495380  0.87642210  0.99404508  1
  H+  H234  1  0.37921117  0.90095458  0.83742960  1
  H+  H235  1  0.14151705  0.27559553  0.66457833  1
  H+  H236  1  0.35466541  0.62613460  0.45746484  1
  H+  H237  1  0.33823338  0.14506005  0.22221515  1
  H+  H238  1  0.21322519  0.61204599  0.83349342  1
  H+  H239  1  0.12210838  0.26319035  0.51655884  1
  H+  H240  1  0.64057617  0.11286174  0.17760746  1
  H+  H241  1  0.62983571  0.52564817  0.64775107  1
  H+  H242  1  0.72122271  0.86434389  0.33430861  1
  H+  H243  1  0.04419352  0.62900335  0.34432033  1
  H+  H244  1  0.92691579  0.85806384  0.90316738  1
  H+  H245  1  0.82603899  0.15186654  0.06897540  1
  H+  H246  1  0.13421546  0.10887288  0.50018738  1
  H+  H247  1  0.99901939  0.64364203  0.64818759  1
  H+  H248  1  0.83637979  0.67972802  0.82230196  1
  H+  H249  1  0.51586336  0.38052604  0.16454178  1
  H+  H250  1  0.50109781  0.62985966  0.82931107  1
  H+  H251  1  0.63070614  0.70954165  0.49976370  1
  H+  H252  1  0.86276183  0.97680723  0.33715329  1
  H+  H253  1  0.96258996  0.84550137  0.16944366  1
  H+  H254  1  0.14129934  0.87388803  0.50383446  1
  H+  H255  1  0.38746144  0.53661413  0.19147713  1
  H+  H256  1  0.60224894  0.19216219  0.82292312  1
  H+  H257  1  0.02806659  0.65344572  0.48424811  1
  H+  H258  1  0.34958450  -0.02686917  0.35055661  1
  H+  H259  1  0.60457886  0.92977307  0.46161161  1
  H+  H260  1  0.52257361  0.13208103  0.65079239  1
  H+  H261  1  0.85452595  0.22324624  0.33634627  1
  H+  H262  1  0.52756494  0.89007225  0.66115883  1
  H+  H263  1  0.91021434  0.62166171  0.33399083  1
  H+  H264  1  0.82424503  0.90931311  0.10583173  1
  H+  H265  1  -0.09518362  0.81887412  0.83664697  1
  H+  H266  1  0.60829566  0.97379424  0.16568127  1
  H+  H267  1  0.80385690  0.63569949  0.75894354  1
  H+  H268  1  0.96902742  0.35571221  0.66291490  1
  H+  H269  1  0.45389200  0.61299372  0.68456549  1
  H+  H270  1  0.74868883  0.89518004  0.65043103  1
  H+  H271  1  0.38810665  0.77780469  0.17254320  1
  H+  H272  1  0.47553823  0.10506457  0.79142568  1
  H+  H273  1  0.11924146  0.60307283  0.52587580  1
  H+  H274  1  -0.02098773  0.11385346  -0.00419596  1
  H+  H275  1  0.60285770  0.52803361  0.84873377  1
  H+  H276  1  0.85289806  0.22437120  0.83389009  1
  H+  H277  1  0.60694696  0.88370325  0.16954281  1
  H+  H278  1  0.61165315  -0.03243295  0.81984867  1
  H+  H279  1  0.14702497  0.66821528  0.66520301  1
  H+  H280  1  0.65328721  0.36480446  0.48568326  1
  H+  H281  1  0.24118720  0.63217865  0.18213342  1
  H+  H282  1  0.62035241  0.61325765  0.17773233  1
  H+  H283  1  0.12922196  0.78338987  0.99232928  1
  H+  H284  1  0.11305610  0.13278297  0.16036487  1
  H+  H285  1  0.61228639  0.38402068  0.65790332  1
  H+  H286  1  0.73676652  0.62051866  0.32199515  1
  H+  H287  1  0.67013449  0.80561219  0.63726029  1
  H+  H288  1  0.32647472  0.89923637  0.10054931  1
  H+  H289  1  0.39712470  0.82981650  0.26083359  1
  H+  H290  1  0.72639074  0.09993367  0.99212200  1
  H+  H291  1  0.59286537  0.36634797  0.82773539  1
  H+  H292  1  0.84098835  0.93195629  0.73311913  1
  H+  H293  1  0.47561994  0.62520834  0.17970836  1
  H+  H294  1  0.80522123  0.52193558  0.13811407  1
  H+  H295  1  0.82668017  0.44509447  0.07534569  1
  H+  H296  1  0.09465015  0.86159813  0.15046218  1
  H+  H297  1  0.16135434  0.59613228  0.89586241  1
  H+  H298  1  0.37990234  0.76830172  0.82432086  1
  H+  H299  1  0.59528467  0.64690804  0.84100692  1
  H+  H300  1  0.91594458  0.08118571  0.56781119  1
  H+  H301  1  0.33642173  0.21451309  0.77585483  1
  H+  H302  1  0.58415668  0.41113173  0.71886654  1
  H+  H303  1  0.93614666  0.63688806  0.55087995  1
  H+  H304  1  0.34111329  0.75964865  0.31765650  1
  H+  H305  1  0.65919704  0.83367215  0.24347682  1
  H+  H306  1  0.31990368  0.90084164  0.43174826  1
  H+  H307  1  0.29274295  0.64728567  0.75843459  1
  H+  H308  1  0.84203908  0.42438635  0.39202566  1
  H+  H309  1  0.43934715  0.12431858  0.25501613  1
  H+  H310  1  0.17473176  0.85459877  0.90412514  1
  H+  H311  1  0.34709152  0.42774416  0.13795342  1
  H+  H312  1  0.56405302  0.65525197  0.74865476  1
  H+  H313  1  0.29788405  0.65675476  0.38908809  1
  H+  H314  1  0.43076265  0.07891064  0.25479606  1
  H+  H315  1  0.59386089  0.15992005  0.75332514  1
  H+  H316  1  0.27782854  0.39188855  0.83339599  1
  H+  H317  1  0.72803211  0.11665857  0.66236497  1
  H+  H318  1  0.64858352  0.37737275  0.35911164  1
  H+  H319  1  0.82682745  0.66710780  0.39218605  1
  H+  H320  1  0.01739209  0.86659654  0.33842532  1
  H+  H321  1  0.66350562  0.58859909  0.26033120  1
  H+  H322  1  0.07023731  0.90488769  0.09646743  1
  H+  H323  1  0.42385239  0.12396763  0.90131543  1
  H+  H324  1  0.68084965  0.85985734  0.90232399  1
  H+  H325  1  0.42048860  0.83550700  0.91696310  1
  H+  H326  1  0.41942755  0.59493017  0.27635627  1
  H+  H327  1  0.65885544  0.08336668  0.27406094  1
  H+  H328  1  0.15481819  0.05832166  0.22722080  1
  H+  H329  1  0.91469833  0.83656960  0.60165970  1
  H+  H330  1  0.42372204  0.16169344  0.91589411  1
  H+  H331  1  0.08773531  0.16865977  0.10268194  1
  H+  H332  1  0.38936289  0.56004353  0.88244777  1
  H+  H333  1  0.09026091  0.43135121  0.12246313  1
  H+  H334  1  0.82082849  0.29123858  0.53053606  1
  H+  H335  1  0.38658305  0.35983853  0.19230114  1
  H+  H336  1  0.59087854  0.16717203  0.43147668  1
  H+  H337  1  0.40123841  0.57272390  0.53178783  1
  H+  H338  1  0.19879085  0.61033501  0.27579779  1
  H+  H339  1  0.16583331  0.33820513  0.27486614  1
  H+  H340  1  0.57089641  0.40091939  0.08228655  1
  H+  H341  1  0.09289963  0.42206691  0.44891292  1
  H+  H342  1  0.36623442  0.21576988  0.49844640  1
  H+  H343  1  0.83003028  0.16201285  0.73667887  1
  H+  H344  1  0.39128909  0.84917808  0.48853539  1
  H+  H345  1  0.85536934  0.65872804  0.09806514  1
  H+  H346  1  0.17208680  0.08905691  0.93311291  1
  H+  H347  1  0.65984230  0.06751041  0.89644571  1
  H+  H348  1  0.05248392  0.66803350  0.17091657  1
  H+  H349  1  0.15744170  0.63652013  0.34235135  1
  H+  H350  1  0.57531243  0.68009330  0.10403603  1
  H+  H351  1  0.77121655  0.11672745  0.48866248  1
  H+  H352  1  0.83948434  0.91805296  0.39615244  1
  H+  H353  1  0.09005477  0.68872406  0.06813001  1
  H+  H354  1  0.95090440  0.60074519  0.24663133  1
  H+  H355  1  0.19174092  0.32943566  0.90996314  1
  H+  H356  1  0.07423837  0.17705826  0.44273042  1
  H+  H357  1  0.10239116  0.66605097  0.40649887  1
  H+  H358  1  0.79397690  0.37657317  0.77177744  1
  H+  H359  1  0.43202440  0.34092185  0.55343708  1
  H+  H360  1  0.83124329  0.16198575  0.39578678  1
  H+  H361  1  0.60663019  0.74797442  1.00050882  1
  H+  H362  1  0.66465609  0.32806486  0.58275712  1
  H+  H363  1  0.58050990  0.90982563  0.07463262  1
  H+  H364  1  0.67433069  0.83902280  0.54691740  1
  H+  H365  1  -0.02480384  0.10418305  0.17354432  1
  H+  H366  1  0.33809977  0.67553855  0.10145297  1
  H+  H367  1  0.42737172  0.32887505  0.93994326  1
  H+  H368  1  0.32904025  0.42186982  0.04357651  1
  H+  H369  1  0.09007550  0.16913465  0.72979269  1
  H+  H370  1  0.59783788  0.65775776  0.00006410  1
  H+  H371  1  0.15817803  0.07572345  0.55963905  1
  H+  H372  1  0.17218827  0.84611926  0.57275203  1
  H+  H373  1  0.34342509  0.40316542  0.41995979  1
  H+  H374  1  0.12029621  0.35793641  0.51786156  1
  H+  H375  1  0.66157113  0.55880261  0.94200751  1
  H+  H376  1  0.58748307  0.91141954  0.75810809  1
  H+  H377  1  0.33612459  0.14679276  0.70656167  1
  H+  H378  1  0.40781475  0.61294952  0.62520238  1
  H+  H379  1  0.42498044  0.32548537  0.27901673  1
  H+  H380  1  0.66668615  0.35327961  0.24596931  1
  H+  H381  1  0.42427366  0.82920554  0.58118304  1
  H+  H382  1  0.67546455  0.08879494  0.56326311  1
  H+  H383  1  0.08432304  0.90289203  0.43209391  1
  O2-  O384  1  0.08669618  0.16772972  0.14802814  1
  O2-  O385  1  0.08013074  0.17203076  0.48749727  1
  O2-  O386  1  0.09740176  0.17633474  0.80951365  1
  O2-  O387  1  0.09490545  0.42970510  0.16696764  1
  O2-  O388  1  0.07936686  0.40822508  0.49424642  1
  O2-  O389  1  0.04923343  0.42158652  0.81353032  1
  O2-  O390  1  0.11231445  0.70119980  0.15247877  1
  O2-  O391  1  0.09063481  0.67045460  0.47442182  1
  O2-  O392  1  0.04748353  0.62691266  0.79685836  1
  O2-  O393  1  0.06978468  0.89874993  0.14185213  1
  O2-  O394  1  0.08943165  0.90967793  0.47758036  1
  O2-  O395  1  0.09671951  0.93812170  0.80801497  1
  O2-  O396  1  0.32804008  0.15189723  0.17937216  1
  O2-  O397  1  0.33490607  0.15603759  0.48260929  1
  O2-  O398  1  0.33757971  0.17457230  0.80541024  1
  O2-  O399  1  0.33838755  0.42253622  0.18175499  1
  O2-  O400  1  0.34947338  0.40380353  0.46710481  1
  O2-  O401  1  0.37650261  0.47125382  0.82293201  1
  O2-  O402  1  0.33848817  0.67829675  0.14660036  1
  O2-  O403  1  0.32171210  0.65553961  0.45083040  1
  O2-  O404  1  0.31183327  0.65863755  0.80213056  1
  O2-  O405  1  0.33867682  0.91379369  0.14571590  1
  O2-  O406  1  0.32521229  0.90207314  0.47713414  1
  O2-  O407  1  0.36024059  0.94303340  0.84809029  1
  O2-  O408  1  0.60128729  0.18268818  0.15412805  1
  O2-  O409  1  0.58528540  0.16014075  0.47729736  1
  O2-  O410  1  0.57480671  0.14003854  0.79517503  1
  O2-  O411  1  0.57559063  0.41237690  0.14659618  1
  O2-  O412  1  0.57357759  0.43425823  0.45084449  1
  O2-  O413  1  0.59289841  0.41435445  0.80405040  1
  O2-  O414  1  0.57502292  0.67383092  0.14865633  1
  O2-  O415  1  0.59448858  0.64612925  0.48835390  1
  O2-  O416  1  0.56249196  0.66863769  0.81893836  1
  O2-  O417  1  0.57576198  0.91194643  0.15144814  1
  O2-  O418  1  0.61124508  0.98900629  0.51467859  1
  O2-  O419  1  0.58562707  0.90710105  0.80370911  1
  O2-  O420  1  0.82833617  0.14926790  0.14524572  1
  O2-  O421  1  0.83297966  0.14945140  0.47558698  1
  O2-  O422  1  0.83216362  0.16627201  0.81593588  1
  O2-  O423  1  0.81003053  0.46917743  0.13843706  1
  O2-  O424  1  0.84073328  0.42213106  0.46634969  1
  O2-  O425  1  0.79081637  0.37971230  0.81704693  1
  O2-  O426  1  0.84474483  0.64383242  0.14182536  1
  O2-  O427  1  0.81992151  0.67793847  0.46840901  1
  O2-  O428  1  0.79753445  0.62375590  0.80456621  1
  O2-  O429  1  0.82397749  0.90793076  0.15105111  1
  O2-  O430  1  0.84150270  0.91625997  0.47498826  1
  O2-  O431  1  0.84184922  0.94401430  0.81469296  1
  O2-  O432  1  0.15793750  0.06553118  0.18216138  1
  O2-  O433  1  0.16146768  0.07538046  0.51398227  1
  O2-  O434  1  0.18186557  0.09853607  0.85389566  1
  O2-  O435  1  0.16900065  0.33205993  0.19588861  1
  O2-  O436  1  0.15149757  0.32558320  0.53288022  1
  O2-  O437  1  0.21340021  0.35154382  0.83718231  1
  O2-  O438  1  0.18513907  0.60794163  0.20457254  1
  O2-  O439  1  0.13346339  0.57080466  0.55537621  1
  O2-  O440  1  0.15363832  0.58454650  0.85145354  1
  O2-  O441  1  0.14159469  0.79140963  0.17062254  1
  O2-  O442  1  0.17444465  0.84530370  0.52352563  1
  O2-  O443  1  0.18791831  0.86697284  0.85894736  1
  O2-  O444  1  0.41892586  0.07596161  0.13977659  1
  O2-  O445  1  0.42270809  0.07058612  0.50790360  1
  O2-  O446  1  0.40990859  0.07238111  0.78700978  1
  O2-  O447  1  0.42008127  0.32952368  0.19565574  1
  O2-  O448  1  0.42796731  0.33304826  0.50805641  1
  O2-  O449  1  0.42522772  0.33247925  0.87009768  1
  O2-  O450  1  0.41657852  0.59957882  0.19822037  1
  O2-  O451  1  0.41859615  0.56925972  0.49040415  1
  O2-  O452  1  0.38811513  0.55805806  0.83679168  1
  O2-  O453  1  0.41561971  0.83771919  0.19048453  1
  O2-  O454  1  0.41697179  0.81365702  0.50005123  1
  O2-  O455  1  0.41587168  0.82736716  0.84116780  1
  O2-  O456  1  0.66257724  0.07428470  0.19017637  1
  O2-  O457  1  0.67148679  0.08138250  0.51807920  1
  O2-  O458  1  0.66205810  0.06560282  0.85102395  1
  O2-  O459  1  0.66791889  0.35169162  0.20029421  1
  O2-  O460  1  0.67417618  0.33112540  0.51532507  1
  O2-  O461  1  0.64874464  0.26530431  0.87452133  1
  O2-  O462  1  0.64773168  0.58205526  0.19582962  1
  O2-  O463  1  0.64417999  0.60444542  0.50686539  1
  O2-  O464  1  0.64774321  0.58090464  0.86771111  1
  O2-  O465  1  0.65820746  0.83267222  0.19764839  1
  O2-  O466  1  0.67235827  0.81703044  0.50545089  1
  O2-  O467  1  0.68682957  0.86281036  0.85561872  1
  O2-  O468  1  0.91551965  0.07480989  0.18959841  1
  O2-  O469  1  0.91825369  0.07728071  0.52246717  1
  O2-  O470  1  0.93389720  0.10451483  0.85517198  1
  O2-  O471  1  0.92105028  0.32081167  0.17781181  1
  O2-  O472  1  0.88053778  0.30447492  0.53182532  1
  O2-  O473  1  0.89108048  0.32600908  0.86863405  1
  O2-  O474  1  0.95737692  0.60506767  0.20083909  1
  O2-  O475  1  0.93833796  0.63225965  0.50647857  1
  O2-  O476  1  0.88874408  0.54643845  0.85213306  1
  O2-  O477  1  0.90311325  0.81705409  0.18643047  1
  O2-  O478  1  0.91601127  0.83424829  0.52349671  1
  O2-  O479  1  0.93512977  0.87350828  0.85798567  1
  O2-  O480  1  0.16649414  0.05065590  0.30526489  1
  O2-  O481  1  0.16352043  0.08360150  0.63653931  1
  O2-  O482  1  0.16738920  0.08516509  0.97849276  1
  O2-  O483  1  0.17109448  0.34416800  0.31998800  1
  O2-  O484  1  0.16987092  0.33613795  0.64860389  1
  O2-  O485  1  0.18401150  0.32534749  0.95560753  1
  O2-  O486  1  0.20042730  0.60908239  0.32328439  1
  O2-  O487  1  0.23907514  0.66002981  0.64478660  1
  O2-  O488  1  0.17823723  0.61721711  0.97596103  1
  O2-  O489  1  0.16499072  0.81857088  0.30075558  1
  O2-  O490  1  0.17066935  0.84599050  0.63695245  1
  O2-  O491  1  0.16178586  0.84402493  0.97689973  1
  O2-  O492  1  0.40304244  0.07818838  0.36886508  1
  O2-  O493  1  0.43485010  0.08598505  0.63067801  1
  O2-  O494  1  0.42622354  0.07086342  1.01945742  1
  O2-  O495  1  0.41254477  0.31937561  0.32301448  1
  O2-  O496  1  0.41918527  0.33824225  0.63119591  1
  O2-  O497  1  0.42307496  0.32800452  0.98674313  1
  O2-  O498  1  0.41496812  0.58603606  0.32153800  1
  O2-  O499  1  0.39516656  0.58837489  0.66585409  1
  O2-  O500  1  0.40707052  0.59134795  0.96421532  1
  O2-  O501  1  0.38208182  0.82265363  0.30635581  1
  O2-  O502  1  0.41925578  0.83199556  0.62624093  1
  O2-  O503  1  0.42825879  0.85550028  0.96089451  1
  O2-  O504  1  0.65802882  0.09128573  0.31841841  1
  O2-  O505  1  0.66914484  0.09112486  0.64347031  1
  O2-  O506  1  0.66568691  0.07121939  0.97657859  1
  O2-  O507  1  0.66606647  0.35150642  0.32557376  1
  O2-  O508  1  0.65821263  0.32099421  0.63033654  1
  O2-  O509  1  0.58725579  0.29704512  0.88201260  1
  O2-  O510  1  0.67313705  0.59131946  0.30821166  1
  O2-  O511  1  0.65612848  0.58751388  0.63687737  1
  O2-  O512  1  0.67239076  0.54811658  0.98530432  1
  O2-  O513  1  0.65919075  0.83496552  0.32318264  1
  O2-  O514  1  0.69060853  0.86621184  0.63013542  1
  O2-  O515  1  0.67394045  0.84784276  0.97341575  1
  O2-  O516  1  0.91368240  0.08627548  0.31453651  1
  O2-  O517  1  0.92027491  0.09301085  0.64568963  1
  O2-  O518  1  0.91950733  0.08350349  0.97889442  1
  O2-  O519  1  0.89758147  0.31886354  0.30771268  1
  O2-  O520  1  0.90551526  0.32283450  0.65072455  1
  O2-  O521  1  0.88419045  0.32977590  0.99119494  1
  O2-  O522  1  0.94262562  0.59276681  0.32157641  1
  O2-  O523  1  0.93793505  0.62115607  0.63540687  1
  O2-  O524  1  0.92522382  0.58190465  0.97462320  1
  O2-  O525  1  0.91596504  0.82996180  0.31100733  1
  O2-  O526  1  0.91605651  0.83870150  0.64740094  1
  O2-  O527  1  0.91385430  0.83803370  0.97521137  1
  O2-  O528  1  0.08648271  0.16687557  0.02143503  1
  O2-  O529  1  0.06355052  0.18381102  0.36458791  1
  O2-  O530  1  0.08823931  0.17143135  0.68450082  1
  O2-  O531  1  0.04051193  0.37514696  0.04732862  1
  O2-  O532  1  0.11480081  0.44085212  0.37936706  1
  O2-  O533  1  0.06651405  0.40926527  0.68309477  1
  O2-  O534  1  0.08401943  0.68355399  0.02305875  1
  O2-  O535  1  0.10596865  0.66149795  0.35943217  1
  O2-  O536  1  0.10228256  0.68332223  0.67684706  1
  O2-  O537  1  0.07409287  0.92045665  0.01958363  1
  O2-  O538  1  0.07751214  0.88806145  0.35400522  1
  O2-  O539  1  0.08500238  0.92043187  0.68277490  1
  O2-  O540  1  0.33383536  0.15980622  0.02359007  1
  O2-  O541  1  0.31154092  0.16244026  0.35574982  1
  O2-  O542  1  0.33791757  0.15803002  0.66296939  1
  O2-  O543  1  0.34217948  0.42092743  0.00071965  1
  O2-  O544  1  0.33604996  0.41397350  0.35278417  1
  O2-  O545  1  0.33627939  0.41971117  0.69316409  1
  O2-  O546  1  0.33835560  0.68034836  0.01746447  1
  O2-  O547  1  0.29186861  0.66242722  0.33968023  1
  O2-  O548  1  0.24634490  0.60296389  0.69030721  1
  O2-  O549  1  0.32077952  0.90036248  0.02715947  1
  O2-  O550  1  0.31964105  0.90835123  0.35227569  1
  O2-  O551  1  0.35092967  0.93108920  0.67086005  1
  O2-  O552  1  0.59919890  0.16093823  0.02647544  1
  O2-  O553  1  0.59075109  0.18027888  0.35759470  1
  O2-  O554  1  0.58749037  0.16899980  0.66654458  1
  O2-  O555  1  0.56899267  0.39389337  0.03374109  1
  O2-  O556  1  0.63782734  0.40897532  0.43648384  1
  O2-  O557  1  0.58377104  0.41527570  0.67400661  1
  O2-  O558  1  0.56898383  0.68743278  0.01565472  1
  O2-  O559  1  0.58750855  0.65704454  0.36082910  1
  O2-  O560  1  0.55965702  0.65047954  0.70198038  1
  O2-  O561  1  0.58443424  0.91108552  0.02873774  1
  O2-  O562  1  0.58185559  0.86971325  0.44232355  1
  O2-  O563  1  0.58593285  0.92301371  0.67930336  1
  O2-  O564  1  0.82667162  0.15520429  0.02306850  1
  O2-  O565  1  0.82770468  0.16142111  0.35069264  1
  O2-  O566  1  0.82763037  0.16146570  0.69123263  1
  O2-  O567  1  0.83789724  0.43772671  0.02986478  1
  O2-  O568  1  0.84137401  0.42864131  0.34617542  1
  O2-  O569  1  0.81036074  0.38229797  0.69371073  1
  O2-  O570  1  0.84828704  0.67105167  0.01514635  1
  O2-  O571  1  0.83127643  0.66341215  0.34688775  1
  O2-  O572  1  0.82082153  0.66351867  0.68618546  1
  O2-  O573  1  0.82955071  0.91718818  0.02277122  1
  O2-  O574  1  0.83518254  0.91579045  0.35078879  1
  O2-  O575  1  0.84218678  0.93039876  0.68791667  1
