# generated using pymatgen
data_H2O
_symmetry_space_group_name_H-M   'P 1'
_cell_length_a   17.98715417
_cell_length_b   17.98689211
_cell_length_c   22.01002747
_cell_angle_alpha   89.98892472
_cell_angle_beta   90.00915325
_cell_angle_gamma   120.01009740
_symmetry_Int_Tables_number   1
_chemical_formula_structural   H2O
_chemical_formula_sum   'H384 O192'
_cell_volume   6166.31343184
_cell_formula_units_Z   192
loop_
 _symmetry_equiv_pos_site_id
 _symmetry_equiv_pos_as_xyz
  1  'x, y, z'
loop_
 _atom_type_symbol
 _atom_type_oxidation_number
  H+  1.0
  O2-  -2.0
loop_
 _atom_site_type_symbol
 _atom_site_label
 _atom_site_symmetry_multiplicity
 _atom_site_fract_x
 _atom_site_fract_y
 _atom_site_fract_z
 _atom_site_occupancy
  H+  H0  1  0.59135504  0.73203702  0.50875446  1
  H+  H1  1  0.48368629  0.11174304  0.51115926  1
  H+  H2  1  0.85580948  0.37264824  1.01462773  1
  H+  H3  1  0.63387135  0.77363902  0.32857860  1
  H+  H4  1  0.60728823  0.36041577  0.02850203  1
  H+  H5  1  0.63712544  0.86934594  0.51388947  1
  H+  H6  1  0.62213486  0.49103852  0.00390052  1
  H+  H7  1  0.64487705  0.37333910  0.85584449  1
  H+  H8  1  0.23322833  0.36550325  0.18394107  1
  H+  H9  1  0.76965962  0.63491264  0.67678585  1
  H+  H10  1  0.52383713  0.13406819  0.34658283  1
  H+  H11  1  0.10457653  0.38193652  0.34192321  1
  H+  H12  1  0.22201753  0.11222260  0.83185552  1
  H+  H13  1  0.64837123  0.34845569  0.35131255  1
  H+  H14  1  0.61215957  0.12764955  0.00576159  1
  H+  H15  1  0.51829784  0.13153883  0.00886056  1
  H+  H16  1  0.10908913  0.72433703  0.16114786  1
  H+  H17  1  0.61743484  0.22728345  0.00902321  1
  H+  H18  1  0.61637286  0.62862305  0.51738403  1
  H+  H19  1  0.10574790  0.34335530  0.50452056  1
  H+  H20  1  0.38456789  0.02783096  0.33315426  1
  H+  H21  1  0.96235423  0.85136745  0.85067180  1
  H+  H22  1  0.62861866  0.64804732  0.68124117  1
  H+  H23  1  0.59457697  0.95373059  0.83032604  1
  H+  H24  1  0.28098563  0.88591239  0.66486220  1
  H+  H25  1  0.17862831  0.82094088  0.59422822  1
  H+  H26  1  0.88692298  0.26780582  0.32930566  1
  H+  H27  1  0.22791712  0.61177356  -0.00300354  1
  H+  H28  1  0.61019098  0.68235103  -0.00555048  1
  H+  H29  1  0.40862158  0.62346593  0.63687350  1
  H+  H30  1  0.87208322  0.84929678  0.84592887  1
  H+  H31  1  0.87196297  0.15102514  0.33536435  1
  H+  H32  1  0.52112524  0.62969331  0.82659754  1
  H+  H33  1  0.87197963  0.38922712  0.34156559  1
  H+  H34  1  0.87903481  0.60827135  0.65714604  1
  H+  H35  1  0.35685409  0.37929744  0.39217064  1
  H+  H36  1  0.29799745  0.15856461  0.49892443  1
  H+  H37  1  0.14386486  0.27868711  0.34092949  1
  H+  H38  1  0.87213210  0.24487229  0.82514205  1
  H+  H39  1  0.65798523  0.80640512  1.00636215  1
  H+  H40  1  0.21648296  0.59092408  0.33587720  1
  H+  H41  1  0.87264693  0.48621740  0.49376725  1
  H+  H42  1  0.62047548  0.39978006  0.66807080  1
  H+  H43  1  0.10440646  0.92048561  0.70576715  1
  H+  H44  1  0.61569481  0.11768621  0.16614575  1
  H+  H45  1  0.64917697  0.38282595  0.49752229  1
  H+  H46  1  0.65560679  0.07696221  0.94026850  1
  H+  H47  1  0.89426636  0.88888814  -0.00113861  1
  H+  H48  1  -0.01281383  0.89955475  0.50613057  1
  H+  H49  1  0.07613551  0.65505612  0.10621940  1
  H+  H50  1  0.59061562  0.63110690  0.38162945  1
  H+  H51  1  0.11160928  0.38367678  0.16678043  1
  H+  H52  1  0.36132221  0.13786936  0.17478618  1
  H+  H53  1  0.90104339  0.60807871  0.49544212  1
  H+  H54  1  0.86850215  0.88770344  0.67210523  1
  H+  H55  1  0.38592386  1.02461340  0.00729545  1
  H+  H56  1  0.77150504  0.63277145  0.17149166  1
  H+  H57  1  0.21728319  0.37347734  0.35661213  1
  H+  H58  1  0.99593827  0.12624586  0.84721833  1
  H+  H59  1  0.38466705  0.77618994  0.99629426  1
  H+  H60  1  0.22251523  0.85741617  0.81658375  1
  H+  H61  1  0.52764161  0.88489005  0.49138085  1
  H+  H62  1  0.14162791  0.76946279  0.65752756  1
  H+  H63  1  0.31755175  0.48015298  0.44612279  1
  H+  H64  1  0.61761416  0.89912083  0.00483259  1
  H+  H65  1  0.14844982  0.12074526  0.66377797  1
  H+  H66  1  0.24723363  0.85242475  0.50528607  1
  H+  H67  1  0.89378300  0.11776000  -0.00018169  1
  H+  H68  1  0.62278080  0.89075683  0.67510647  1
  H+  H69  1  0.39205993  0.53116546  0.63298081  1
  H+  H70  1  0.03594672  0.14385442  0.34036720  1
  H+  H71  1  0.09321191  0.72122510  0.82713033  1
  H+  H72  1  0.39446114  0.28555325  0.64809823  1
  H+  H73  1  0.13522318  0.11374317  0.17616976  1
  H+  H74  1  0.88541216  0.62933541  0.17769979  1
  H+  H75  1  0.26003471  0.62875495  0.84004522  1
  H+  H76  1  0.32675504  0.63132081  0.41438874  1
  H+  H77  1  0.38082279  0.58835508  0.33640126  1
  H+  H78  1  0.78050753  0.64188638  0.32624838  1
  H+  H79  1  0.09884174  0.42920319  0.74615228  1
  H+  H80  1  0.97404462  0.11160442  0.16993967  1
  H+  H81  1  0.85940130  0.96271042  0.49476639  1
  H+  H82  1  0.11493887  0.22795883  0.16532782  1
  H+  H83  1  0.88890351  0.52404550  0.32279431  1
  H+  H84  1  0.39064985  0.02505161  0.66043645  1
  H+  H85  1  0.39059195  0.11974160  0.33113920  1
  H+  H86  1  0.63038724  0.02098756  1.00112535  1
  H+  H87  1  0.98071605  0.86228934  0.48629104  1
  H+  H88  1  0.11916443  0.22505415  0.66804006  1
  H+  H89  1  0.37997091  0.15542299  0.02523465  1
  H+  H90  1  0.61737529  0.23015052  0.49610157  1
  H+  H91  1  0.77105117  0.39404749  0.48965049  1
  H+  H92  1  0.35834281  0.39127726  0.65874820  1
  H+  H93  1  0.68139646  0.10289973  0.83797091  1
  H+  H94  1  0.73852099  0.37597929  0.65317380  1
  H+  H95  1  0.10846477  -0.02160046  0.32453553  1
  H+  H96  1  -0.02967633  0.61462008  0.65840613  1
  H+  H97  1  0.40143142  0.87281907  0.64910940  1
  H+  H98  1  0.36684835  0.94648496  0.81941839  1
  H+  H99  1  0.54646384  0.17038070  0.81233004  1
  H+  H100  1  0.26993129  0.13082906  0.66915524  1
  H+  H101  1  0.85480017  0.97208325  0.33931497  1
  H+  H102  1  0.86085396  0.22422602  0.00622104  1
  H+  H103  1  0.11130653  0.62546885  1.01474867  1
  H+  H104  1  0.61279703  0.12968886  0.34876335  1
  H+  H105  1  0.88442706  -0.00519053  1.00981883  1
  H+  H106  1  0.76890014  0.36274674  0.79739334  1
  H+  H107  1  0.65134028  0.02544208  0.65955928  1
  H+  H108  1  0.37340861  0.75224808  0.84271471  1
  H+  H109  1  0.51918129  0.37563494  0.18338731  1
  H+  H110  1  0.09232558  0.87967895  0.80323707  1
  H+  H111  1  0.96588218  0.86619130  0.29912749  1
  H+  H112  1  0.62949270  0.01929546  0.16056168  1
  H+  H113  1  0.12679062  0.88597298  0.64832505  1
  H+  H114  1  0.97129428  0.35815878  0.99237523  1
  H+  H115  1  0.52702249  0.63783188  0.16391882  1
  H+  H116  1  0.58480925  0.16529022  0.44027448  1
  H+  H117  1  0.12807296  0.60701397  0.18015337  1
  H+  H118  1  0.34621624  0.68142660  0.34830570  1
  H+  H119  1  0.88975681  0.61424949  0.31939334  1
  H+  H120  1  0.52927657  0.39527369  0.66919952  1
  H+  H121  1  0.64100099  0.77098987  0.17251267  1
  H+  H122  1  0.10366186  0.46821315  0.16596911  1
  H+  H123  1  0.98158563  0.62435316  0.17100007  1
  H+  H124  1  0.40408891  0.37036902  0.49302900  1
  H+  H125  1  0.73331106  0.85357472  0.17622340  1
  H+  H126  1  0.25171904  0.60236950  0.16171038  1
  H+  H127  1  0.39595299  0.02097267  0.50873238  1
  H+  H128  1  0.13453678  0.60599393  0.33107489  1
  H+  H129  1  0.46101215  0.37508492  0.34197992  1
  H+  H130  1  0.04618562  0.39223393  0.43225639  1
  H+  H131  1  0.71703359  0.60092722  0.84503948  1
  H+  H132  1  0.36042056  0.23524654  0.81598500  1
  H+  H133  1  0.13185222  0.36140473  0.98751590  1
  H+  H134  1  0.38201811  0.02173704  0.17826290  1
  H+  H135  1  0.41190759  0.28743730  0.50151115  1
  H+  H136  1  0.13044392  0.86069266  0.16900232  1
  H+  H137  1  0.27554511  0.13895720  0.34366934  1
  H+  H138  1  0.82398123  0.81154747  0.51185631  1
  H+  H139  1  0.11968438  0.13996507  0.82361401  1
  H+  H140  1  0.49005836  0.87237545  0.65228517  1
  H+  H141  1  0.87257085  -0.02094892  0.67510913  1
  H+  H142  1  0.85485971  0.72498156  0.15791269  1
  H+  H143  1  0.13784956  0.77261296  0.32247659  1
  H+  H144  1  0.85668399  0.66504376  0.41910721  1
  H+  H145  1  0.16455194  0.33537049  0.89136673  1
  H+  H146  1  0.63813946  0.02579622  0.33524649  1
  H+  H147  1  0.76942938  0.87351445  0.82916409  1
  H+  H148  1  0.47380878  0.86502348  0.99294023  1
  H+  H149  1  0.34629921  0.62339746  0.83074568  1
  H+  H150  1  0.97134517  0.85252437  0.64048753  1
  H+  H151  1  0.17301441  0.62630337  0.62577224  1
  H+  H152  1  0.32758575  0.66352281  0.06664111  1
  H+  H153  1  0.52599735  0.88792334  0.15632115  1
  H+  H154  1  0.87690601  0.86265012  0.31212523  1
  H+  H155  1  0.12248230  0.23097290  0.82071545  1
  H+  H156  1  0.08955895  0.92560751  0.47531529  1
  H+  H157  1  0.76901389  0.36334730  0.17204843  1
  H+  H158  1  0.22482528  0.37282912  0.97775167  1
  H+  H159  1  0.77936593  0.38026946  0.34423330  1
  H+  H160  1  0.79409066  0.90584014  0.00868611  1
  H+  H161  1  0.39662158  0.87341000  0.16581364  1
  H+  H162  1  0.97592917  0.10173290  0.50485180  1
  H+  H163  1  0.63185678  0.34943485  0.18955544  1
  H+  H164  1  0.36285209  0.38403818  0.81273172  1
  H+  H165  1  0.39911564  0.80293544  0.31108439  1
  H+  H166  1  0.88804678  0.37178561  0.65938069  1
  H+  H167  1  0.38264272  0.26814253  0.19630422  1
  H+  H168  1  0.78794778  0.14475233  0.66809822  1
  H+  H169  1  0.12429919  0.71785332  0.48901049  1
  H+  H170  1  0.27202506  0.88900690  0.33941514  1
  H+  H171  1  0.31998915  1.01985640  0.87181140  1
  H+  H172  1  0.14942739  0.02989659  0.65223898  1
  H+  H173  1  0.60480534  0.57000813  1.00014397  1
  H+  H174  1  -0.01687117  0.37049053  0.65127196  1
  H+  H175  1  0.29328642  0.63619116  0.65087263  1
  H+  H176  1  0.80930812  0.14237140  0.82414780  1
  H+  H177  1  0.27340106  0.38314339  0.81697365  1
  H+  H178  1  0.52162661  0.36661002  0.02466504  1
  H+  H179  1  0.88895936  0.27587515  0.65728628  1
  H+  H180  1  0.87061358  0.13060322  0.49007176  1
  H+  H181  1  0.92309734  0.27935859  0.48558295  1
  H+  H182  1  0.22405098  0.11284652  0.17872237  1
  H+  H183  1  0.02078888  0.89551147  0.76977733  1
  H+  H184  1  0.53082368  0.14289686  0.65804822  1
  H+  H185  1  -0.01418391  0.11291605  0.65888801  1
  H+  H186  1  0.54366671  0.41033474  0.48938613  1
  H+  H187  1  0.10785379  0.97866884  0.16043223  1
  H+  H188  1  0.37906173  0.14400353  0.49592871  1
  H+  H189  1  0.63284343  0.76616192  0.85045717  1
  H+  H190  1  0.89448207  0.84220240  0.21234432  1
  H+  H191  1  0.13384121  0.85973175  0.31738325  1
  H+  H192  1  0.11099727  0.97554689  0.00419766  1
  H+  H193  1  0.03536795  0.62843115  0.48958164  1
  H+  H194  1  0.36921660  0.50835486  0.98556548  1
  H+  H195  1  1.03202972  0.14295965  1.01138566  1
  H+  H196  1  0.38236177  0.51276565  0.82520896  1
  H+  H197  1  0.77261595  0.13453904  0.00785306  1
  H+  H198  1  0.58621445  0.07577512  0.84955911  1
  H+  H199  1  0.98481619  0.36322267  0.32630054  1
  H+  H200  1  0.41925364  0.07888004  0.85222683  1
  H+  H201  1  0.63012598  0.51298206  0.17386755  1
  H+  H202  1  0.37163773  0.38017390  0.18381630  1
  H+  H203  1  0.93134429  0.10844753  0.25482538  1
  H+  H204  1  0.13596627  0.10656895  0.99516855  1
  H+  H205  1  0.83967038  0.42098507  0.42990837  1
  H+  H206  1  0.63890184  0.25665102  0.34178173  1
  H+  H207  1  0.87190859  0.59512347  0.84138722  1
  H+  H208  1  0.65028722  0.63652553  0.30731947  1
  H+  H209  1  0.11160870  0.47475533  0.64975912  1
  H+  H210  1  -0.01310561  0.87714601  -0.00259996  1
  H+  H211  1  0.36253041  0.88784491  1.00644055  1
  H+  H212  1  0.42447757  0.61329424  0.50732244  1
  H+  H213  1  0.14041011  0.11267907  0.33003956  1
  H+  H214  1  0.88006392  0.72195167  1.02003234  1
  H+  H215  1  0.87418858  0.50727749  0.83338348  1
  H+  H216  1  0.27121406  0.88740855  0.15963600  1
  H+  H217  1  0.39826081  0.75853000  0.50105489  1
  H+  H218  1  0.16524308  0.86202243  0.50512635  1
  H+  H219  1  0.85116345  0.71270011  0.83501879  1
  H+  H220  1  0.40224842  0.39880581  0.97897446  1
  H+  H221  1  0.89736130  0.64571953  1.01989405  1
  H+  H222  1  0.63112329  0.60456827  0.16626281  1
  H+  H223  1  0.16853115  0.08495380  0.26832683  1
  H+  H224  1  0.86742715  0.72989765  0.32147128  1
  H+  H225  1  0.98404116  0.19662759  0.28863549  1
  H+  H226  1  0.10164785  0.70933685  0.02039619  1
  H+  H227  1  0.58653218  0.41136869  0.76729904  1
  H+  H228  1  0.63256152  0.53175164  0.66442598  1
  H+  H229  1  0.61742039  0.88888844  0.15717823  1
  H+  H230  1  0.50951829  0.86320191  0.82537651  1
  H+  H231  1  0.88033415  0.35118924  0.18082632  1
  H+  H232  1  0.01545387  0.89491693  0.15343077  1
  H+  H233  1  0.35538438  0.85454284  0.82250255  1
  H+  H234  1  0.36610929  0.89962672  0.33752470  1
  H+  H235  1  0.12147777  0.22928956  0.00614155  1
  H+  H236  1  0.11001807  0.47162915  0.00975154  1
  H+  H237  1  0.10187022  0.47140692  0.33940124  1
  H+  H238  1  0.61222712  0.88579050  0.33844635  1
  H+  H239  1  0.85589849  0.21721430  0.16330489  1
  H+  H240  1  0.60997101  0.62893208  0.83308384  1
  H+  H241  1  0.58776750  0.40588934  0.31270598  1
  H+  H242  1  0.02728555  0.63723888  0.33488084  1
  H+  H243  1  0.64720836  0.55943498  0.50992244  1
  H+  H244  1  0.60748326  0.21564831  0.17657087  1
  H+  H245  1  0.73832923  0.38825582  0.86722206  1
  H+  H246  1  0.86742026  0.36697079  0.83166619  1
  H+  H247  1  0.37136263  0.23845559  0.01630618  1
  H+  H248  1  0.36741146  0.13012203  0.66887096  1
  H+  H249  1  0.18668228  0.48341987  0.77710464  1
  H+  H250  1  0.24233204  0.60116770  0.49281582  1
  H+  H251  1  0.78702360  0.14055134  0.48989951  1
  H+  H252  1  0.61002940  0.49885033  0.32955537  1
  H+  H253  1  0.09047097  0.17317691  0.10359724  1
  H+  H254  1  0.47716314  0.35933383  0.82981222  1
  H+  H255  1  0.39971007  0.52245522  0.18379045  1
  H+  H256  1  0.48930301  0.88419540  0.32581843  1
  H+  H257  1  0.85681529  0.70213097  0.48542147  1
  H+  H258  1  0.88253484  0.10638562  0.17065377  1
  H+  H259  1  0.12564546  0.52531721  0.84054413  1
  H+  H260  1  0.64814920  0.11765918  0.50530872  1
  H+  H261  1  1.00521900  0.62793383  0.82949561  1
  H+  H262  1  0.97427280  0.35425668  0.17963641  1
  H+  H263  1  0.50638105  0.62620702  1.00660805  1
  H+  H264  1  0.63713269  0.74919899  0.68185803  1
  H+  H265  1  0.19997646  0.36106885  0.49136286  1
  H+  H266  1  0.36794946  0.64491900  0.00822305  1
  H+  H267  1  0.86060256  0.72030429  0.67711582  1
  H+  H268  1  0.91776604  0.07462980  0.56436546  1
  H+  H269  1  0.27232490  0.88619234  0.01241238  1
  H+  H270  1  0.63001767  0.85302889  0.84532694  1
  H+  H271  1  0.09171743  0.62238113  0.68499854  1
  H+  H272  1  0.17467141  0.05441811  0.50972539  1
  H+  H273  1  0.91892831  0.14307936  0.84841382  1
  H+  H274  1  0.72649579  0.34951373  1.01233461  1
  H+  H275  1  0.60788007  0.46856467  0.82706019  1
  H+  H276  1  0.96023715  0.37023677  0.84475714  1
  H+  H277  1  0.09298932  0.16800276  0.72959969  1
  H+  H278  1  0.73882430  0.87015256  0.66432361  1
  H+  H279  1  0.76627849  0.88377006  0.33626316  1
  H+  H280  1  0.14397201  0.36652475  0.82785762  1
  H+  H281  1  0.87117833  0.47925667  0.66844215  1
  H+  H282  1  0.15380604  0.60373460  0.49010688  1
  H+  H283  1  0.12021078  0.61068364  0.84636091  1
  H+  H284  1  0.21975954  0.36183462  0.65197026  1
  H+  H285  1  0.13181854  0.02401087  0.83219461  1
  H+  H286  1  0.12642407  0.85660407  1.00855372  1
  H+  H287  1  0.10542516  0.22375176  0.49287862  1
  H+  H288  1  0.50474139  0.08713207  0.77204793  1
  H+  H289  1  0.90653196  0.33135223  0.93494875  1
  H+  H290  1  0.41394732  0.08021004  0.23934176  1
  H+  H291  1  0.66434180  0.31876948  0.24685888  1
  H+  H292  1  0.10740548  0.38289046  0.65575613  1
  H+  H293  1  0.97086039  0.58824787  0.99483566  1
  H+  H294  1  0.06989781  0.66482561  0.73900118  1
  H+  H295  1  0.89965852  0.11798105  0.65851993  1
  H+  H296  1  0.91970521  0.57682977  0.56049595  1
  H+  H297  1  0.58462168  0.91431878  0.73223863  1
  H+  H298  1  0.83176476  0.90276416  0.77111157  1
  H+  H299  1  0.07727179  0.91795485  0.06612818  1
  H+  H300  1  0.90928399  0.56036650  0.93625898  1
  H+  H301  1  0.66952563  0.58947652  0.25339342  1
  H+  H302  1  0.65043327  0.56083010  0.90164614  1
  H+  H303  1  0.08717990  0.66619292  0.39451902  1
  H+  H304  1  0.68096245  0.08392981  0.56048439  1
  H+  H305  1  0.40477420  0.55747869  0.88953216  1
  H+  H306  1  0.60116032  0.68145851  0.74655785  1
  H+  H307  1  0.32404526  0.44265657  0.03908181  1
  H+  H308  1  0.85839573  0.90165485  0.10932082  1
  H+  H309  1  0.82824582  0.39544735  0.11279867  1
  H+  H310  1  0.37891008  0.27933608  0.34346546  1
  H+  H311  1  0.66495637  0.82923751  0.26657218  1
  H+  H312  1  0.27509042  0.54761444  0.11992616  1
  H+  H313  1  0.33804861  0.90778864  0.72461911  1
  H+  H314  1  0.85472923  0.46043070  0.01485501  1
  H+  H315  1  0.44239138  0.64142258  0.94466444  1
  H+  H316  1  0.40708494  0.33070607  0.25579183  1
  H+  H317  1  0.33682080  0.16676037  0.73196882  1
  H+  H318  1  0.18994690  0.11014653  0.56921505  1
  H+  H319  1  0.35429323  0.40643118  0.11993689  1
  H+  H320  1  0.34131766  0.91409182  0.43463218  1
  H+  H321  1  0.76579328  0.71472811  0.53499867  1
  H+  H322  1  0.37374315  0.72929179  0.65644887  1
  H+  H323  1  0.43505843  0.85798150  0.22505209  1
  H+  H324  1  0.12082013  0.14393033  0.49562567  1
  H+  H325  1  0.65849630  0.59650372  0.60666399  1
  H+  H326  1  0.51211958  0.63181222  0.34587286  1
  H+  H327  1  0.15744851  0.32670453  0.59415961  1
  H+  H328  1  0.16351485  0.83174173  0.22703584  1
  H+  H329  1  0.34975832  0.14207129  0.82460261  1
  H+  H330  1  0.66742202  0.33109001  0.95216722  1
  H+  H331  1  0.40533786  0.08901952  0.95213889  1
  H+  H332  1  0.15810627  0.57460051  0.23890538  1
  H+  H333  1  0.17433230  0.96599704  0.43591480  1
  H+  H334  1  0.65077768  0.11346453  0.65005394  1
  H+  H335  1  0.67676705  0.84418916  0.93855954  1
  H+  H336  1  0.37553849  0.87881911  0.48914827  1
  H+  H337  1  0.91809764  0.32660136  0.25982977  1
  H+  H338  1  0.57425533  0.39505215  0.12187695  1
  H+  H339  1  0.41728450  0.33957570  0.88775066  1
  H+  H340  1  0.49928327  0.43751303  0.96089584  1
  H+  H341  1  0.55581636  0.67803893  0.44884936  1
  H+  H342  1  0.34118257  0.18130973  0.11902245  1
  H+  H343  1  0.84217570  0.41751284  0.72934979  1
  H+  H344  1  0.58218166  0.91778241  0.06627061  1
  H+  H345  1  0.58460353  0.91408915  0.40013141  1
  H+  H346  1  0.41815924  0.08296275  0.59966101  1
  H+  H347  1  0.16885235  0.86459224  0.86948999  1
  H+  H348  1  0.64885572  0.29000450  0.64361624  1
  H+  H349  1  0.84461940  0.17398539  0.39983086  1
  H+  H350  1  0.60620521  0.18782056  0.70670697  1
  H+  H351  1  0.58120598  0.66240722  0.10194067  1
  H+  H352  1  0.15980658  0.07493433  0.93453811  1
  H+  H353  1  0.14792336  0.80865681  0.95739945  1
  H+  H354  1  0.85075791  0.18192035  0.72644799  1
  H+  H355  1  0.71916476  0.11279387  0.16247081  1
  H+  H356  1  0.91578196  0.84119646  0.93647516  1
  H+  H357  1  0.17770460  0.56944952  0.57312104  1
  H+  H358  1  0.60082710  0.44438072  0.43037847  1
  H+  H359  1  0.42898961  0.34836318  0.59125619  1
  H+  H360  1  0.51494342  0.12510418  0.17314704  1
  H+  H361  1  0.05181003  0.90297584  0.37158324  1
  H+  H362  1  0.16084632  0.57883972  0.94103574  1
  H+  H363  1  0.88440355  0.80460894  0.59969028  1
  H+  H364  1  0.67900560  0.35365604  0.55751785  1
  H+  H365  1  0.82453844  0.65825371  0.77294921  1
  H+  H366  1  0.72114679  0.86072923  0.51113315  1
  H+  H367  1  0.61621331  0.97795468  0.49154518  1
  H+  H368  1  0.82950731  0.16418477  0.10071191  1
  H+  H369  1  0.33371376  0.92193512  0.10231480  1
  H+  H370  1  0.40852650  0.82225392  0.89830272  1
  H+  H371  1  0.38623000  0.60223434  0.17872652  1
  H+  H372  1  0.91929476  0.58651429  0.23258209  1
  H+  H373  1  0.82488336  0.90485435  0.43507114  1
  H+  H374  1  0.07718544  0.40759208  0.06650890  1
  H+  H375  1  0.42449494  0.82348949  0.55802958  1
  H+  H376  1  0.32791162  0.41847917  0.71776543  1
  H+  H377  1  0.33837205  0.17027362  0.40260262  1
  H+  H378  1  0.72472614  0.11662483  0.33565452  1
  H+  H379  1  0.08788872  0.16431361  0.40369940  1
  H+  H380  1  0.93219223  0.09695158  0.94012534  1
  H+  H381  1  0.42449390  0.58080916  0.27531250  1
  H+  H382  1  0.67247494  0.83568587  0.60687574  1
  H+  H383  1  0.17478710  0.34046878  0.24275557  1
  O2-  O384  1  0.08546804  0.16860241  0.14904308  1
  O2-  O385  1  0.08125296  0.16247587  0.47891546  1
  O2-  O386  1  0.09168526  0.17051476  0.80517268  1
  O2-  O387  1  0.07633533  0.40781548  0.15044466  1
  O2-  O388  1  0.04062337  0.37583838  0.47586272  1
  O2-  O389  1  0.12644834  0.44470111  0.78744308  1
  O2-  O390  1  0.07653307  0.66109158  0.15183546  1
  O2-  O391  1  0.09327685  0.65943153  0.47070320  1
  O2-  O392  1  0.06658904  0.66075125  0.81404229  1
  O2-  O393  1  0.07682090  0.91917687  0.14283034  1
  O2-  O394  1  0.15266923  0.95418580  0.47761591  1
  O2-  O395  1  0.06373867  0.91484465  0.80209808  1
  O2-  O396  1  0.33258454  0.17151048  0.16397791  1
  O2-  O397  1  0.35610194  0.18070386  0.48036020  1
  O2-  O398  1  0.32905931  0.17398421  0.79933143  1
  O2-  O399  1  0.34529312  0.41254612  0.16284942  1
  O2-  O400  1  0.28361905  0.41940113  0.43093079  1
  O2-  O401  1  0.33223561  0.41426780  0.79861206  1
  O2-  O402  1  0.30105721  0.60445540  0.13845463  1
  O2-  O403  1  0.34414473  0.64646880  0.47304149  1
  O2-  O404  1  0.31901035  0.65844475  0.82323676  1
  O2-  O405  1  0.33292607  0.92144638  0.14758960  1
  O2-  O406  1  0.34597431  0.91230618  0.47995580  1
  O2-  O407  1  0.32863580  0.88896417  0.80386141  1
  O2-  O408  1  0.57701082  0.15584025  0.15885499  1
  O2-  O409  1  0.58771272  0.16815337  0.48604870  1
  O2-  O410  1  0.51450292  0.10746648  0.81419420  1
  O2-  O411  1  0.57913064  0.40335249  0.16706418  1
  O2-  O412  1  0.60466512  0.44347990  0.47508632  1
  O2-  O413  1  0.58164169  0.40759834  0.81257704  1
  O2-  O414  1  0.58688176  0.66600452  0.14709349  1
  O2-  O415  1  0.55665327  0.67203814  0.49330319  1
  O2-  O416  1  0.58401313  0.66341792  0.81713661  1
  O2-  O417  1  0.58784877  0.91821958  0.13997891  1
  O2-  O418  1  0.58896692  0.91713381  0.47730060  1
  O2-  O419  1  0.57133963  0.89618985  0.81202910  1
  O2-  O420  1  0.82338071  0.15841130  0.14604143  1
  O2-  O421  1  0.84702979  0.16676729  0.47410234  1
  O2-  O422  1  0.85964651  0.18861385  0.80450926  1
  O2-  O423  1  0.82922905  0.38988235  0.15775262  1
  O2-  O424  1  0.83461787  0.42269048  0.47607707  1
  O2-  O425  1  0.82956565  0.40590909  0.80114909  1
  O2-  O426  1  0.83493891  0.66807421  0.17616977  1
  O2-  O427  1  0.86372470  0.65824894  0.46301376  1
  O2-  O428  1  0.82111412  0.65337505  0.81826522  1
  O2-  O429  1  0.84624566  0.88601674  0.15289045  1
  O2-  O430  1  0.82292238  0.90228067  0.48009662  1
  O2-  O431  1  0.82905036  0.89383388  0.81570372  1
  O2-  O432  1  0.16248003  0.08072461  0.19204863  1
  O2-  O433  1  0.19400298  0.11359192  0.52406122  1
  O2-  O434  1  0.16421402  0.08164060  0.85061808  1
  O2-  O435  1  0.17258368  0.33845867  0.19774621  1
  O2-  O436  1  0.14798762  0.32479328  0.51598274  1
  O2-  O437  1  0.17033838  0.33464638  0.84590957  1
  O2-  O438  1  0.15582223  0.57342000  0.19332892  1
  O2-  O439  1  0.17995415  0.57054101  0.50554991  1
  O2-  O440  1  0.14930443  0.58014537  0.86289085  1
  O2-  O441  1  0.16147522  0.83032122  0.18159096  1
  O2-  O442  1  0.18520445  0.82292258  0.51927257  1
  O2-  O443  1  0.16235645  0.84200331  0.82834958  1
  O2-  O444  1  0.41466524  0.08241594  0.19377727  1
  O2-  O445  1  0.42222683  0.08053862  0.52538423  1
  O2-  O446  1  0.36988127  0.07774104  0.87367621  1
  O2-  O447  1  0.41480358  0.32984146  0.21067754  1
  O2-  O448  1  0.43795105  0.34884383  0.51476195  1
  O2-  O449  1  0.41492954  0.33116117  0.84289364  1
  O2-  O450  1  0.42653452  0.58426280  0.19483763  1
  O2-  O451  1  0.36495513  0.57988700  0.49172748  1
  O2-  O452  1  0.41175522  0.57086811  0.84595852  1
  O2-  O453  1  0.43143883  0.84820337  0.18066554  1
  O2-  O454  1  0.42338138  0.82011693  0.51248300  1
  O2-  O455  1  0.40705238  0.81706906  0.85296851  1
  O2-  O456  1  0.65639473  0.08127077  0.17373658  1
  O2-  O457  1  0.67878894  0.08576558  0.51530705  1
  O2-  O458  1  0.63129423  0.06233807  0.86138653  1
  O2-  O459  1  0.66051212  0.31614432  0.20182350  1
  O2-  O460  1  0.67738180  0.34970302  0.51197418  1
  O2-  O461  1  0.67787910  0.35151219  0.87870398  1
  O2-  O462  1  0.66260348  0.57603205  0.18289634  1
  O2-  O463  1  0.65901016  0.61185393  0.53237241  1
  O2-  O464  1  0.65476443  0.56993474  0.85669017  1
  O2-  O465  1  0.67272704  0.83144559  0.18814722  1
  O2-  O466  1  0.66406390  0.83689570  0.53160671  1
  O2-  O467  1  0.66249883  0.82719884  0.86424450  1
  O2-  O468  1  0.91639362  0.08255709  0.18943320  1
  O2-  O469  1  0.91489513  0.07059120  0.51909394  1
  O2-  O470  1  0.94037715  0.10831832  0.86794679  1
  O2-  O471  1  0.91495591  0.32288408  0.19787683  1
  O2-  O472  1  0.95016837  0.34292061  0.49004431  1
  O2-  O473  1  0.89965033  0.33552226  0.85542841  1
  O2-  O474  1  0.91923826  0.59503893  0.18676514  1
  O2-  O475  1  0.92454421  0.57237312  0.51554562  1
  O2-  O476  1  0.90434903  0.56564350  0.85297761  1
  O2-  O477  1  0.89719050  0.84399147  0.16639483  1
  O2-  O478  1  0.82558949  0.76357541  0.53338800  1
  O2-  O479  1  0.90346699  0.82074036  0.86690099  1
  O2-  O480  1  0.16873963  0.08060378  0.31412024  1
  O2-  O481  1  0.18370793  0.09401927  0.64773044  1
  O2-  O482  1  0.15772321  0.06928432  0.97917175  1
  O2-  O483  1  0.16876510  0.34030695  0.32852951  1
  O2-  O484  1  0.15723016  0.32778687  0.63960702  1
  O2-  O485  1  0.16296802  0.33412437  0.96855257  1
  O2-  O486  1  0.15751607  0.56839957  0.31700448  1
  O2-  O487  1  0.17518050  0.57373893  0.62064096  1
  O2-  O488  1  0.16532798  0.57803746  0.98621077  1
  O2-  O489  1  0.16885885  0.83310522  0.30655223  1
  O2-  O490  1  0.17535412  0.82784019  0.63959552  1
  O2-  O491  1  0.15775323  0.82385891  1.00022560  1
  O2-  O492  1  0.41960698  0.08773384  0.31713057  1
  O2-  O493  1  0.41931599  0.08670206  0.64597951  1
  O2-  O494  1  0.41916783  0.08735692  0.99541535  1
  O2-  O495  1  0.39901665  0.34076388  0.33231449  1
  O2-  O496  1  0.42589040  0.34639586  0.63699600  1
  O2-  O497  1  0.44482360  0.38208997  0.96529901  1
  O2-  O498  1  0.42475148  0.57494703  0.32013735  1
  O2-  O499  1  0.43243174  0.58927082  0.61864217  1
  O2-  O500  1  0.42549877  0.60502970  0.98067408  1
  O2-  O501  1  0.43115140  0.86493207  0.30613640  1
  O2-  O502  1  0.43178713  0.84348351  0.63363802  1
  O2-  O503  1  0.41328369  0.83536361  0.97804148  1
  O2-  O504  1  0.66345400  0.08739927  0.32439898  1
  O2-  O505  1  0.68419639  0.08465387  0.64142436  1
  O2-  O506  1  0.66071217  0.08259077  0.98514280  1
  O2-  O507  1  0.67337652  0.32014801  0.32815074  1
  O2-  O508  1  0.67973734  0.35239870  0.63512793  1
  O2-  O509  1  0.66412065  0.31827766  0.99711509  1
  O2-  O510  1  0.67192424  0.59697186  0.29971114  1
  O2-  O511  1  0.66337821  0.59390941  0.65237138  1
  O2-  O512  1  0.61648133  0.53073522  0.97542713  1
  O2-  O513  1  0.66560593  0.83302009  0.31213091  1
  O2-  O514  1  0.67609167  0.83641319  0.65279137  1
  O2-  O515  1  0.68682944  0.85987580  0.98335069  1
  O2-  O516  1  0.94733954  0.13595881  0.29850892  1
  O2-  O517  1  0.92472995  0.08244053  0.64502906  1
  O2-  O518  1  0.92773564  0.09067324  0.98626317  1
  O2-  O519  1  0.91974796  0.32956505  0.30995034  1
  O2-  O520  1  0.91761066  0.33853715  0.64225339  1
  O2-  O521  1  0.90949152  0.32708028  0.98013976  1
  O2-  O522  1  0.92030228  0.58304519  0.30560392  1
  O2-  O523  1  0.91182041  0.58117335  0.64054411  1
  O2-  O524  1  0.90984265  0.55765675  0.98133468  1
  O2-  O525  1  0.90362096  0.83378395  0.28943341  1
  O2-  O526  1  0.90806843  0.82203337  0.64197611  1
  O2-  O527  1  0.92356440  0.85295402  0.98243883  1
  O2-  O528  1  0.09330282  0.17153164  0.02531339  1
  O2-  O529  1  0.09458472  0.16920501  0.35801272  1
  O2-  O530  1  0.09439102  0.16468292  0.68375035  1
  O2-  O531  1  0.07773036  0.40941450  0.02131660  1
  O2-  O532  1  0.06789596  0.40812783  0.35191428  1
  O2-  O533  1  0.07815071  0.41609531  0.66887608  1
  O2-  O534  1  0.07380489  0.64765248  0.03089490  1
  O2-  O535  1  0.08813083  0.66835872  0.34881626  1
  O2-  O536  1  0.07394079  0.66459939  0.69307196  1
  O2-  O537  1  0.07724716  0.91345759  0.02045154  1
  O2-  O538  1  0.07249106  0.91323891  0.32981291  1
  O2-  O539  1  0.09842194  0.91980645  0.66162497  1
  O2-  O540  1  0.36091887  0.19263841  0.04454930  1
  O2-  O541  1  0.33667939  0.17222188  0.35718796  1
  O2-  O542  1  0.33540868  0.16115667  0.68443504  1
  O2-  O543  1  0.33479329  0.44290465  -0.00430718  1
  O2-  O544  1  0.34672709  0.39055180  0.43495528  1
  O2-  O545  1  0.32215769  0.41509325  0.67280729  1
  O2-  O546  1  0.33287551  0.67217852  0.02200293  1
  O2-  O547  1  0.31318028  0.62297181  0.36338708  1
  O2-  O548  1  0.34949089  0.66956956  0.67069823  1
  O2-  O549  1  0.33435951  0.91995408  0.02278345  1
  O2-  O550  1  0.33109334  0.92213221  0.35705885  1
  O2-  O551  1  0.34117118  0.92079288  0.68046103  1
  O2-  O552  1  0.58220485  0.16099918  0.01992833  1
  O2-  O553  1  0.58318047  0.16265124  0.36404128  1
  O2-  O554  1  0.59484692  0.17511832  0.66355403  1
  O2-  O555  1  0.57737030  0.39020160  0.04548358  1
  O2-  O556  1  0.57866987  0.43775286  0.34492259  1
  O2-  O557  1  0.58828798  0.42543956  0.68712697  1
  O2-  O558  1  0.56945745  0.64311909  0.02423191  1
  O2-  O559  1  0.57440211  0.67024116  0.36329033  1
  O2-  O560  1  0.60808347  0.68735885  0.70025841  1
  O2-  O561  1  0.58098997  0.92201131  0.02024774  1
  O2-  O562  1  0.58287271  0.91635571  0.35456031  1
  O2-  O563  1  0.59306494  0.92280368  0.68743495  1
  O2-  O564  1  0.83265481  0.16425520  0.02299887  1
  O2-  O565  1  0.84116667  0.17885999  0.35406901  1
  O2-  O566  1  0.84953259  0.18074373  0.68094530  1
  O2-  O567  1  0.82460656  0.40062491  0.03240324  1
  O2-  O568  1  0.84085227  0.41791418  0.35698872  1
  O2-  O569  1  0.84300494  0.41777690  0.68227281  1
  O2-  O570  1  0.90824615  0.69696992  0.04323016  1
  O2-  O571  1  0.84186299  0.67077093  0.33864560  1
  O2-  O572  1  0.82969791  0.65992212  0.69238222  1
  O2-  O573  1  0.85439148  0.93178470  0.02349728  1
  O2-  O574  1  0.82771848  0.91185135  0.35134241  1
  O2-  O575  1  0.83978971  0.91804149  0.68942427  1
