# generated using pymatgen
data_H2O
_symmetry_space_group_name_H-M   'P 1'
_cell_length_a   17.99904973
_cell_length_b   18.00156956
_cell_length_c   22.01170279
_cell_angle_alpha   90.00475544
_cell_angle_beta   89.99300677
_cell_angle_gamma   120.00570828
_symmetry_Int_Tables_number   1
_chemical_formula_structural   H2O
_chemical_formula_sum   'H384 O192'
_cell_volume   6176.16990090
_cell_formula_units_Z   192
loop_
 _symmetry_equiv_pos_site_id
 _symmetry_equiv_pos_as_xyz
  1  'x, y, z'
loop_
 _atom_type_symbol
 _atom_type_oxidation_number
  H+  1.0
  O2-  -2.0
loop_
 _atom_site_type_symbol
 _atom_site_label
 _atom_site_symmetry_multiplicity
 _atom_site_fract_x
 _atom_site_fract_y
 _atom_site_fract_z
 _atom_site_occupancy
  H+  H0  1  0.49519277  0.63030404  0.34104399  1
  H+  H1  1  0.62878163  0.53104045  0.83409542  1
  H+  H2  1  0.88009716  0.11457234  0.19411360  1
  H+  H3  1  0.10838339  0.88194540  0.15678990  1
  H+  H4  1  0.97253768  0.36372132  0.50945483  1
  H+  H5  1  0.37269607  0.77835235  -0.03348789  1
  H+  H6  1  0.13279024  0.76723252  0.66944426  1
  H+  H7  1  0.88049700  0.00870775  1.00445435  1
  H+  H8  1  0.58095232  0.88458808  0.66936360  1
  H+  H9  1  0.22964748  0.36431318  0.17549616  1
  H+  H10  1  0.35638107  0.97876913  0.30573154  1
  H+  H11  1  0.11784179  0.48139719  0.82113477  1
  H+  H12  1  0.13289353  0.24988241  0.33916970  1
  H+  H13  1  0.83586985  0.41719812  0.76039028  1
  H+  H14  1  0.87700284  0.27398724  0.33324599  1
  H+  H15  1  0.64134474  0.36258068  0.66683777  1
  H+  H16  1  0.47105748  0.61554427  0.83133810  1
  H+  H17  1  0.36650427  0.38963495  0.15729972  1
  H+  H18  1  0.39921561  0.03518595  0.16507442  1
  H+  H19  1  0.64372112  1.00257731  0.32691598  1
  H+  H20  1  0.39605399  0.28384245  0.16852250  1
  H+  H21  1  0.86267631  0.47228774  0.49383159  1
  H+  H22  1  0.34150293  0.91111574  0.25634348  1
  H+  H23  1  0.06638234  0.94943551  0.50816960  1
  H+  H24  1  0.02324588  0.39096009  0.66948009  1
  H+  H25  1  0.09297188  0.87550884  0.50652656  1
  H+  H26  1  0.63702035  0.10954905  0.51660174  1
  H+  H27  1  0.39300419  0.51833280  0.17153545  1
  H+  H28  1  0.35882389  0.46566594  0.34172627  1
  H+  H29  1  0.26394166  0.64382771  0.67280208  1
  H+  H30  1  0.61595877  0.40066641  0.82377861  1
  H+  H31  1  0.72295314  0.62744575  0.50048847  1
  H+  H32  1  0.62505789  0.30576778  0.32244585  1
  H+  H33  1  0.85996967  0.38570942  0.16670099  1
  H+  H34  1  0.88166652  0.02743327  0.18720021  1
  H+  H35  1  0.94339220  0.82227119  0.62432950  1
  H+  H36  1  0.78818906  0.88912581  0.82050351  1
  H+  H37  1  0.37223498  0.53187223  0.66108946  1
  H+  H38  1  0.36421395  0.47722031  0.82744015  1
  H+  H39  1  0.52140146  0.38869558  0.99782495  1
  H+  H40  1  0.88180882  0.79356070  0.19028341  1
  H+  H41  1  0.13905936  0.36660072  0.83438691  1
  H+  H42  1  0.52300689  0.39155330  0.82244292  1
  H+  H43  1  0.62881529  0.46651781  0.66060539  1
  H+  H44  1  0.01112316  0.37722984  0.00846605  1
  H+  H45  1  0.02611308  0.86495523  0.81980223  1
  H+  H46  1  0.62937399  0.53999060  0.31798013  1
  H+  H47  1  0.14083350  0.01582376  0.83213666  1
  H+  H48  1  0.61359189  0.88726650  0.50095468  1
  H+  H49  1  0.85602536  0.06997892  0.96843829  1
  H+  H50  1  0.23402867  0.11954386  0.17475416  1
  H+  H51  1  0.96642494  0.67683040  0.95522163  1
  H+  H52  1  0.10579410  0.94766383  0.34789205  1
  H+  H53  1  0.75615333  0.11148610  1.00352112  1
  H+  H54  1  0.00982872  0.39238095  0.34937303  1
  H+  H55  1  0.66167291  0.77872572  0.32387318  1
  H+  H56  1  0.88014304  0.35813288  0.50822790  1
  H+  H57  1  0.13433974  0.75827765  0.00279099  1
  H+  H58  1  0.36911828  0.48272926  1.00336734  1
  H+  H59  1  0.88614757  0.52940616  0.32158516  1
  H+  H60  1  0.50403300  0.89508258  0.68565301  1
  H+  H61  1  0.58361819  0.67152474  0.06678339  1
  H+  H62  1  0.52407914  0.64762853  1.00692665  1
  H+  H63  1  0.07909450  0.07645377  0.52195347  1
  H+  H64  1  0.89181203  0.60485801  0.15181915  1
  H+  H65  1  1.02053705  0.62512793  0.66072193  1
  H+  H66  1  0.21262189  0.86632626  0.53075418  1
  H+  H67  1  0.53240462  0.40680195  0.33933758  1
  H+  H68  1  0.40268673  0.28476725  0.32513472  1
  H+  H69  1  0.57481242  0.20171881  0.01895590  1
  H+  H70  1  0.61486195  0.92972253  0.83636278  1
  H+  H71  1  0.92887686  0.15556627  0.03987536  1
  H+  H72  1  0.76865455  0.13792298  0.66856256  1
  H+  H73  1  0.35899956  0.89531228  0.68017055  1
  H+  H74  1  0.35633969  0.74958917  0.82094101  1
  H+  H75  1  0.23658606  0.35270278  0.33033111  1
  H+  H76  1  0.36518323  0.88851597  0.16425708  1
  H+  H77  1  1.02488972  0.14672067  0.49353640  1
  H+  H78  1  0.66598106  0.83432820  0.66074269  1
  H+  H79  1  0.73130698  0.86418425  0.50309183  1
  H+  H80  1  0.67672930  0.76600374  0.86281152  1
  H+  H81  1  0.61482971  0.97670180  0.49760968  1
  H+  H82  1  0.88605693  0.27787018  0.18521778  1
  H+  H83  1  0.11463219  0.87578053  0.71828442  1
  H+  H84  1  0.39736082  0.60873133  0.18224689  1
  H+  H85  1  0.42858341  0.34368865  0.26457686  1
  H+  H86  1  0.47596145  0.10680679  0.84756184  1
  H+  H87  1  1.03056471  0.14970358  0.34627068  1
  H+  H88  1  0.54665405  0.40642659  0.48894265  1
  H+  H89  1  0.13760039  0.36578124  0.66183999  1
  H+  H90  1  0.23338801  0.08996484  0.66124084  1
  H+  H91  1  -0.03128994  0.60875949  0.50374480  1
  H+  H92  1  0.46218382  0.61613924  0.65360589  1
  H+  H93  1  0.36917317  0.47491784  0.49599517  1
  H+  H94  1  0.12033331  0.14137612  0.14523518  1
  H+  H95  1  0.35784404  0.23038770  0.00096656  1
  H+  H96  1  0.62461309  0.16721242  0.82885441  1
  H+  H97  1  0.11315470  0.48182517  0.66745543  1
  H+  H98  1  0.09135121  0.65892488  0.74284732  1
  H+  H99  1  0.88876409  0.71985259  0.11822762  1
  H+  H100  1  0.22603153  0.15980734  0.62581181  1
  H+  H101  1  0.14072815  0.36267922  0.18248364  1
  H+  H102  1  0.72790892  0.11366353  0.50710016  1
  H+  H103  1  0.47821004  0.86483778  0.17875368  1
  H+  H104  1  0.89087460  0.86116645  0.99820675  1
  H+  H105  1  0.38442756  0.35599101  0.83289681  1
  H+  H106  1  0.64412256  0.02839813  0.66615562  1
  H+  H107  1  0.21779085  0.61478034  0.33067225  1
  H+  H108  1  0.85982665  0.70344759  0.49339867  1
  H+  H109  1  0.74481243  0.13353049  0.02799138  1
  H+  H110  1  0.77472056  0.38907513  0.81941657  1
  H+  H111  1  0.85952916  0.23108947  0.49589536  1
  H+  H112  1  0.79313956  0.89863454  0.34137031  1
  H+  H113  1  0.63941175  0.39950524  0.32288489  1
  H+  H114  1  0.13960972  0.27778996  0.66710947  1
  H+  H115  1  0.64115779  0.28052018  0.51640729  1
  H+  H116  1  0.62360695  0.62348165  0.31035494  1
  H+  H117  1  0.10823853  0.04479361  0.57992564  1
  H+  H118  1  0.63350236  0.28715892  0.83713347  1
  H+  H119  1  -0.01995367  0.37229207  0.83225293  1
  H+  H120  1  0.34050307  0.14012150  0.76658151  1
  H+  H121  1  0.88951509  0.04020845  0.50687472  1
  H+  H122  1  0.22215043  0.11299686  0.99277611  1
  H+  H123  1  0.61758510  0.39969600  0.14950342  1
  H+  H124  1  0.63331511  0.10431603  0.16976579  1
  H+  H125  1  0.63357229  0.08469414  0.32160921  1
  H+  H126  1  0.02729662  0.14252763  0.67475339  1
  H+  H127  1  0.09020123  0.17180546  0.76896577  1
  H+  H128  1  0.88522702  0.53598343  0.97927666  1
  H+  H129  1  0.27561349  0.63558245  0.18146136  1
  H+  H130  1  0.76113871  0.63997253  0.32859697  1
  H+  H131  1  0.65267893  0.59160513  0.89363937  1
  H+  H132  1  0.46378303  0.85779880  0.98180599  1
  H+  H133  1  0.02142022  0.63756930  0.01389179  1
  H+  H134  1  0.22656285  0.85637940  0.30410911  1
  H+  H135  1  0.77700543  0.14156674  0.82488656  1
  H+  H136  1  0.47424507  0.61178988  0.51499778  1
  H+  H137  1  0.38765702  0.62430237  0.83843629  1
  H+  H138  1  0.21840099  0.09762943  0.49651529  1
  H+  H139  1  0.14675298  0.83037600  0.58483053  1
  H+  H140  1  0.22767973  0.84230657  0.83220052  1
  H+  H141  1  0.53409911  0.63026683  0.16453718  1
  H+  H142  1  0.40558204  0.13482153  0.53375778  1
  H+  H143  1  0.77414194  0.88950531  0.16131693  1
  H+  H144  1  0.87049762  0.81322441  0.54249448  1
  H+  H145  1  0.61996361  0.72333447  0.16278346  1
  H+  H146  1  0.63027869  0.05104125  0.82012702  1
  H+  H147  1  0.74309510  0.61979905  0.12941278  1
  H+  H148  1  0.76559403  0.64099489  0.82725830  1
  H+  H149  1  0.38788032  0.64704298  0.49297404  1
  H+  H150  1  0.87745738  0.52231098  0.83303808  1
  H+  H151  1  0.11791466  0.22452934  0.97586643  1
  H+  H152  1  0.21753263  0.85971117  0.67660007  1
  H+  H153  1  0.62760610  0.19340746  0.28256425  1
  H+  H154  1  0.63047364  0.62140065  0.98664873  1
  H+  H155  1  0.48970320  0.12296696  0.16472567  1
  H+  H156  1  0.88720513  0.21011139  0.02633941  1
  H+  H157  1  0.62422655  0.27946031  0.17343496  1
  H+  H158  1  0.88636749  0.87467659  0.68211793  1
  H+  H159  1  0.86590038  0.47500011  0.66868301  1
  H+  H160  1  0.28018941  0.39384091  0.00294881  1
  H+  H161  1  0.09132736  0.47881903  0.50064084  1
  H+  H162  1  0.61718138  0.40086322  0.99760524  1
  H+  H163  1  0.35867655  0.89824272  0.52099098  1
  H+  H164  1  0.13602344  0.48931554  1.00554106  1
  H+  H165  1  0.37146216  0.77976588  0.66747014  1
  H+  H166  1  0.86798564  0.71168316  0.68093071  1
  H+  H167  1  0.36639218  0.59418166  0.32196540  1
  H+  H168  1  0.84938494  0.62975219  0.82976559  1
  H+  H169  1  0.61027963  0.69172071  0.65297741  1
  H+  H170  1  0.89383598  0.65464800  1.01817648  1
  H+  H171  1  0.63219594  0.40337011  0.48712142  1
  H+  H172  1  0.40114493  0.85836329  0.33312583  1
  H+  H173  1  0.87527611  0.59747219  0.50225004  1
  H+  H174  1  0.79261608  0.86626660  0.66934285  1
  H+  H175  1  0.09839506  0.47942371  0.34773917  1
  H+  H176  1  0.89737359  0.76467612  0.83760518  1
  H+  H177  1  0.87217731  0.14222054  0.34515630  1
  H+  H178  1  0.13334032  0.11206675  -0.02471600  1
  H+  H179  1  0.11522166  0.13934836  0.67821397  1
  H+  H180  1  0.87554081  0.98419956  0.81578096  1
  H+  H181  1  0.64847124  0.83620023  0.84348027  1
  H+  H182  1  0.89035711  0.37370077  0.83215067  1
  H+  H183  1  0.88773286  0.12765968  0.50686116  1
  H+  H184  1  0.38929189  0.36765222  0.98699289  1
  H+  H185  1  0.11186748  0.62638434  0.65543942  1
  H+  H186  1  0.23106570  0.11857988  0.52755229  1
  H+  H187  1  0.53365393  0.87423943  0.34621360  1
  H+  H188  1  0.13842459  0.84415395  0.82115851  1
  H+  H189  1  -0.02347831  0.85596197  0.33604722  1
  H+  H190  1  0.27626328  0.39410415  0.67295635  1
  H+  H191  1  0.50641469  0.15817239  0.69308294  1
  H+  H192  1  0.45300593  0.10073027  0.00435143  1
  H+  H193  1  0.63957437  0.78121304  1.00082633  1
  H+  H194  1  0.88215006  0.36085315  0.65807395  1
  H+  H195  1  0.63906891  0.77547618  0.50459705  1
  H+  H196  1  0.13241093  0.76239242  0.16328577  1
  H+  H197  1  0.66329984  0.06773409  0.22722437  1
  H+  H198  1  0.67470995  0.35387472  0.89213531  1
  H+  H199  1  0.28083890  0.12575564  0.82417410  1
  H+  H200  1  0.77113251  0.40155530  0.33689683  1
  H+  H201  1  0.47303077  0.11371308  0.31391473  1
  H+  H202  1  0.60313645  0.62717727  0.81511155  1
  H+  H203  1  0.77298309  0.38889945  0.16176748  1
  H+  H204  1  0.52245823  0.13702921  0.53206137  1
  H+  H205  1  0.61382418  0.64853041  0.50031078  1
  H+  H206  1  0.40416331  0.07542919  0.93974457  1
  H+  H207  1  0.01682310  0.64476571  0.33529830  1
  H+  H208  1  0.36105368  0.71757003  0.33708261  1
  H+  H209  1  0.32861140  0.17151467  0.49207595  1
  H+  H210  1  0.20744591  0.61483777  0.50459326  1
  H+  H211  1  0.88010366  0.77254862  0.32715895  1
  H+  H212  1  0.22102261  0.85539953  0.16647487  1
  H+  H213  1  0.12090838  0.14190433  0.82733808  1
  H+  H214  1  0.34848958  0.97242347  0.01264792  1
  H+  H215  1  0.44090713  0.35274625  0.56767997  1
  H+  H216  1  0.20985484  0.85157823  1.00396354  1
  H+  H217  1  0.97620111  0.36676246  0.18493396  1
  H+  H218  1  0.12977901  0.73407651  0.80781820  1
  H+  H219  1  0.38444243  0.09891411  0.84275650  1
  H+  H220  1  0.63360644  0.85697268  0.17140762  1
  H+  H221  1  0.88561231  0.44678979  -0.03002896  1
  H+  H222  1  0.66909696  0.58573082  0.55957603  1
  H+  H223  1  0.85609431  0.24086559  0.82247629  1
  H+  H224  1  0.40168891  0.38246751  0.65353145  1
  H+  H225  1  0.38911840  0.61939938  -0.01322472  1
  H+  H226  1  0.65200228  0.62152577  0.14950904  1
  H+  H227  1  0.77513970  0.38539634  0.67139746  1
  H+  H228  1  0.86336419  0.24201288  0.66666040  1
  H+  H229  1  0.73248800  0.36569948  0.50994430  1
  H+  H230  1  0.32494526  0.93724409  0.47202270  1
  H+  H231  1  0.14319514  0.61374360  0.17553554  1
  H+  H232  1  0.84809671  0.63446096  0.32859638  1
  H+  H233  1  0.60363546  0.88130406  0.00550610  1
  H+  H234  1  0.58086126  0.08691709  0.98644374  1
  H+  H235  1  0.40946033  0.37428441  0.50481268  1
  H+  H236  1  0.65409760  0.86190028  0.33015139  1
  H+  H237  1  0.90462199  1.03725025  0.33917784  1
  H+  H238  1  0.47569742  0.87430422  0.51494619  1
  H+  H239  1  0.22435844  0.09616476  0.33563040  1
  H+  H240  1  0.85441036  0.39006888  0.33905754  1
  H+  H241  1  0.10480053  0.64600707  0.49214183  1
  H+  H242  1  0.75365428  0.41644215  -0.02859857  1
  H+  H243  1  0.35549979  0.65019470  0.67568393  1
  H+  H244  1  0.14763842  0.02970269  0.17361449  1
  H+  H245  1  0.12411511  0.22044873  0.50025397  1
  H+  H246  1  0.77581864  0.88425174  0.01348078  1
  H+  H247  1  1.02873839  0.13704555  0.98155010  1
  H+  H248  1  0.11912938  0.22596546  0.14651538  1
  H+  H249  1  0.54040317  0.72656726  0.35843472  1
  H+  H250  1  0.38891476  0.26844220  0.83275694  1
  H+  H251  1  0.87339101  0.32288345  0.98150741  1
  H+  H252  1  0.16568668  0.58463662  0.23859301  1
  H+  H253  1  0.27591497  0.38906914  0.82575332  1
  H+  H254  1  0.48645328  0.37498952  0.65743599  1
  H+  H255  1  0.08572639  0.65266450  0.10192669  1
  H+  H256  1  0.37406452  0.15038536  0.33721067  1
  H+  H257  1  0.77793578  0.12931786  0.33951847  1
  H+  H258  1  0.37053451  0.38346778  0.34063120  1
  H+  H259  1  0.24236931  0.34895030  0.51288066  1
  H+  H260  1  0.89955887  0.12727017  0.66168540  1
  H+  H261  1  0.35250469  0.13857863  0.00476696  1
  H+  H262  1  0.12858013  0.76358629  0.31872429  1
  H+  H263  1  0.41547415  0.25972307  0.50022860  1
  H+  H264  1  0.58323201  -0.04162023  1.00270715  1
  H+  H265  1  0.60856520  0.96795041  0.15751500  1
  H+  H266  1  0.89631974  0.92834036  0.49305233  1
  H+  H267  1  0.86776876  0.90042374  0.16808147  1
  H+  H268  1  0.02608581  0.62965882  0.16068323  1
  H+  H269  1  0.88792415  0.60689252  0.66341230  1
  H+  H270  1  0.77168953  0.13673965  0.16438510  1
  H+  H271  1  0.09074850  0.60393908  1.00823918  1
  H+  H272  1  0.13627772  0.35589251  -0.00705762  1
  H+  H273  1  1.02547502  0.89250304  0.16575461  1
  H+  H274  1  0.82863311  0.64856681  0.73514694  1
  H+  H275  1  0.13129372  0.62061677  0.32843893  1
  H+  H276  1  0.26062870  0.62124047  -0.01411623  1
  H+  H277  1  0.11568302  0.47741724  0.16928813  1
  H+  H278  1  0.59932031  0.70994464  0.78912236  1
  H+  H279  1  0.98612071  0.11068091  0.83631876  1
  H+  H280  1  0.38355531  1.03623219  0.54268260  1
  H+  H281  1  -0.03425451  0.83443195  0.52119572  1
  H+  H282  1  0.89650477  0.77640649  1.00798359  1
  H+  H283  1  0.64653911  0.52131009  0.14201902  1
  H+  H284  1  0.23829198  0.63103342  0.83722613  1
  H+  H285  1  0.68693349  0.32131543  0.99031553  1
  H+  H286  1  -0.00923492  0.85279113  0.69081888  1
  H+  H287  1  0.12369432  0.63313250  0.80702137  1
  H+  H288  1  0.38919312  0.77719153  0.18874128  1
  H+  H289  1  0.08555290  0.42286214  0.76142407  1
  H+  H290  1  0.18033008  0.32417611  0.57072050  1
  H+  H291  1  0.44421112  0.72954461  0.45481984  1
  H+  H292  1  0.34484825  0.66897012  0.12891562  1
  H+  H293  1  0.67943778  0.84089093  0.94260586  1
  H+  H294  1  0.67154395  0.83395446  0.23016627  1
  H+  H295  1  0.08073579  0.93105216  0.07433983  1
  H+  H296  1  0.31784086  0.68595924  0.03550575  1
  H+  H297  1  0.10039613  0.73158646  0.49619948  1
  H+  H298  1  0.14901907  0.51070268  0.93663342  1
  H+  H299  1  0.87917498  0.89456953  0.34462978  1
  H+  H300  1  0.38859319  0.90951295  0.40734530  1
  H+  H301  1  0.34271258  0.41429659  0.43682297  1
  H+  H302  1  0.84817569  0.92928745  0.43333739  1
  H+  H303  1  0.40465171  0.58278136  0.56965189  1
  H+  H304  1  0.62762059  0.53174862  0.98323742  1
  H+  H305  1  0.56546004  0.63288886  0.70978978  1
  H+  H306  1  0.57283280  0.15239866  0.08239242  1
  H+  H307  1  0.40776169  0.56657326  0.26664660  1
  H+  H308  1  0.82773629  0.18180241  0.73355995  1
  H+  H309  1  0.83043575  0.41578413  0.43338702  1
  H+  H310  1  0.64110791  0.05401317  0.89148403  1
  H+  H311  1  0.66117263  0.21323365  0.13300475  1
  H+  H312  1  0.07787876  0.41078961  0.11373901  1
  H+  H313  1  0.32978342  0.68332331  0.76605301  1
  H+  H314  1  0.39276801  0.08855438  0.62675155  1
  H+  H315  1  0.41876016  0.09731235  0.25415082  1
  H+  H316  1  0.33831526  0.42594152  0.73039577  1
  H+  H317  1  0.07629338  0.67940746  0.39609819  1
  H+  H318  1  0.33630518  0.17901140  0.09726777  1
  H+  H319  1  0.88631856  0.51593853  0.16678560  1
  H+  H320  1  0.58578213  0.42536415  0.08667006  1
  H+  H321  1  0.84342860  0.91248844  0.74161438  1
  H+  H322  1  0.43039595  0.83348469  0.27315073  1
  H+  H323  1  0.57572110  0.17962815  0.77157633  1
  H+  H324  1  0.89234835  0.56751221  0.89540054  1
  H+  H325  1  0.92914873  0.10190039  0.60138244  1
  H+  H326  1  0.17055083  0.61820510  0.88921386  1
  H+  H327  1  0.48240097  0.37563029  0.16643977  1
  H+  H328  1  0.38972481  0.78621717  0.51230547  1
  H+  H329  1  0.65624187  0.34835266  0.22844274  1
  H+  H330  1  0.57909824  0.87953539  0.77571772  1
  H+  H331  1  0.67132802  0.33588810  0.60675269  1
  H+  H332  1  0.52208938  0.01173783  0.94307023  1
  H+  H333  1  0.16872447  0.07052719  0.89302576  1
  H+  H334  1  0.40683809  0.84218690  0.60912034  1
  H+  H335  1  0.91018434  0.32814043  0.59736556  1
  H+  H336  1  0.35506139  0.88740829  0.00840770  1
  H+  H337  1  0.91505319  0.58558042  0.26049806  1
  H+  H338  1  0.06299428  0.89363943  0.40829844  1
  H+  H339  1  0.55449266  0.15337856  0.46508874  1
  H+  H340  1  0.57027261  0.90366724  0.10073226  1
  H+  H341  1  0.94046546  0.82570369  0.89545067  1
  H+  H342  1  0.39425089  0.86447047  0.88452699  1
  H+  H343  1  0.82808124  0.65858197  0.42767570  1
  H+  H344  1  0.37183981  0.19061000  0.40091153  1
  H+  H345  1  0.37399977  0.15101130  0.15290514  1
  H+  H346  1  0.33505346  0.91775147  0.74515710  1
  H+  H347  1  0.60363849  0.23364426  0.68214549  1
  H+  H348  1  0.09193282  0.17790869  0.40734791  1
  H+  H349  1  0.93021964  0.06596211  0.89391418  1
  H+  H350  1  0.83103529  0.17072287  0.43573362  1
  H+  H351  1  0.33294942  0.91647775  0.10531960  1
  H+  H352  1  0.01942187  0.31011846  0.04681793  1
  H+  H353  1  0.90821200  0.33531584  0.27462684  1
  H+  H354  1  0.57055502  0.66761219  0.44090828  1
  H+  H355  1  0.41524814  0.33298498  0.92739928  1
  H+  H356  1  0.59221964  0.42728171  0.72901080  1
  H+  H357  1  0.33520627  0.66054448  0.39583382  1
  H+  H358  1  0.67647711  0.07814770  0.60197999  1
  H+  H359  1  0.17419639  0.34459987  0.92930041  1
  H+  H360  1  0.92493493  0.09202404  0.27827165  1
  H+  H361  1  0.59213240  0.90829272  0.40629177  1
  H+  H362  1  0.11418778  -0.00304074  1.00762469  1
  H+  H363  1  0.16144878  0.59059440  0.57057837  1
  H+  H364  1  0.21173959  0.54877293  0.62023615  1
  H+  H365  1  0.34350279  0.87151436  0.40909954  1
  H+  H366  1  0.37226107  0.96670654  0.83992418  1
  H+  H367  1  0.01783816  0.89494753  0.01098496  1
  H+  H368  1  0.36067993  0.01389831  0.68501169  1
  H+  H369  1  0.17518460  0.06551601  0.27326048  1
  H+  H370  1  0.91209926  0.57738044  0.60008772  1
  H+  H371  1  0.17455723  0.32271756  0.26963344  1
  H+  H372  1  0.59737690  0.43883396  0.39800312  1
  H+  H373  1  0.15589101  0.81644038  0.24725382  1
  H+  H374  1  0.42327202  0.59137940  0.93034379  1
  H+  H375  1  0.06721070  0.42072091  0.44134013  1
  H+  H376  1  0.68773592  0.82152568  0.59328847  1
  H+  H377  1  0.85717836  0.17682734  0.12144640  1
  H+  H378  1  0.63919739  0.19976296  0.35332777  1
  H+  H379  1  0.92442593  0.85032685  0.24734851  1
  H+  H380  1  0.14056762  0.27800029  0.83891784  1
  H+  H381  1  0.83745268  0.91490646  0.07231652  1
  H+  H382  1  0.92693141  0.36032984  0.92086768  1
  H+  H383  1  0.33638108  0.42001372  0.09824001  1
  O2-  O384  1  0.10285865  0.17564892  0.12051444  1
  O2-  O385  1  0.08407323  0.16246444  0.48035822  1
  O2-  O386  1  0.09116357  0.17325880  0.81466482  1
  O2-  O387  1  0.08202289  0.41521242  0.15846705  1
  O2-  O388  1  0.06378522  0.41864803  0.48710413  1
  O2-  O389  1  0.08565884  0.42120303  0.80748022  1
  O2-  O390  1  0.08792346  0.66043205  0.14780579  1
  O2-  O391  1  0.07488827  0.67569477  0.47461177  1
  O2-  O392  1  0.09605563  0.66471311  0.78948839  1
  O2-  O393  1  0.08251264  0.91764402  0.14544304  1
  O2-  O394  1  0.05360460  0.89320225  0.48813237  1
  O2-  O395  1  0.09069052  0.89923669  0.80250723  1
  O2-  O396  1  0.34259202  0.18157338  0.14261780  1
  O2-  O397  1  0.39050379  0.19628907  0.48571854  1
  O2-  O398  1  0.34236418  0.15353294  0.81169971  1
  O2-  O399  1  0.33644116  0.42092953  0.14369775  1
  O2-  O400  1  0.34702896  0.41490454  0.48206987  1
  O2-  O401  1  0.33685076  0.41779500  0.81143980  1
  O2-  O402  1  0.34037339  0.66808143  0.17298729  1
  O2-  O403  1  0.38526073  0.69504249  0.46931834  1
  O2-  O404  1  0.33350105  0.68795877  0.81200308  1
  O2-  O405  1  0.33347214  0.91813206  0.15149741  1
  O2-  O406  1  0.32782137  0.93143588  0.51597361  1
  O2-  O407  1  0.33981272  0.90486356  0.82403380  1
  O2-  O408  1  0.60167049  0.17062295  0.14251142  1
  O2-  O409  1  0.57566697  0.16085884  0.50665469  1
  O2-  O410  1  0.57902234  0.17929087  0.81893149  1
  O2-  O411  1  0.59253732  0.43461308  0.13266808  1
  O2-  O412  1  0.60273813  0.43099493  0.46751547  1
  O2-  O413  1  0.58370879  0.42908772  0.80923812  1
  O2-  O414  1  0.59288785  0.66332610  0.14631769  1
  O2-  O415  1  0.57543530  0.67320655  0.48560013  1
  O2-  O416  1  0.56560375  0.64792631  0.79343395  1
  O2-  O417  1  0.57511124  0.90546271  0.14599829  1
  O2-  O418  1  0.58163792  0.91488246  0.48417713  1
  O2-  O419  1  0.58842056  0.87145368  0.81887307  1
  O2-  O420  1  0.83553323  0.17353406  0.16322502  1
  O2-  O421  1  0.82778134  0.16944590  0.48114054  1
  O2-  O422  1  0.81913081  0.18772738  0.79874908  1
  O2-  O423  1  0.83314089  0.41712926  0.14806571  1
  O2-  O424  1  0.83136326  0.41138800  0.47849630  1
  O2-  O425  1  0.83596059  0.41697191  0.80615964  1
  O2-  O426  1  0.84517647  0.66223745  0.10509353  1
  O2-  O427  1  0.82657379  0.64786402  0.47209385  1
  O2-  O428  1  0.82608228  0.66654536  0.81337941  1
  O2-  O429  1  0.83499535  0.92435877  0.14752217  1
  O2-  O430  1  0.84604970  0.93091209  0.47947723  1
  O2-  O431  1  0.84217382  0.92398274  0.79758161  1
  O2-  O432  1  0.17524141  0.08750187  0.19197848  1
  O2-  O433  1  0.06647134  0.02448240  0.54617335  1
  O2-  O434  1  0.17141951  0.07527676  0.84797365  1
  O2-  O435  1  0.17168557  0.33215783  0.19425692  1
  O2-  O436  1  0.18256947  0.31226383  0.52707556  1
  O2-  O437  1  0.17086717  0.33974512  0.85228255  1
  O2-  O438  1  0.17404006  0.58502219  0.19315594  1
  O2-  O439  1  0.15194615  0.59512354  0.52379412  1
  O2-  O440  1  0.17548177  0.59477481  0.85041170  1
  O2-  O441  1  0.15958246  0.82340088  0.17968837  1
  O2-  O442  1  0.15049173  0.83178305  0.53954232  1
  O2-  O443  1  0.16410619  0.80735615  0.83264748  1
  O2-  O444  1  0.42918539  0.09631343  0.17823347  1
  O2-  O445  1  0.41781741  0.09549072  0.55983472  1
  O2-  O446  1  0.41526588  0.06972672  0.86098954  1
  O2-  O447  1  0.42443791  0.34430282  0.18468402  1
  O2-  O448  1  0.44525111  0.35047968  0.52117413  1
  O2-  O449  1  0.41657719  0.32814279  0.84878191  1
  O2-  O450  1  0.42779176  0.57689832  0.19129070  1
  O2-  O451  1  0.41108853  0.58173504  0.52408255  1
  O2-  O452  1  0.41450397  0.59108681  0.85271718  1
  O2-  O453  1  0.42003244  0.83966261  0.19882865  1
  O2-  O454  1  0.41504646  0.84473714  0.52985645  1
  O2-  O455  1  0.39358030  0.86644246  0.83901951  1
  O2-  O456  1  0.66268513  0.07077024  0.18214363  1
  O2-  O457  1  0.66822894  0.07800304  0.52461651  1
  O2-  O458  1  0.66655464  0.04919563  0.85234013  1
  O2-  O459  1  0.65494275  0.34175905  0.18311973  1
  O2-  O460  1  0.67345902  0.34156512  0.52771405  1
  O2-  O461  1  0.67080961  0.34933238  0.84701427  1
  O2-  O462  1  0.68625378  0.58991253  0.15127726  1
  O2-  O463  1  0.67749688  0.62728309  0.52588468  1
  O2-  O464  1  0.65499687  0.59264830  0.84719729  1
  O2-  O465  1  0.66680824  0.82895685  0.18506888  1
  O2-  O466  1  0.67303842  0.83615382  0.52121053  1
  O2-  O467  1  0.69371655  0.82661758  0.86416291  1
  O2-  O468  1  0.90870918  0.08307564  0.20867201  1
  O2-  O469  1  0.92091182  0.10011644  0.52180525  1
  O2-  O470  1  0.92539997  0.07341240  0.85037155  1
  O2-  O471  1  0.91515981  0.33922127  0.19853256  1
  O2-  O472  1  0.90952204  0.32782551  0.52500240  1
  O2-  O473  1  0.92099779  0.34431534  0.85017126  1
  O2-  O474  1  0.91811810  0.57967285  0.17778310  1
  O2-  O475  1  0.90967237  0.57280900  0.52024093  1
  O2-  O476  1  0.89909292  0.57974408  0.85187636  1
  O2-  O477  1  0.92320132  0.85280281  0.20041730  1
  O2-  O478  1  0.91246871  0.79443152  0.54625032  1
  O2-  O479  1  0.94373185  0.82325068  0.85100772  1
  O2-  O480  1  0.17577757  0.04743453  0.31577069  1
  O2-  O481  1  0.18979319  0.10188709  0.64146582  1
  O2-  O482  1  0.16306502  0.07598525  0.97566868  1
  O2-  O483  1  0.17546528  0.32121493  0.31540420  1
  O2-  O484  1  0.17101035  0.33743727  0.65059381  1
  O2-  O485  1  0.17693012  0.34049090  0.97476194  1
  O2-  O486  1  0.15883502  0.58807761  0.31331984  1
  O2-  O487  1  0.17904283  0.57504335  0.63532117  1
  O2-  O488  1  0.15714623  0.53727935  0.97667098  1
  O2-  O489  1  0.16266576  0.82095934  0.29461776  1
  O2-  O490  1  0.15582992  0.83033644  0.66544747  1
  O2-  O491  1  0.15113190  0.81630171  0.98866953  1
  O2-  O492  1  0.41365542  0.08945008  0.29961209  1
  O2-  O493  1  0.38671223  0.08037171  0.67387530  1
  O2-  O494  1  0.39522639  0.07470107  0.98467116  1
  O2-  O495  1  0.43075940  0.34547318  0.30990787  1
  O2-  O496  1  0.42905638  0.35058653  0.63769692  1
  O2-  O497  1  0.41743405  0.33480954  0.97295579  1
  O2-  O498  1  0.40088171  0.56623333  0.31201896  1
  O2-  O499  1  0.39901219  0.59229877  0.64494879  1
  O2-  O500  1  0.42234651  0.59110865  0.97599953  1
  O2-  O501  1  0.42987258  0.82728185  0.31882368  1
  O2-  O502  1  0.40310632  0.84230090  0.65433515  1
  O2-  O503  1  0.40740855  0.84142366  0.96214634  1
  O2-  O504  1  0.66964131  0.06109711  0.30826192  1
  O2-  O505  1  0.68309569  0.08433563  0.64719689  1
  O2-  O506  1  0.58117706  0.04320701  0.95776289  1
  O2-  O507  1  0.66396898  0.36232394  0.30553779  1
  O2-  O508  1  0.67109519  0.33085004  0.65203691  1
  O2-  O509  1  0.68906087  0.37072809  0.97059433  1
  O2-  O510  1  0.65817623  0.59801358  0.29855948  1
  O2-  O511  1  0.68780013  0.52909959  0.60901977  1
  O2-  O512  1  0.65504316  0.58999205  0.96550722  1
  O2-  O513  1  0.68786268  0.83841604  0.30982135  1
  O2-  O514  1  0.69458437  0.80995533  0.63748458  1
  O2-  O515  1  0.67217893  0.84308010  0.98728781  1
  O2-  O516  1  0.93105282  0.09758315  0.32464107  1
  O2-  O517  1  0.93249847  0.10122105  0.64652150  1
  O2-  O518  1  0.90439760  0.07006912  0.98851523  1
  O2-  O519  1  0.90225865  0.33481098  0.31997407  1
  O2-  O520  1  0.91003628  0.32685366  0.64394783  1
  O2-  O521  1  0.92726339  0.37071355  0.96681704  1
  O2-  O522  1  0.91578006  0.58969190  0.30562118  1
  O2-  O523  1  0.91994179  0.57824626  0.64504680  1
  O2-  O524  1  0.94346876  0.63647897  0.98905892  1
  O2-  O525  1  0.91650445  0.83504181  0.31672474  1
  O2-  O526  1  0.93525155  0.82682759  0.66857246  1
  O2-  O527  1  0.92582126  0.83406397  0.98740115  1
  O2-  O528  1  0.08624681  0.16325887  -0.03618357  1
  O2-  O529  1  0.09220156  0.18083951  0.36109362  1
  O2-  O530  1  0.08752309  0.17135213  0.69290540  1
  O2-  O531  1  0.05440389  0.37113722  0.03349710  1
  O2-  O532  1  0.06860367  0.42201356  0.36643571  1
  O2-  O533  1  0.08244419  0.42173825  0.68599358  1
  O2-  O534  1  0.07893769  0.64413224  0.02992544  1
  O2-  O535  1  0.07796755  0.67796504  0.35039239  1
  O2-  O536  1  0.08383567  0.65614085  0.67360007  1
  O2-  O537  1  0.07832304  0.93522507  0.02819385  1
  O2-  O538  1  0.06469202  0.88922642  0.36341360  1
  O2-  O539  1  0.08313363  0.90368915  0.73572139  1
  O2-  O540  1  0.32485012  0.17167917  0.01918342  1
  O2-  O541  1  0.35412735  0.18634357  0.35785642  1
  O2-  O542  1  0.32453894  0.10614071  0.69539184  1
  O2-  O543  1  0.34045903  0.42257364  0.01864166  1
  O2-  O544  1  0.33452917  0.40642202  0.35835642  1
  O2-  O545  1  0.33773627  0.43061513  0.68535869  1
  O2-  O546  1  0.32054787  0.66827467  -0.00583482  1
  O2-  O547  1  0.32533765  0.65703763  0.35115327  1
  O2-  O548  1  0.32429377  0.67971388  0.69121435  1
  O2-  O549  1  0.32738938  0.91451592  0.03127947  1
  O2-  O550  1  0.32979318  0.91520839  0.29920187  1
  O2-  O551  1  0.32931270  0.92412914  0.70048603  1
  O2-  O552  1  0.55442451  0.14369378  0.03379310  1
  O2-  O553  1  0.59713571  0.17087291  0.32100720  1
  O2-  O554  1  0.56629440  0.17760203  0.70352886  1
  O2-  O555  1  0.58109377  0.42348141  0.01468051  1
  O2-  O556  1  0.59398694  0.44262548  0.35133927  1
  O2-  O557  1  0.58938285  0.41282176  0.68519471  1
  O2-  O558  1  0.58469324  0.67878076  0.02188377  1
  O2-  O559  1  0.55095707  0.67844132  0.35847508  1
  O2-  O560  1  0.56038833  0.63708882  0.66546235  1
  O2-  O561  1  0.56296353  0.90044542  0.01999494  1
  O2-  O562  1  0.59439863  0.90251595  0.36098971  1
  O2-  O563  1  0.56578406  0.91711320  0.69703901  1
  O2-  O564  1  0.92617800  0.20627950  0.05532958  1
  O2-  O565  1  0.83517950  0.16726335  0.35746048  1
  O2-  O566  1  0.83187416  0.17831295  0.68600146  1
  O2-  O567  1  0.85009625  0.47400143  -0.03423482  1
  O2-  O568  1  0.83028876  0.42710433  0.35314377  1
  O2-  O569  1  0.83723039  0.41426240  0.68435651  1
  O2-  O570  1  0.84572051  0.67470752  0.03871854  1
  O2-  O571  1  0.82056089  0.66577685  0.34595046  1
  O2-  O572  1  0.83748999  0.64989346  0.69045513  1
  O2-  O573  1  0.83749690  0.91265898  0.02645967  1
  O2-  O574  1  0.85132554  0.92801700  0.35978946  1
  O2-  O575  1  0.84931857  0.90243988  0.68981820  1
