# generated using pymatgen
data_H2O
_symmetry_space_group_name_H-M   'P 1'
_cell_length_a   17.98311505
_cell_length_b   17.99211541
_cell_length_c   21.99547414
_cell_angle_alpha   90.00050092
_cell_angle_beta   89.99319640
_cell_angle_gamma   119.99645935
_symmetry_Int_Tables_number   1
_chemical_formula_structural   H2O
_chemical_formula_sum   'H384 O192'
_cell_volume   6163.48865161
_cell_formula_units_Z   192
loop_
 _symmetry_equiv_pos_site_id
 _symmetry_equiv_pos_as_xyz
  1  'x, y, z'
loop_
 _atom_type_symbol
 _atom_type_oxidation_number
  H+  1.0
  O2-  -2.0
loop_
 _atom_site_type_symbol
 _atom_site_label
 _atom_site_symmetry_multiplicity
 _atom_site_fract_x
 _atom_site_fract_y
 _atom_site_fract_z
 _atom_site_occupancy
  H+  H0  1  0.22241381  0.37126748  0.66325260  1
  H+  H1  1  0.15090778  0.65262790  0.17296106  1
  H+  H2  1  0.87506136  0.11305989  0.50753424  1
  H+  H3  1  0.39756258  0.88357788  0.84736804  1
  H+  H4  1  0.01722911  0.13666182  0.00461171  1
  H+  H5  1  0.98802560  0.61146575  0.31519483  1
  H+  H6  1  0.47301933  0.11040190  0.66004329  1
  H+  H7  1  0.35004091  0.12683297  0.32392399  1
  H+  H8  1  0.34996627  0.87194196  0.15509000  1
  H+  H9  1  0.89173225  0.78569168  0.66453603  1
  H+  H10  1  0.04942366  0.04662655  0.37081201  1
  H+  H11  1  0.34989136  0.12685954  0.15520956  1
  H+  H12  1  0.53171894  0.34090651  0.32625464  1
  H+  H13  1  0.74481741  0.54502473  0.62622998  1
  H+  H14  1  0.11079461  0.88240830  0.82551973  1
  H+  H15  1  0.88741954  0.10952704  0.84072334  1
  H+  H16  1  0.47165141  0.35582882  0.84020235  1
  H+  H17  1  0.37696430  0.22725190  0.33269347  1
  H+  H18  1  0.48911108  0.42499404  0.31175254  1
  H+  H19  1  0.88127123  0.02406328  0.99600797  1
  H+  H20  1  0.63614457  0.87327317  -0.00953402  1
  H+  H21  1  0.13478355  0.37233722  0.66862761  1
  H+  H22  1  0.11025177  0.82237043  0.15351298  1
  H+  H23  1  0.20819938  0.33813249  0.83445576  1
  H+  H24  1  0.85721521  0.12905933  0.33754608  1
  H+  H25  1  0.87357437  0.84395787  0.16552190  1
  H+  H26  1  0.46764665  0.86262431  0.32776403  1
  H+  H27  1  0.12437862  0.72739906  0.50803610  1
  H+  H28  1  0.61033639  0.12961975  0.50203375  1
  H+  H29  1  0.51424677  0.64832899  0.34435309  1
  H+  H30  1  0.16490788  0.83026079  0.89759788  1
  H+  H31  1  0.37192888  0.35200119  0.49908320  1
  H+  H32  1  0.38485435  0.27506467  0.65478141  1
  H+  H33  1  0.77262243  0.06954646  0.11719538  1
  H+  H34  1  0.11583271  0.97911131  0.32095258  1
  H+  H35  1  0.87873831  0.75871532  0.17442892  1
  H+  H36  1  0.13958133  0.03019958  0.65769191  1
  H+  H37  1  0.15582673  0.81503678  0.25438457  1
  H+  H38  1  0.78583406  0.39528893  0.48593744  1
  H+  H39  1  0.12006313  0.64639768  1.01564274  1
  H+  H40  1  0.61465623  0.72898257  0.16543410  1
  H+  H41  1  0.40422476  0.37005717  0.16821841  1
  H+  H42  1  0.61493735  0.89146046  0.50455706  1
  H+  H43  1  0.89970770  0.52044243  0.31363396  1
  H+  H44  1  0.32853890  0.90803920  0.76547450  1
  H+  H45  1  0.79329212  0.38394047  0.32688809  1
  H+  H46  1  0.13031333  0.51900995  0.84931882  1
  H+  H47  1  0.42117734  0.56139354  0.52031698  1
  H+  H48  1  0.10635633  0.12071444  0.83760592  1
  H+  H49  1  0.21673518  0.85622160  0.31354357  1
  H+  H50  1  0.60786072  0.63521635  0.16755921  1
  H+  H51  1  0.38868086  0.63155681  0.66721567  1
  H+  H52  1  0.11907799  0.26854923  0.49085843  1
  H+  H53  1  0.52958254  0.63780497  0.82917303  1
  H+  H54  1  0.48635870  0.62660856  0.00255729  1
  H+  H55  1  0.08657069  0.92307544  0.73112074  1
  H+  H56  1  0.13655567  0.02284722  0.17124996  1
  H+  H57  1  0.68516441  0.26305330  0.28677583  1
  H+  H58  1  1.02727891  0.39624173  0.99756049  1
  H+  H59  1  0.62425927  0.65980236  0.49887337  1
  H+  H60  1  0.57787862  0.11694769  0.15840763  1
  H+  H61  1  0.98516055  0.61587124  1.00116215  1
  H+  H62  1  0.33769244  0.66691190  0.06961062  1
  H+  H63  1  0.42416655  0.84376125  0.93755270  1
  H+  H64  1  0.91122403  0.07951407  0.90407923  1
  H+  H65  1  0.94340625  0.73356809  0.99974086  1
  H+  H66  1  0.10584319  0.14178487  0.66182512  1
  H+  H67  1  0.12664186  0.27168144  -0.01374433  1
  H+  H68  1  0.85544670  0.64336697  0.67501717  1
  H+  H69  1  0.51695873  0.38428944  0.66881911  1
  H+  H70  1  0.02857335  0.89490146  0.67136054  1
  H+  H71  1  0.48928583  0.36205499  0.16792529  1
  H+  H72  1  0.36471926  0.87437525  0.00477359  1
  H+  H73  1  0.87052544  0.49653002  0.16335316  1
  H+  H74  1  0.48407668  0.10913087  0.15861280  1
  H+  H75  1  0.40690233  0.57846591  0.26928678  1
  H+  H76  1  0.13772029  0.52598450  0.99867378  1
  H+  H77  1  0.37335820  0.88248578  0.67752651  1
  H+  H78  1  0.27203652  0.14975813  0.00266123  1
  H+  H79  1  0.89226968  0.87501432  0.66086700  1
  H+  H80  1  1.02561288  0.38051580  0.15240093  1
  H+  H81  1  0.63001137  1.01689297  0.66487523  1
  H+  H82  1  0.14157770  0.61495685  0.51357560  1
  H+  H83  1  0.34792047  0.44408584  0.82765935  1
  H+  H84  1  0.52883944  0.65241610  0.67340523  1
  H+  H85  1  1.01929428  0.63096590  0.84232674  1
  H+  H86  1  0.70995049  0.60579170  0.18907467  1
  H+  H87  1  0.63414706  0.37081128  0.83757359  1
  H+  H88  1  0.86887863  0.47909529  1.01051892  1
  H+  H89  1  0.88652334  0.28059422  0.50203931  1
  H+  H90  1  0.11269664  0.63122924  0.32913489  1
  H+  H91  1  1.01651980  0.38338386  0.83049490  1
  H+  H92  1  0.83133317  0.91316081  0.39827321  1
  H+  H93  1  0.14357566  0.52515056  0.32165815  1
  H+  H94  1  0.17079832  0.07620169  0.55965931  1
  H+  H95  1  0.84468372  0.50695524  0.64964653  1
  H+  H96  1  0.47096293  0.86653295  0.50911628  1
  H+  H97  1  0.97686402  0.12222898  0.65822276  1
  H+  H98  1  0.98112280  0.62658695  0.17094328  1
  H+  H99  1  0.63476114  0.84853226  0.83125858  1
  H+  H100  1  0.22870251  0.61387137  -0.00059132  1
  H+  H101  1  0.61311193  0.41827878  0.47319740  1
  H+  H102  1  0.73336605  0.86959059  0.17103038  1
  H+  H103  1  0.37485097  0.10448167  0.84517045  1
  H+  H104  1  0.86740410  0.72948847  0.83431888  1
  H+  H105  1  0.68585149  0.57908698  0.36127655  1
  H+  H106  1  0.11471895  0.64460966  0.67777691  1
  H+  H107  1  0.73388252  0.36410940  0.99405079  1
  H+  H108  1  0.60610201  0.24050094  0.83047751  1
  H+  H109  1  0.92677512  0.58250959  -0.05956325  1
  H+  H110  1  0.89158559  0.90001107  0.99278070  1
  H+  H111  1  0.11424100  0.12977651  0.33308599  1
  H+  H112  1  1.00938008  0.12089895  0.83989552  1
  H+  H113  1  0.15165394  0.02059471  0.30829595  1
  H+  H114  1  0.40741333  0.06023546  0.92826729  1
  H+  H115  1  0.84614949  0.60018592  0.02068665  1
  H+  H116  1  0.63275112  0.11470334  0.33338191  1
  H+  H117  1  0.23055301  0.36386942  0.32214971  1
  H+  H118  1  0.86737062  0.98808029  0.67174567  1
  H+  H119  1  0.47598150  0.86586004  0.17114016  1
  H+  H120  1  0.63314589  0.10766283  0.66478753  1
  H+  H121  1  1.02335194  0.88583489  0.82662447  1
  H+  H122  1  0.35177847  0.35948754  0.82492219  1
  H+  H123  1  0.85792252  0.88082647  0.33721088  1
  H+  H124  1  0.22697467  0.11922697  0.65703326  1
  H+  H125  1  0.37556807  0.74798742  0.67419618  1
  H+  H126  1  0.39315225  0.11774817  0.50029959  1
  H+  H127  1  0.34994225  -0.03308855  0.82519477  1
  H+  H128  1  0.37590436  0.57349018  0.84828668  1
  H+  H129  1  0.10903411  0.71752603  0.32802175  1
  H+  H130  1  0.47197671  0.61583205  0.17391949  1
  H+  H131  1  0.82479255  0.16607457  0.43534072  1
  H+  H132  1  0.11443739  0.38039193  0.14742872  1
  H+  H133  1  0.23725427  0.62446485  0.66256823  1
  H+  H134  1  0.86789293  0.89412815  0.49443969  1
  H+  H135  1  0.36783220  0.68648426  0.83660384  1
  H+  H136  1  0.33985881  -0.02533263  0.32819568  1
  H+  H137  1  0.67695232  0.58932294  0.56534793  1
  H+  H138  1  0.46812412  0.36979269  0.49478442  1
  H+  H139  1  0.22099491  0.85279882  0.83549935  1
  H+  H140  1  0.63376053  1.02229337  0.51257892  1
  H+  H141  1  0.68496892  0.72014738  0.03715686  1
  H+  H142  1  0.86071088  0.62954449  0.17745906  1
  H+  H143  1  0.62305710  0.35408822  0.66497329  1
  H+  H144  1  0.86132665  0.22213905  0.82584243  1
  H+  H145  1  0.36391564  0.22287064  0.15926032  1
  H+  H146  1  0.36402835  0.13836277  0.67150008  1
  H+  H147  1  0.02611946  0.14528548  0.16103243  1
  H+  H148  1  0.77965768  0.65020346  0.49737623  1
  H+  H149  1  0.13182915  0.11699213  -0.00880037  1
  H+  H150  1  0.23572762  0.35912778  0.48678192  1
  H+  H151  1  0.73928305  0.37151013  0.20685740  1
  H+  H152  1  0.89610593  0.37534818  0.18043396  1
  H+  H153  1  0.65148854  0.25911801  0.51540453  1
  H+  H154  1  0.86158833  -0.02729493  0.82856457  1
  H+  H155  1  0.00713954  0.13995565  0.49049640  1
  H+  H156  1  0.89260353  0.53512868  0.49829013  1
  H+  H157  1  0.02119077  0.39802320  0.67505659  1
  H+  H158  1  0.73748577  0.29649687  0.55185382  1
  H+  H159  1  0.61929028  0.95373600  0.82296349  1
  H+  H160  1  0.62071533  0.72144735  0.82778354  1
  H+  H161  1  0.63025146  0.77605234  0.32511552  1
  H+  H162  1  0.64524171  0.48514668  0.33671434  1
  H+  H163  1  0.33330064  0.67217385  0.40173778  1
  H+  H164  1  0.77820961  0.89420799  0.49578579  1
  H+  H165  1  0.60450954  0.88890541  0.67288661  1
  H+  H166  1  0.85585035  0.38429572  0.67032076  1
  H+  H167  1  0.13551530  0.77657715  0.99295509  1
  H+  H168  1  0.76259090  0.37599761  0.67705405  1
  H+  H169  1  0.88126521  0.36086307  0.83421207  1
  H+  H170  1  0.62564695  0.52094383  0.17161322  1
  H+  H171  1  0.03376362  0.64138413  0.50753615  1
  H+  H172  1  0.84852760  0.13043942  0.15805073  1
  H+  H173  1  0.09423665  0.68875668  0.07207123  1
  H+  H174  1  0.95348917  0.83693857  0.32947297  1
  H+  H175  1  0.64364572  1.03070721  0.33089821  1
  H+  H176  1  0.27065549  0.63966637  0.49691990  1
  H+  H177  1  0.64446417  0.27476218  0.99258107  1
  H+  H178  1  0.22926622  0.10002871  0.50066470  1
  H+  H179  1  0.91317007  0.71828639  -0.02707285  1
  H+  H180  1  0.72497967  0.60610765  0.66090952  1
  H+  H181  1  0.76709976  0.14104981  0.49640484  1
  H+  H182  1  0.23477390  0.86809018  0.66502614  1
  H+  H183  1  0.38075922  0.61191914  0.17193977  1
  H+  H184  1  0.35095713  0.89034142  0.33244546  1
  H+  H185  1  0.77458982  0.14944532  -0.00015512  1
  H+  H186  1  0.14694877  0.53490392  0.66492483  1
  H+  H187  1  0.89175144  0.62370627  0.50240848  1
  H+  H188  1  0.36219456  0.63927537  0.34270939  1
  H+  H189  1  0.38249471  0.77187735  0.32751417  1
  H+  H190  1  0.11694157  0.72676023  0.84155681  1
  H+  H191  1  0.88489488  0.03739489  0.17186627  1
  H+  H192  1  0.73681777  0.10645757  0.83533218  1
  H+  H193  1  0.53413479  0.15609621  0.35579252  1
  H+  H194  1  0.33180200  0.44695313  0.48998131  1
  H+  H195  1  1.03032111  0.90542517  1.00065123  1
  H+  H196  1  0.36574952  0.22495829  0.48304138  1
  H+  H197  1  0.22513159  0.86262323  0.98890942  1
  H+  H198  1  0.15072955  0.27641948  0.16609210  1
  H+  H199  1  0.70886437  0.57967332  1.00046715  1
  H+  H200  1  0.91335246  0.95611508  0.13831441  1
  H+  H201  1  0.38651472  0.49176647  1.01310981  1
  H+  H202  1  0.88440447  0.27518545  0.65750025  1
  H+  H203  1  0.46261164  0.09652094  -0.00470292  1
  H+  H204  1  0.54687902  0.15863102  0.07554142  1
  H+  H205  1  0.22372590  0.11300388  0.16343657  1
  H+  H206  1  0.52144040  0.21352103  0.03236597  1
  H+  H207  1  0.13155698  0.01729932  0.84144799  1
  H+  H208  1  0.23320436  0.86988925  0.50797628  1
  H+  H209  1  0.33006400  0.92199986  0.42852246  1
  H+  H210  1  0.88412710  0.11709011  0.99101793  1
  H+  H211  1  0.77576803  0.39549259  0.82355408  1
  H+  H212  1  0.72932754  0.87446829  0.66206033  1
  H+  H213  1  0.11439964  0.62691332  0.84734617  1
  H+  H214  1  0.77256789  0.13826166  0.33496335  1
  H+  H215  1  0.46710238  0.11123595  0.84396645  1
  H+  H216  1  0.12996192  0.36219175  -0.01781554  1
  H+  H217  1  0.43593764  0.08882536  0.30014450  1
  H+  H218  1  0.89302742  0.61708116  0.84436966  1
  H+  H219  1  0.11156260  0.72864799  0.67842873  1
  H+  H220  1  0.86393731  0.14008962  0.67226013  1
  H+  H221  1  0.81961660  0.71310927  0.33977853  1
  H+  H222  1  0.64771411  0.79158296  0.51088772  1
  H+  H223  1  0.14833393  0.87451722  0.66195851  1
  H+  H224  1  0.24586882  0.17220636  0.30987679  1
  H+  H225  1  0.53947270  0.66740116  0.50448142  1
  H+  H226  1  0.28371948  0.38802302  0.15536536  1
  H+  H227  1  0.01875049  0.87619712  0.15495642  1
  H+  H228  1  0.36554819  0.65197398  0.49855830  1
  H+  H229  1  0.64108429  0.78328458  0.66187168  1
  H+  H230  1  0.64543597  0.89861327  0.34267888  1
  H+  H231  1  0.35721422  0.21597353  0.83126779  1
  H+  H232  1  0.89040659  0.52625475  0.83886106  1
  H+  H233  1  0.78230553  0.90271522  0.00516642  1
  H+  H234  1  0.10537386  0.21768926  0.83618658  1
  H+  H235  1  0.36839978  0.72406896  1.00805389  1
  H+  H236  1  0.18349677  0.14259545  0.25293571  1
  H+  H237  1  0.61682763  0.89210520  0.16124409  1
  H+  H238  1  0.52318430  0.13667317  0.49964598  1
  H+  H239  1  0.89620002  0.27094317  0.32957560  1
  H+  H240  1  0.63928537  0.60939665  0.83970029  1
  H+  H241  1  0.96547366  0.09514385  0.32794111  1
  H+  H242  1  0.47161486  0.35795460  -0.00743274  1
  H+  H243  1  0.65643870  0.33047691  0.29830265  1
  H+  H244  1  0.14632723  0.27586352  0.31209377  1
  H+  H245  1  0.63130251  0.59831170  0.99843099  1
  H+  H246  1  0.35100146  1.00203652  0.16659004  1
  H+  H247  1  0.36616155  -0.02937701  0.67681279  1
  H+  H248  1  0.11130209  0.87626268  0.49958299  1
  H+  H249  1  0.98003584  0.86689318  0.50856548  1
  H+  H250  1  0.47628889  0.86190151  0.99946920  1
  H+  H251  1  0.63780964  0.78613224  -0.00726103  1
  H+  H252  1  0.92629386  0.58358825  0.23487307  1
  H+  H253  1  0.37678632  0.98807936  -0.00649591  1
  H+  H254  1  0.11479681  0.48234959  0.49600483  1
  H+  H255  1  0.16109872  0.07958122  0.90142739  1
  H+  H256  1  0.87471720  0.39859553  0.48557178  1
  H+  H257  1  0.61115659  0.37512206  -0.00070536  1
  H+  H258  1  0.77931432  0.63831704  0.83339579  1
  H+  H259  1  0.35893976  0.38170342  0.34179736  1
  H+  H260  1  0.64010682  0.07414015  0.81632653  1
  H+  H261  1  0.63177433  0.11841816  0.98466004  1
  H+  H262  1  0.23016684  0.61588271  0.32513118  1
  H+  H263  1  0.63689968  0.54456740  0.50246584  1
  H+  H264  1  0.50760087  0.88355591  0.67418988  1
  H+  H265  1  0.60792799  0.15603973  0.84303730  1
  H+  H266  1  0.77268567  0.13621593  0.67498583  1
  H+  H267  1  0.36501654  0.89475749  0.48784328  1
  H+  H268  1  0.26741802  0.64649701  0.83019142  1
  H+  H269  1  0.39363878  0.62053554  1.00473685  1
  H+  H270  1  0.97758310  0.36945919  0.50267003  1
  H+  H271  1  0.77372135  0.88235779  0.82460732  1
  H+  H272  1  0.48538404  0.88036770  0.84519719  1
  H+  H273  1  0.87430738  0.01292603  0.32534685  1
  H+  H274  1  0.60790808  -0.02269853  0.16432358  1
  H+  H275  1  0.88861464  0.86520453  0.83295534  1
  H+  H276  1  0.61195153  0.98264008  0.00768452  1
  H+  H277  1  0.08142095  0.84199894  0.34272266  1
  H+  H278  1  0.11418280  0.89390479  0.00119240  1
  H+  H279  1  0.86934833  0.73811804  0.49641433  1
  H+  H280  1  0.37023965  0.48200404  0.15954876  1
  H+  H281  1  0.60770004  0.47481871  0.82579329  1
  H+  H282  1  0.36690773  0.39566884  0.66460604  1
  H+  H283  1  0.60208857  0.45921460  1.00110115  1
  H+  H284  1  0.36696461  0.72809873  0.15833699  1
  H+  H285  1  0.70540453  0.11158721  0.17341829  1
  H+  H286  1  0.66924056  0.34156801  0.89565096  1
  H+  H287  1  0.88969388  0.28334576  -0.01100812  1
  H+  H288  1  0.42648037  0.60614065  0.91040151  1
  H+  H289  1  0.57209254  0.31008288  0.37737574  1
  H+  H290  1  0.44198085  0.35551294  0.25903323  1
  H+  H291  1  0.67467616  0.84024323  0.23095457  1
  H+  H292  1  0.83076758  0.17411545  0.05952046  1
  H+  H293  1  0.83306855  0.41941405  0.07013309  1
  H+  H294  1  0.87520405  0.56857616  0.58978712  1
  H+  H295  1  0.10528024  0.22960595  0.66939483  1
  H+  H296  1  0.64340372  0.40424666  0.15011292  1
  H+  H297  1  0.33108868  0.17647518  0.06190735  1
  H+  H298  1  0.90452378  0.82551932  0.26561724  1
  H+  H299  1  0.03136779  0.38848339  0.34028644  1
  H+  H300  1  0.41459501  0.08224640  0.60027064  1
  H+  H301  1  0.59096746  0.67377145  0.72926537  1
  H+  H302  1  0.17895706  0.84133639  0.57065210  1
  H+  H303  1  0.16413207  0.58001243  0.90993799  1
  H+  H304  1  0.37995990  0.78084137  0.50718991  1
  H+  H305  1  0.17597720  0.58383173  0.56953670  1
  H+  H306  1  0.07939052  0.16888166  0.06295666  1
  H+  H307  1  0.08077088  0.91255968  0.09699951  1
  H+  H308  1  0.37845602  0.51946303  0.32891735  1
  H+  H309  1  0.77375447  0.52908578  0.05863132  1
  H+  H310  1  0.69875070  0.97560724  0.38662369  1
  H+  H311  1  0.32808775  0.90390868  0.06307076  1
  H+  H312  1  0.89838137  0.81401423  0.98889409  1
  H+  H313  1  0.65064895  0.08396517  0.23494231  1
  H+  H314  1  0.81315024  0.66936285  0.40333905  1
  H+  H315  1  0.57580238  0.16240464  0.73605688  1
  H+  H316  1  0.05783896  0.87257005  0.40524154  1
  H+  H317  1  0.38173026  0.39321763  0.00864556  1
  H+  H318  1  0.11405014  0.96607574  0.49294729  1
  H+  H319  1  0.33752670  0.68374835  0.73251152  1
  H+  H320  1  0.07608263  0.42454694  0.73653205  1
  H+  H321  1  0.10986489  0.13493977  0.15573187  1
  H+  H322  1  0.66388661  0.57416271  0.89881459  1
  H+  H323  1  0.17509688  0.60761991  0.22696195  1
  H+  H324  1  0.83794211  0.92549669  0.73014128  1
  H+  H325  1  0.31989585  0.40252283  0.40125376  1
  H+  H326  1  0.66390624  0.08091931  0.57271378  1
  H+  H327  1  0.92928138  0.34230578  0.23505180  1
  H+  H328  1  0.72756983  0.85799956  0.32392287  1
  H+  H329  1  0.57802053  0.68577062  0.40161438  1
  H+  H330  1  0.58656888  0.92422180  0.06812094  1
  H+  H331  1  0.58993160  0.40843228  0.09387889  1
  H+  H332  1  0.59248825  0.17105297  0.41268509  1
  H+  H333  1  0.90913219  0.33311321  0.89545900  1
  H+  H334  1  0.12083005  0.39145439  0.33909919  1
  H+  H335  1  0.57726813  0.90336427  0.76052379  1
  H+  H336  1  0.57462325  0.41379666  0.76646045  1
  H+  H337  1  0.83431409  0.42203320  0.76410634  1
  H+  H338  1  0.88771301  0.37049680  0.99121347  1
  H+  H339  1  0.33672149  0.16494881  0.42370869  1
  H+  H340  1  0.60362287  0.67681914  0.07957341  1
  H+  H341  1  0.13237117  0.36601525  0.49606131  1
  H+  H342  1  0.33550094  0.41510006  0.72642347  1
  H+  H343  1  0.33428864  0.16728091  0.73096356  1
  H+  H344  1  0.41456042  0.83470949  0.22968411  1
  H+  H345  1  0.84383829  0.93306075  0.08189838  1
  H+  H346  1  0.27277339  0.64705526  0.15872654  1
  H+  H347  1  0.10367487  0.38029115  0.82794218  1
  H+  H348  1  0.35414863  0.42742394  0.07730567  1
  H+  H349  1  0.91438153  0.33564922  0.59800318  1
  H+  H350  1  0.08630419  0.42653377  0.43399454  1
  H+  H351  1  0.66345245  0.08483908  0.92894432  1
  H+  H352  1  0.13971755  1.03160750  -0.00652805  1
  H+  H353  1  0.25312208  0.85345017  0.14663141  1
  H+  H354  1  0.42919628  0.61239511  0.58105357  1
  H+  H355  1  0.92010445  0.84227644  0.56780501  1
  H+  H356  1  0.06486962  0.15324045  0.43147470  1
  H+  H357  1  0.37602797  0.27445621  0.99534008  1
  H+  H358  1  0.91295553  0.08918041  0.23450795  1
  H+  H359  1  0.83541049  0.16370863  0.76563752  1
  H+  H360  1  0.67538608  0.84907488  0.57200389  1
  H+  H361  1  0.26654621  0.12886695  0.82932751  1
  H+  H362  1  0.66043131  0.32410561  0.60845979  1
  H+  H363  1  0.91104642  0.08857135  0.60109430  1
  H+  H364  1  0.87925010  0.02531597  0.50522525  1
  H+  H365  1  0.41921564  0.84201253  0.61207298  1
  H+  H366  1  0.41231425  0.32835709  0.90050261  1
  H+  H367  1  0.41376220  0.33191189  0.59374295  1
  H+  H368  1  0.89993448  0.36210812  0.33045798  1
  H+  H369  1  0.84152331  0.67657937  0.73910519  1
  H+  H370  1  0.38876622  0.53996426  0.66374583  1
  H+  H371  1  0.15205875  0.31921330  0.89680332  1
  H+  H372  1  0.66685437  0.83093337  0.89476385  1
  H+  H373  1  0.59904155  0.47405757  0.42247049  1
  H+  H374  1  0.84292658  0.42041444  0.39124698  1
  H+  H375  1  0.37247289  0.05959934  0.22946322  1
  H+  H376  1  0.60702083  0.22136408  0.67727490  1
  H+  H377  1  0.39119420  0.02795720  0.50140234  1
  H+  H378  1  0.61384196  0.46609758  0.66864859  1
  H+  H379  1  0.92265638  0.85208121  0.89633786  1
  H+  H380  1  0.08334615  0.41400545  0.05836692  1
  H+  H381  1  0.58865731  0.91896767  0.44343794  1
  H+  H382  1  0.81350324  0.64041498  0.12121314  1
  H+  H383  1  0.18087339  0.33978212  0.22329939  1
  O2-  O384  1  0.08422826  0.17075875  0.14257759  1
  O2-  O385  1  0.06532417  0.17495417  0.47258592  1
  O2-  O386  1  0.07301994  0.15184552  0.82582797  1
  O2-  O387  1  0.08021633  0.40341064  0.12909100  1
  O2-  O388  1  0.08095753  0.42208298  0.47929479  1
  O2-  O389  1  0.07837172  0.41690382  0.81808709  1
  O2-  O390  1  0.09231428  0.70229487  0.14639409  1
  O2-  O391  1  0.09502970  0.66548070  0.49723232  1
  O2-  O392  1  0.08410662  0.66088353  0.83398878  1
  O2-  O393  1  0.07996417  0.90428891  0.14196422  1
  O2-  O394  1  0.07840507  0.90293906  0.48236688  1
  O2-  O395  1  0.08483001  0.91755394  0.81279012  1
  O2-  O396  1  0.32797201  0.16587801  0.14030398  1
  O2-  O397  1  0.34057430  0.16448709  0.46900225  1
  O2-  O398  1  0.32756287  0.15579471  0.81563139  1
  O2-  O399  1  0.34652742  0.42232128  0.14186957  1
  O2-  O400  1  0.30785161  0.38977998  0.47285020  1
  O2-  O401  1  0.31878838  0.38746121  0.80899381  1
  O2-  O402  1  0.33449842  0.66744363  0.14394376  1
  O2-  O403  1  0.33111532  0.67483881  0.47963781  1
  O2-  O404  1  0.32325810  0.68654790  0.81127815  1
  O2-  O405  1  0.31429313  0.89417776  0.13594788  1
  O2-  O406  1  0.33638048  0.92743840  0.47368799  1
  O2-  O407  1  0.32180863  0.90637738  0.81177314  1
  O2-  O408  1  0.54342441  0.14075118  0.14077578  1
  O2-  O409  1  0.58579317  0.16571683  0.48631695  1
  O2-  O410  1  0.57486720  0.17662373  0.82074367  1
  O2-  O411  1  0.59562698  0.41384709  0.13915056  1
  O2-  O412  1  0.57938433  0.44575593  0.46465764  1
  O2-  O413  1  0.57512678  0.41334099  0.81207395  1
  O2-  O414  1  0.58171248  0.66920708  0.14925387  1
  O2-  O415  1  0.59629141  0.69253352  0.48387421  1
  O2-  O416  1  0.58871648  0.65995872  0.81382317  1
  O2-  O417  1  0.58334340  0.91876335  0.14570441  1
  O2-  O418  1  0.58124195  0.91841411  0.48799526  1
  O2-  O419  1  0.58118905  0.89588723  0.80679166  1
  O2-  O420  1  0.80049985  0.12799488  0.13310072  1
  O2-  O421  1  0.82729938  0.17170096  0.48047873  1
  O2-  O422  1  0.83428741  0.16104679  0.81168028  1
  O2-  O423  1  0.83491237  0.43157614  0.14834005  1
  O2-  O424  1  0.84407219  0.42801477  0.46847794  1
  O2-  O425  1  0.83663341  0.42397449  0.80991172  1
  O2-  O426  1  0.82321612  0.65439652  0.16488138  1
  O2-  O427  1  0.83961472  0.67711876  0.48171746  1
  O2-  O428  1  0.84062699  0.66858109  0.82011903  1
  O2-  O429  1  0.85196316  0.93474243  0.13332809  1
  O2-  O430  1  0.83674739  0.92257875  0.47677255  1
  O2-  O431  1  0.83463033  0.91453771  0.80981909  1
  O2-  O432  1  0.16347721  0.08516220  0.17961162  1
  O2-  O433  1  0.16946912  0.06627718  0.51509718  1
  O2-  O434  1  0.15929783  0.07892803  0.85533641  1
  O2-  O435  1  0.18557822  0.33813441  0.17816239  1
  O2-  O436  1  0.15951648  0.33035961  0.50471594  1
  O2-  O437  1  0.14829087  0.31117241  0.84972910  1
  O2-  O438  1  0.18232865  0.62157474  0.18291777  1
  O2-  O439  1  0.17347185  0.58253836  0.52379999  1
  O2-  O440  1  0.16010622  0.57994780  0.86405601  1
  O2-  O441  1  0.14211521  0.79329237  0.16818686  1
  O2-  O442  1  0.17414472  0.83713792  0.52507782  1
  O2-  O443  1  0.16026737  0.82247999  0.85224808  1
  O2-  O444  1  0.38018218  0.06187621  0.18179878  1
  O2-  O445  1  0.42248078  0.08794533  0.51865305  1
  O2-  O446  1  0.40741623  0.07534419  0.85956089  1
  O2-  O447  1  0.43042352  0.33725474  0.18543819  1
  O2-  O448  1  0.41124833  0.33051255  0.51276806  1
  O2-  O449  1  0.41087747  0.32235950  0.85520409  1
  O2-  O450  1  0.41090688  0.58092004  0.18708038  1
  O2-  O451  1  0.43601745  0.61834170  0.53426582  1
  O2-  O452  1  0.42960641  0.61775989  0.86578625  1
  O2-  O453  1  0.41469152  0.83490049  0.18433651  1
  O2-  O454  1  0.40996497  0.84169743  0.52140027  1
  O2-  O455  1  0.44373203  0.88427099  0.87258516  1
  O2-  O456  1  0.64591980  0.08007944  0.18949431  1
  O2-  O457  1  0.66387417  0.08358096  0.52685008  1
  O2-  O458  1  0.67442819  0.07241662  0.85002027  1
  O2-  O459  1  0.74510110  0.40081425  0.16717095  1
  O2-  O460  1  0.69776046  0.31358259  0.53551681  1
  O2-  O461  1  0.66608105  0.34058362  0.85041257  1
  O2-  O462  1  0.64655253  0.57703185  0.19173101  1
  O2-  O463  1  0.67166350  0.60197597  0.52172707  1
  O2-  O464  1  0.66892268  0.57740567  0.85377684  1
  O2-  O465  1  0.67326638  0.84000122  0.18505446  1
  O2-  O466  1  0.67693399  0.85267509  0.52595286  1
  O2-  O467  1  0.66962162  0.82446694  0.84986625  1
  O2-  O468  1  0.91517522  0.09646391  0.18910155  1
  O2-  O469  1  0.90647066  0.08441405  0.52296679  1
  O2-  O470  1  0.91528750  0.07789507  0.85781815  1
  O2-  O471  1  0.92642221  0.34407974  0.18999747  1
  O2-  O472  1  0.91611236  0.34105997  0.51714439  1
  O2-  O473  1  0.90843610  0.32788468  0.84991069  1
  O2-  O474  1  0.92165044  0.58671381  0.18565727  1
  O2-  O475  1  0.91764512  0.59055632  0.52041075  1
  O2-  O476  1  0.92212406  0.58460628  0.85830335  1
  O2-  O477  1  0.90996951  0.82262165  0.18260606  1
  O2-  O478  1  0.91837154  0.84171711  0.52230954  1
  O2-  O479  1  0.92011842  0.83805641  0.85207944  1
  O2-  O480  1  0.19716530  0.17611050  0.29112371  1
  O2-  O481  1  0.16796042  0.08923086  0.64005594  1
  O2-  O482  1  0.16600805  0.09066153  0.97554704  1
  O2-  O483  1  0.17169028  0.33697381  0.30318516  1
  O2-  O484  1  0.16011683  0.33680460  0.65632199  1
  O2-  O485  1  0.15544198  0.32828195  0.96534016  1
  O2-  O486  1  0.17279065  0.58489781  0.30541966  1
  O2-  O487  1  0.17759449  0.59269477  0.64581440  1
  O2-  O488  1  0.16829588  0.58842035  0.98520506  1
  O2-  O489  1  0.15613881  0.82116909  0.29894055  1
  O2-  O490  1  0.17614900  0.84234436  0.64664503  1
  O2-  O491  1  0.16471871  0.83597694  0.97470680  1
  O2-  O492  1  0.37419666  0.06502945  0.29719295  1
  O2-  O493  1  0.41245320  0.08182657  0.64558698  1
  O2-  O494  1  0.40710958  0.05279669  0.97489542  1
  O2-  O495  1  0.45016036  0.36366613  0.30481455  1
  O2-  O496  1  0.41542218  0.33542588  0.63907634  1
  O2-  O497  1  0.41110403  0.33769251  0.97947083  1
  O2-  O498  1  0.40672856  0.57997762  0.31454514  1
  O2-  O499  1  0.41980049  0.60111944  0.65051568  1
  O2-  O500  1  0.42694246  0.59129097  0.98888365  1
  O2-  O501  1  0.41073659  0.83181048  0.30952655  1
  O2-  O502  1  0.42200922  0.84139118  0.65671911  1
  O2-  O503  1  0.41665055  0.82922775  0.98304375  1
  O2-  O504  1  0.66230389  0.08775084  0.31182268  1
  O2-  O505  1  0.66401333  0.07842625  0.64934961  1
  O2-  O506  1  0.66429704  0.09008283  0.97410275  1
  O2-  O507  1  0.70310011  0.32322375  0.27948957  1
  O2-  O508  1  0.65500773  0.32336492  0.65344741  1
  O2-  O509  1  0.67446515  0.33333098  0.97560049  1
  O2-  O510  1  0.63007572  0.52207340  0.35970089  1
  O2-  O511  1  0.69534247  0.55558574  0.63378991  1
  O2-  O512  1  0.65309376  0.56270710  0.97965674  1
  O2-  O513  1  0.66814773  0.83629931  0.30720203  1
  O2-  O514  1  0.66900193  0.84446302  0.64657008  1
  O2-  O515  1  0.66558347  0.84306629  0.97341146  1
  O2-  O516  1  0.90657767  0.07477904  0.31162644  1
  O2-  O517  1  0.91264437  0.09053871  0.64651409  1
  O2-  O518  1  0.91336554  0.08571576  0.97705785  1
  O2-  O519  1  0.93039803  0.33146969  0.31562430  1
  O2-  O520  1  0.91178086  0.33602014  0.64334073  1
  O2-  O521  1  0.91796418  0.34281569  0.97200135  1
  O2-  O522  1  0.92664376  0.57969470  0.29757166  1
  O2-  O523  1  0.84259164  0.55526190  0.62933936  1
  O2-  O524  1  0.92468446  0.58081106  0.98565380  1
  O2-  O525  1  0.89672289  0.82362852  0.31029748  1
  O2-  O526  1  0.92314276  0.84472499  0.64672005  1
  O2-  O527  1  0.92736579  0.87279574  0.97370947  1
  O2-  O528  1  0.07891694  0.16686322  0.01756416  1
  O2-  O529  1  0.05901861  0.10274746  0.35831546  1
  O2-  O530  1  0.07193849  0.16671639  0.67845714  1
  O2-  O531  1  0.08753990  0.42296324  0.01219349  1
  O2-  O532  1  0.09239868  0.42254654  0.35503312  1
  O2-  O533  1  0.08052001  0.42873576  0.69151288  1
  O2-  O534  1  0.08967838  0.67838185  0.02613993  1
  O2-  O535  1  0.07764831  0.65704517  0.34207004  1
  O2-  O536  1  0.08222003  0.67013694  0.69545868  1
  O2-  O537  1  0.08910670  0.92799522  0.01820034  1
  O2-  O538  1  0.04144039  0.85762153  0.36188118  1
  O2-  O539  1  0.08949971  0.92541992  0.68601657  1
  O2-  O540  1  0.33276751  0.18301729  0.01676123  1
  O2-  O541  1  0.33222580  0.16938533  0.34353520  1
  O2-  O542  1  0.33673865  0.17203689  0.68601271  1
  O2-  O543  1  0.35839985  0.43065084  0.02876271  1
  O2-  O544  1  0.32681389  0.40989856  0.35499292  1
  O2-  O545  1  0.34113009  0.42855396  0.68254214  1
  O2-  O546  1  0.33995144  0.66361837  0.02351250  1
  O2-  O547  1  0.33534127  0.67361133  0.35607486  1
  O2-  O548  1  0.34308052  0.68300841  0.68755535  1
  O2-  O549  1  0.33349463  0.90668227  0.01692943  1
  O2-  O550  1  0.31650567  0.91503380  0.34797593  1
  O2-  O551  1  0.33786742  0.91154319  0.69327389  1
  O2-  O552  1  0.54484456  0.17491049  0.02926607  1
  O2-  O553  1  0.59346423  0.17519405  0.36665604  1
  O2-  O554  1  0.57784283  0.15993986  0.69125503  1
  O2-  O555  1  0.57551598  0.39864771  0.01643906  1
  O2-  O556  1  0.58582399  0.34387974  0.34021737  1
  O2-  O557  1  0.57538773  0.40887869  0.68788916  1
  O2-  O558  1  0.62250210  0.68484895  0.03460566  1
  O2-  O559  1  0.57447417  0.68722068  0.35673015  1
  O2-  O560  1  0.59053118  0.68161866  0.68484550  1
  O2-  O561  1  0.58444806  0.92264640  0.02248897  1
  O2-  O562  1  0.64163406  0.94444703  0.36841828  1
  O2-  O563  1  0.57467112  0.91787965  0.69056601  1
  O2-  O564  1  0.83490411  0.17890628  0.01441992  1
  O2-  O565  1  0.83030832  0.16214719  0.35390562  1
  O2-  O566  1  0.83322336  0.16994541  0.68962395  1
  O2-  O567  1  0.83212245  0.41809413  0.02455724  1
  O2-  O568  1  0.85042389  0.41625127  0.34656845  1
  O2-  O569  1  0.82451227  0.41240774  0.68782536  1
  O2-  O570  1  0.79291790  0.58700617  0.04368873  1
  O2-  O571  1  0.78592690  0.65910374  0.36265035  1
  O2-  O572  1  0.83820457  0.68244546  0.69436172  1
  O2-  O573  1  0.84139458  0.93446158  0.02096404  1
  O2-  O574  1  0.82823220  0.91268778  0.35270731  1
  O2-  O575  1  0.83746539  0.92610619  0.68486666  1
