# generated using pymatgen
data_H2O
_symmetry_space_group_name_H-M   'P 1'
_cell_length_a   17.97772277
_cell_length_b   17.98085708
_cell_length_c   22.01079680
_cell_angle_alpha   89.97909580
_cell_angle_beta   90.04867497
_cell_angle_gamma   119.98002855
_symmetry_Int_Tables_number   1
_chemical_formula_structural   H2O
_chemical_formula_sum   'H384 O192'
_cell_volume   6163.09229114
_cell_formula_units_Z   192
loop_
 _symmetry_equiv_pos_site_id
 _symmetry_equiv_pos_as_xyz
  1  'x, y, z'
loop_
 _atom_type_symbol
 _atom_type_oxidation_number
  H+  1.0
  O2-  -2.0
loop_
 _atom_site_type_symbol
 _atom_site_label
 _atom_site_symmetry_multiplicity
 _atom_site_fract_x
 _atom_site_fract_y
 _atom_site_fract_z
 _atom_site_occupancy
  H+  H0  1  0.15131964  0.12210453  0.50234502  1
  H+  H1  1  0.98167608  0.35949740  0.49972930  1
  H+  H2  1  0.38934809  0.88759266  0.82119923  1
  H+  H3  1  -0.01437344  0.85849347  0.83107625  1
  H+  H4  1  0.63612367  0.35649992  0.16833581  1
  H+  H5  1  0.36369319  0.38711712  0.67337395  1
  H+  H6  1  0.39126908  0.28164120  0.66535765  1
  H+  H7  1  0.10090578  0.14283263  0.00677437  1
  H+  H8  1  0.76571642  0.88681277  0.34676146  1
  H+  H9  1  0.46584299  0.09787383  0.86927711  1
  H+  H10  1  0.63685985  0.36788904  0.67123183  1
  H+  H11  1  0.62192510  0.88416284  0.34289895  1
  H+  H12  1  0.70733083  0.60916645  0.51706270  1
  H+  H13  1  0.94899804  0.63764385  0.23724406  1
  H+  H14  1  0.87321010  0.11447023  0.67423094  1
  H+  H15  1  0.87819680  0.52177244  0.50646267  1
  H+  H16  1  0.20527428  0.59317262  0.65941316  1
  H+  H17  1  0.37966009  0.12271708  0.34849671  1
  H+  H18  1  0.90975516  0.87533540  -0.00100701  1
  H+  H19  1  0.17047577  0.09113076  0.59400100  1
  H+  H20  1  0.35680552  0.47258584  0.67545013  1
  H+  H21  1  0.01710833  0.62636761  0.83227461  1
  H+  H22  1  0.37327242  0.45984965  0.00511418  1
  H+  H23  1  0.81227859  0.15122701  0.83473141  1
  H+  H24  1  0.13832100  0.02669353  0.65062013  1
  H+  H25  1  0.40891687  0.28821375  0.51767014  1
  H+  H26  1  0.33529926  0.87709259  -0.00279173  1
  H+  H27  1  0.87251620  0.74498977  0.16126700  1
  H+  H28  1  0.39090075  0.86866193  0.16467016  1
  H+  H29  1  0.11624823  0.11544323  0.82630389  1
  H+  H30  1  0.21921467  0.60827009  0.51090105  1
  H+  H31  1  0.87752730  0.34351834  0.33161717  1
  H+  H32  1  0.60537765  0.60427130  0.32116243  1
  H+  H33  1  0.38122239  0.23863073  0.35362634  1
  H+  H34  1  0.02609276  0.90410368  0.03098096  1
  H+  H35  1  0.47979451  0.95948004  0.29005331  1
  H+  H36  1  0.07774222  0.65472662  0.77224202  1
  H+  H37  1  0.88593372  0.02536682  0.33219978  1
  H+  H38  1  0.87857321  0.10398585  0.50311469  1
  H+  H39  1  0.66187198  0.15842642  0.80599633  1
  H+  H40  1  -0.00331758  0.63467138  0.17280353  1
  H+  H41  1  0.77481876  0.14171525  0.48875570  1
  H+  H42  1  0.11476002  0.63948236  0.35120225  1
  H+  H43  1  0.79497761  0.89814258  0.81789795  1
  H+  H44  1  0.73637197  0.40021974  0.80965583  1
  H+  H45  1  0.86662669  0.97582328  -0.00584304  1
  H+  H46  1  0.74426677  0.11685384  0.65869170  1
  H+  H47  1  0.38503303  0.99359342  0.50681867  1
  H+  H48  1  0.11839369  0.50161278  0.66059020  1
  H+  H49  1  0.89878651  0.02138708  0.65321887  1
  H+  H50  1  0.63476679  0.97949079  0.83336757  1
  H+  H51  1  0.62119336  0.65184532  0.16010750  1
  H+  H52  1  0.83125505  0.91810922  0.43455775  1
  H+  H53  1  0.74892962  0.34660769  0.34297726  1
  H+  H54  1  0.10068976  0.47615871  0.15886727  1
  H+  H55  1  0.74886021  0.50940433  0.37861780  1
  H+  H56  1  1.01006017  0.88170798  0.50213461  1
  H+  H57  1  0.27851905  0.89760321  0.15954749  1
  H+  H58  1  0.61239925  0.46512317  0.16149758  1
  H+  H59  1  0.27407932  0.89033287  0.35690692  1
  H+  H60  1  0.48129024  0.36011836  0.17546612  1
  H+  H61  1  0.28297301  0.39249359  0.50372956  1
  H+  H62  1  0.66392543  0.68910393  0.38157633  1
  H+  H63  1  0.07597044  0.41018303  0.43435332  1
  H+  H64  1  0.63756239  0.77437071  0.17106805  1
  H+  H65  1  0.35152874  0.63627162  0.02865361  1
  H+  H66  1  0.51459643  0.12396259  0.34267957  1
  H+  H67  1  0.11647324  0.88579640  0.66869851  1
  H+  H68  1  0.87487005  0.73728796  0.82397538  1
  H+  H69  1  0.13317332  0.75770961  0.84828745  1
  H+  H70  1  0.88293203  0.26205720  0.65249104  1
  H+  H71  1  -0.01268555  0.11379298  0.65661837  1
  H+  H72  1  0.35579206  0.20228355  0.84491362  1
  H+  H73  1  0.63259859  0.37925167  0.48902350  1
  H+  H74  1  0.54159464  0.90715475  0.67046782  1
  H+  H75  1  1.01691976  0.67615637  0.32256080  1
  H+  H76  1  0.61722580  0.25445383  0.32167669  1
  H+  H77  1  0.49428068  0.12420549  0.14143834  1
  H+  H78  1  0.91856903  0.13131883  0.83672763  1
  H+  H79  1  0.28431112  0.62106644  0.34151978  1
  H+  H80  1  0.14003210  0.78005486  0.17826211  1
  H+  H81  1  0.39951107  0.89954591  0.32877044  1
  H+  H82  1  0.66620062  0.82767785  0.27743590  1
  H+  H83  1  0.88317706  0.76598040  0.65953947  1
  H+  H84  1  0.88499273  0.52239494  0.66191906  1
  H+  H85  1  0.20816963  0.85166692  0.00265460  1
  H+  H86  1  0.63819270  0.72291365  0.83500465  1
  H+  H87  1  0.74441954  0.40475396  0.99478818  1
  H+  H88  1  0.87756020  0.34955128  0.17756468  1
  H+  H89  1  0.57488096  0.66752885  0.43978887  1
  H+  H90  1  0.00921395  0.38422665  0.16219332  1
  H+  H91  1  0.85899966  0.89444163  0.34637244  1
  H+  H92  1  0.62237800  0.14328904  0.13495001  1
  H+  H93  1  0.86509539  0.22407855  0.33785703  1
  H+  H94  1  0.34067242  0.74906185  -0.01142021  1
  H+  H95  1  0.65681017  0.61039790  0.84993537  1
  H+  H96  1  0.61406638  0.23987828  0.86131151  1
  H+  H97  1  0.38466933  0.89515747  0.50409547  1
  H+  H98  1  0.35233038  0.11187253  0.85523605  1
  H+  H99  1  0.85454206  0.63282359  0.49892558  1
  H+  H100  1  0.65583440  0.86626412  0.82430462  1
  H+  H101  1  0.79568611  0.06995622  0.71929833  1
  H+  H102  1  0.26265856  0.63632495  0.82223751  1
  H+  H103  1  0.97333731  0.11795197  0.99459014  1
  H+  H104  1  0.76770128  0.38059374  0.16853571  1
  H+  H105  1  0.23033847  0.36484085  0.31832920  1
  H+  H106  1  0.59147103  0.31201832  0.87004949  1
  H+  H107  1  0.86192057  0.12131042  0.16058780  1
  H+  H108  1  0.50929364  0.58885737  0.98471683  1
  H+  H109  1  0.65284169  0.57372942  0.60753897  1
  H+  H110  1  0.02631324  0.13976364  0.34052130  1
  H+  H111  1  0.60896013  0.88474850  0.49976793  1
  H+  H112  1  0.72881183  0.37175450  0.66186214  1
  H+  H113  1  0.62465685  0.71909863  0.00135479  1
  H+  H114  1  -0.02558708  0.34753998  0.65354990  1
  H+  H115  1  0.60772475  0.63591926  0.67986871  1
  H+  H116  1  0.15274421  1.04161895  0.32538646  1
  H+  H117  1  0.37940831  0.61163246  0.66218114  1
  H+  H118  1  0.86354683  0.38248938  0.67120691  1
  H+  H119  1  -0.02172007  0.60594002  0.00009209  1
  H+  H120  1  0.36077351  0.11144729  0.01352844  1
  H+  H121  1  0.10971345  0.70778932  0.01766486  1
  H+  H122  1  0.86508842  0.98457016  0.49854718  1
  H+  H123  1  0.39391949  0.11440349  0.51450632  1
  H+  H124  1  0.83493129  0.17038907  0.42800291  1
  H+  H125  1  0.88241503  0.25753446  0.49638599  1
  H+  H126  1  0.13084134  0.23036815  0.49510059  1
  H+  H127  1  0.42447574  0.85279142  0.22680814  1
  H+  H128  1  0.88800353  0.37617813  0.84532419  1
  H+  H129  1  0.59647886  0.63286260  0.50092020  1
  H+  H130  1  0.22518007  0.09462737  0.85346837  1
  H+  H131  1  -0.02981875  0.09689612  0.17397177  1
  H+  H132  1  0.54125762  0.89292765  0.82683489  1
  H+  H133  1  0.55800773  0.41766515  0.43474269  1
  H+  H134  1  0.89728571  0.29315666  0.84139151  1
  H+  H135  1  0.10738898  0.37049793  0.66786339  1
  H+  H136  1  0.85908605  0.18336312  0.77065482  1
  H+  H137  1  0.12591358  0.53259528  0.86170861  1
  H+  H138  1  0.64444425  0.02262519  0.32273465  1
  H+  H139  1  0.63893811  0.02532290  0.16730499  1
  H+  H140  1  0.91271451  0.33394933  0.93907394  1
  H+  H141  1  0.09004691  0.92840625  0.26418841  1
  H+  H142  1  0.62126215  0.88654524  0.16266569  1
  H+  H143  1  0.88038972  0.64342105  1.01263819  1
  H+  H144  1  0.67239495  0.35356235  0.94543205  1
  H+  H145  1  0.87634097  0.52234331  0.84767229  1
  H+  H146  1  0.38239827  0.26352990  -0.00933564  1
  H+  H147  1  0.40013852  0.53629848  0.17281540  1
  H+  H148  1  0.52641367  0.38744072  0.68713307  1
  H+  H149  1  0.12938567  0.32770992  0.84101195  1
  H+  H150  1  0.13786047  0.26904925  0.66231260  1
  H+  H151  1  0.41376051  0.62661032  0.33366562  1
  H+  H152  1  0.02682661  0.38619238  0.82891346  1
  H+  H153  1  0.10101059  0.62411090  0.67702982  1
  H+  H154  1  0.51824027  0.38097955  0.01278987  1
  H+  H155  1  0.91667334  0.32636409  0.27042648  1
  H+  H156  1  0.50116531  0.62559792  0.33179700  1
  H+  H157  1  0.46661105  0.61662609  0.51236740  1
  H+  H158  1  0.79143686  0.88271028  -0.02013545  1
  H+  H159  1  0.76144018  0.62992187  -0.00955635  1
  H+  H160  1  0.11681658  0.35161331  0.17388003  1
  H+  H161  1  0.61679791  0.13931538  0.49330987  1
  H+  H162  1  0.63504859  0.77083905  0.66378435  1
  H+  H163  1  0.12202399  0.85113822  0.52275331  1
  H+  H164  1  0.15248612  0.49549363  0.32349721  1
  H+  H165  1  0.37532320  0.40040919  0.50690189  1
  H+  H166  1  0.22614694  0.36062500  0.66244183  1
  H+  H167  1  0.35964398  -0.03087922  0.67284897  1
  H+  H168  1  0.64274321  1.02531734  0.50227221  1
  H+  H169  1  0.78860243  0.65726732  0.17123748  1
  H+  H170  1  0.88632640  0.78790348  0.33171711  1
  H+  H171  1  0.35808445  0.63817949  0.50500417  1
  H+  H172  1  0.41889327  0.79329375  0.65587903  1
  H+  H173  1  0.36245421  0.36921361  1.00968607  1
  H+  H174  1  0.36971743  -0.01635059  0.14879065  1
  H+  H175  1  0.12938195  0.44097804  0.81538817  1
  H+  H176  1  0.23193782  0.12577123  0.17670991  1
  H+  H177  1  0.85837172  0.63407940  0.67308677  1
  H+  H178  1  0.86788643  0.88630053  0.66451859  1
  H+  H179  1  0.76193770  0.02939919  0.87707651  1
  H+  H180  1  0.86751125  0.53608628  0.30860613  1
  H+  H181  1  0.90273817  0.86940802  0.82708567  1
  H+  H182  1  0.12952775  0.93615014  1.04471056  1
  H+  H183  1  0.11621490  0.13552998  0.66836603  1
  H+  H184  1  0.27207520  0.14845126  0.66790786  1
  H+  H185  1  0.87885114  -0.04590508  0.17732778  1
  H+  H186  1  0.38823307  0.00752458  0.85171726  1
  H+  H187  1  0.46205753  0.11018432  0.67426454  1
  H+  H188  1  0.10071584  0.46388098  0.01180685  1
  H+  H189  1  0.36767763  0.14697969  0.15249487  1
  H+  H190  1  0.63357776  0.86491230  -0.01126650  1
  H+  H191  1  0.66583720  0.62241403  0.98819401  1
  H+  H192  1  0.86402721  0.12730144  0.99632478  1
  H+  H193  1  0.60692780  0.33698255  0.31696794  1
  H+  H194  1  0.64051411  0.76505677  0.33995239  1
  H+  H195  1  0.75107979  0.61916246  0.84113788  1
  H+  H196  1  0.91666862  0.79042497  0.00697589  1
  H+  H197  1  0.63220392  1.00860222  0.67230162  1
  H+  H198  1  0.21764606  0.59569736  1.01123953  1
  H+  H199  1  0.10242630  0.47101248  0.49437707  1
  H+  H200  1  0.27338804  0.35905425  0.82719972  1
  H+  H201  1  0.74350181  0.31844939  0.80231971  1
  H+  H202  1  0.73039800  0.85502561  0.18118054  1
  H+  H203  1  0.28484429  0.15582904  0.35228947  1
  H+  H204  1  0.44750813  0.85040391  0.59572291  1
  H+  H205  1  0.61425873  0.77055476  0.51248428  1
  H+  H206  1  0.42929514  0.33260355  0.23720645  1
  H+  H207  1  0.12298696  0.03711858  1.00585160  1
  H+  H208  1  0.56990512  0.15796014  0.63227167  1
  H+  H209  1  0.63029979  0.53132615  0.32132311  1
  H+  H210  1  0.84241949  0.48999370  0.31877656  1
  H+  H211  1  0.22299368  0.85228583  0.66632474  1
  H+  H212  1  0.35678475  0.71894700  0.34472177  1
  H+  H213  1  0.88308729  0.98816554  0.81893664  1
  H+  H214  1  0.10819730  0.14021858  0.16133866  1
  H+  H215  1  0.88860618  0.11437228  0.32694587  1
  H+  H216  1  0.47572632  0.34580947  0.83663525  1
  H+  H217  1  0.72407727  0.70497210  0.22201078  1
  H+  H218  1  0.25498814  0.13616827  0.00675453  1
  H+  H219  1  0.13274758  0.62100463  0.85056395  1
  H+  H220  1  0.35663303  0.14353938  0.67316129  1
  H+  H221  1  0.86215073  0.88446872  0.49666545  1
  H+  H222  1  0.91456184  0.57902913  0.90749685  1
  H+  H223  1  0.10718100  0.82548173  0.99783522  1
  H+  H224  1  0.53839760  0.89579860  0.33988376  1
  H+  H225  1  0.46490045  0.11788228  0.00366848  1
  H+  H226  1  0.23051231  0.51046219  0.28346704  1
  H+  H227  1  0.62080908  0.51956993  0.50660214  1
  H+  H228  1  0.10831185  0.61726549  0.02016993  1
  H+  H229  1  0.92862476  0.67491986  0.32146137  1
  H+  H230  1  0.97347671  0.85522240  0.65416376  1
  H+  H231  1  0.11833694  0.14483042  0.34079286  1
  H+  H232  1  0.90125330  0.64080135  0.17375816  1
  H+  H233  1  0.14780587  0.32267211  0.23259074  1
  H+  H234  1  0.14077937  0.27598418  0.32865433  1
  H+  H235  1  0.40025868  0.76723347  0.83078234  1
  H+  H236  1  0.52183908  0.63862790  0.67827447  1
  H+  H237  1  0.72417784  0.85806598  0.65677644  1
  H+  H238  1  1.00921869  0.90357243  0.18019458  1
  H+  H239  1  0.44745588  0.65631970  0.86567922  1
  H+  H240  1  0.00303726  0.37308065  0.01095085  1
  H+  H241  1  0.87598669  0.64746452  0.82860292  1
  H+  H242  1  0.54897982  0.63611976  0.83434354  1
  H+  H243  1  0.57126830  0.20872665  -0.03436586  1
  H+  H244  1  0.36775077  0.64182059  0.16906408  1
  H+  H245  1  0.99636538  0.11202388  0.83804438  1
  H+  H246  1  0.28492626  0.72669054  0.66856564  1
  H+  H247  1  0.28566109  0.13832819  0.50584583  1
  H+  H248  1  0.12272190  0.20798819  0.82878195  1
  H+  H249  1  0.37668030  0.39467543  0.32677321  1
  H+  H250  1  0.13655247  0.27761095  0.99421522  1
  H+  H251  1  0.67654709  0.49758106  0.42533761  1
  H+  H252  1  0.14307696  0.02830773  0.50840450  1
  H+  H253  1  0.36593100  0.01904756  1.00517243  1
  H+  H254  1  0.42720832  0.59504142  0.98065251  1
  H+  H255  1  0.65047790  0.46602553  0.83498235  1
  H+  H256  1  0.02212900  0.37942829  0.34197048  1
  H+  H257  1  0.48729716  0.86992358  0.50231136  1
  H+  H258  1  0.63262286  0.25058885  0.66343439  1
  H+  H259  1  0.14878776  0.78122011  0.33750929  1
  H+  H260  1  0.35624814  -0.01558866  0.36071140  1
  H+  H261  1  0.23192049  0.35668693  -0.00852343  1
  H+  H262  1  0.15447139  0.81261382  0.90875939  1
  H+  H263  1  0.91616963  0.31980779  0.56193817  1
  H+  H264  1  0.11261973  0.63584597  0.17092545  1
  H+  H265  1  0.13829724  0.36188243  0.50913218  1
  H+  H266  1  0.12243811  0.76319343  0.51835150  1
  H+  H267  1  0.37549101  0.89044500  0.66756875  1
  H+  H268  1  0.57979080  0.16079221  0.43441800  1
  H+  H269  1  0.97721849  0.87118504  0.31800562  1
  H+  H270  1  0.60558328  0.12513190  0.33677758  1
  H+  H271  1  0.84670254  0.38745267  0.49586936  1
  H+  H272  1  0.13556621  1.00551136  0.84645444  1
  H+  H273  1  0.66589977  0.60773159  0.24191158  1
  H+  H274  1  -0.02810102  0.61194351  0.66392172  1
  H+  H275  1  0.77362947  0.13642399  0.33692677  1
  H+  H276  1  0.57939325  0.94913768  1.01009267  1
  H+  H277  1  0.36409093  0.73052284  0.16926234  1
  H+  H278  1  0.10356246  0.62804482  0.49792727  1
  H+  H279  1  0.85790764  0.46819544  0.17558926  1
  H+  H280  1  0.88437803  0.26306884  0.17377357  1
  H+  H281  1  0.53128943  0.88601726  0.15588287  1
  H+  H282  1  0.52743200  0.64287660  0.15463238  1
  H+  H283  1  0.39324089  0.78021309  0.50879172  1
  H+  H284  1  0.28969916  0.76430055  0.93665754  1
  H+  H285  1  0.37899583  0.40406784  0.16742363  1
  H+  H286  1  0.86142561  0.38452268  1.01669177  1
  H+  H287  1  0.87241593  0.76754608  0.50381011  1
  H+  H288  1  0.62569197  0.19105959  0.75372131  1
  H+  H289  1  0.58030667  0.18130816  0.03539011  1
  H+  H290  1  0.18059014  0.83646784  0.27594212  1
  H+  H291  1  0.16952654  0.31493956  0.90288749  1
  H+  H292  1  0.63258806  0.28788609  0.49351461  1
  H+  H293  1  0.38645130  0.34654412  0.83585916  1
  H+  H294  1  0.66690814  0.08232139  0.26258929  1
  H+  H295  1  0.64825679  0.83021822  0.57207395  1
  H+  H296  1  0.06890156  0.83985445  0.77057689  1
  H+  H297  1  0.60107086  0.66344062  0.06240222  1
  H+  H298  1  0.43517084  0.59902206  0.23171173  1
  H+  H299  1  0.34150188  0.62407173  0.80455928  1
  H+  H300  1  0.62335351  0.23182966  0.13994310  1
  H+  H301  1  0.61376821  0.41144584  0.77444024  1
  H+  H302  1  0.09242598  0.93121083  0.72030272  1
  H+  H303  1  0.11020740  0.37507181  0.34482915  1
  H+  H304  1  0.08463978  0.66825139  0.41181673  1
  H+  H305  1  0.10978509  0.71831496  0.68052904  1
  H+  H306  1  0.67849192  0.84029533  0.88704295  1
  H+  H307  1  0.33123099  0.39683356  0.76837443  1
  H+  H308  1  0.09833330  0.17250555  0.43555543  1
  H+  H309  1  0.61477597  0.47650604  0.68402104  1
  H+  H310  1  0.18638978  0.10955280  0.27274877  1
  H+  H311  1  0.73405000  0.08295146  0.91700381  1
  H+  H312  1  0.89066142  0.85022237  0.23620986  1
  H+  H313  1  0.38010245  0.07364540  0.28906223  1
  H+  H314  1  0.36678346  0.23462550  0.16244920  1
  H+  H315  1  0.61442015  0.93314476  0.07158414  1
  H+  H316  1  0.83388133  0.66673630  0.73340172  1
  H+  H317  1  0.83679938  0.15469933  0.10086309  1
  H+  H318  1  0.41671178  0.81682107  0.89321045  1
  H+  H319  1  0.15749177  0.81990558  0.60956583  1
  H+  H320  1  0.88693246  0.52151500  0.00131117  1
  H+  H321  1  0.15326797  0.57020953  0.56684042  1
  H+  H322  1  0.84708383  0.92474273  0.72320900  1
  H+  H323  1  0.48545222  0.11591316  0.51099580  1
  H+  H324  1  0.71978512  0.60900758  0.66316556  1
  H+  H325  1  0.22431494  0.61208864  0.17408069  1
  H+  H326  1  0.91126795  0.58024866  0.56716202  1
  H+  H327  1  0.56948459  0.78662768  0.94945551  1
  H+  H328  1  0.75807102  0.39110810  0.48931839  1
  H+  H329  1  0.34784852  0.17389777  0.44928341  1
  H+  H330  1  0.32336662  0.66827516  0.08579200  1
  H+  H331  1  0.79343039  0.62805307  0.44564120  1
  H+  H332  1  0.31659541  0.17001371  0.06717954  1
  H+  H333  1  0.14110590  0.03934293  0.18730303  1
  H+  H334  1  0.06960818  0.16666468  0.06826391  1
  H+  H335  1  0.59878449  0.94302374  0.73738877  1
  H+  H336  1  0.83612671  0.41759484  0.07688756  1
  H+  H337  1  0.65624555  0.31710925  0.22723734  1
  H+  H338  1  0.61933168  0.41215685  0.00953216  1
  H+  H339  1  0.07453289  0.90802357  0.44729326  1
  H+  H340  1  0.12088144  0.86293029  0.83065939  1
  H+  H341  1  0.49616780  0.37889347  0.51285902  1
  H+  H342  1  0.71397659  1.05790139  0.01303916  1
  H+  H343  1  0.42461966  0.56431665  0.88057565  1
  H+  H344  1  0.01322027  0.62794274  0.49623525  1
  H+  H345  1  0.06355278  0.40919838  0.07852102  1
  H+  H346  1  0.72819128  0.11220342  0.16854468  1
  H+  H347  1  0.43333263  0.34769581  0.60993897  1
  H+  H348  1  0.80913155  0.38293876  0.40220109  1
  H+  H349  1  0.41978869  0.08398408  0.60768489  1
  H+  H350  1  0.66348320  0.13537866  0.65468604  1
  H+  H351  1  0.08393114  0.66110077  0.10820353  1
  H+  H352  1  0.90327552  0.82356349  0.56548632  1
  H+  H353  1  0.16817220  0.56859010  0.23154586  1
  H+  H354  1  0.34337313  0.92488811  0.44568667  1
  H+  H355  1  0.58890675  0.92006359  0.43634401  1
  H+  H356  1  0.16595936  0.57740134  0.94793414  1
  H+  H357  1  0.84647204  0.67436238  0.06983852  1
  H+  H358  1  0.35049680  0.42678949  0.10538203  1
  H+  H359  1  0.87944387  0.26437459  0.99383621  1
  H+  H360  1  0.32072713  0.91079651  0.06171306  1
  H+  H361  1  0.41905716  0.32483913  0.93244121  1
  H+  H362  1  0.69976695  0.59249250  0.92048084  1
  H+  H363  1  0.15133253  0.07669683  0.93796218  1
  H+  H364  1  0.11613420  0.89073735  0.31914591  1
  H+  H365  1  0.45494849  0.10604510  0.20591474  1
  H+  H366  1  0.40907646  0.58335668  0.60325977  1
  H+  H367  1  0.34922919  0.91419184  0.76723907  1
  H+  H368  1  0.16713086  0.33302409  0.56911904  1
  H+  H369  1  0.08745623  0.15863288  0.73130211  1
  H+  H370  1  0.33043457  0.66780503  0.44510273  1
  H+  H371  1  0.38021121  0.52480976  0.51468929  1
  H+  H372  1  0.37870795  0.48293730  0.32042039  1
  H+  H373  1  0.67898424  0.08795621  0.56011970  1
  H+  H374  1  0.31202447  0.68748839  0.72344389  1
  H+  H375  1  0.91339952  0.07023126  0.23462897  1
  H+  H376  1  0.07770748  0.93543494  0.12794180  1
  H+  H377  1  0.57902063  0.41039189  0.09881954  1
  H+  H378  1  0.92459304  0.08958493  0.92960672  1
  H+  H379  1  0.06784806  0.39117748  0.72633544  1
  H+  H380  1  0.82478730  0.40573301  0.72978118  1
  H+  H381  1  0.09377524  0.22047528  0.16221513  1
  H+  H382  1  0.13414158  0.86531595  0.18460919  1
  H+  H383  1  0.91305140  0.07808333  0.56302909  1
  O2-  O384  1  0.06902368  0.15959455  0.14540386  1
  O2-  O385  1  0.10596779  0.17054004  0.48002401  1
  O2-  O386  1  0.08942022  0.14895357  0.81002358  1
  O2-  O387  1  0.06809310  0.41631973  0.14257287  1
  O2-  O388  1  0.07033055  0.40952879  0.48018089  1
  O2-  O389  1  0.07594535  0.38855305  0.80588112  1
  O2-  O390  1  0.08374968  0.66744852  0.15411267  1
  O2-  O391  1  0.07474686  0.65921491  0.48159019  1
  O2-  O392  1  0.07808354  0.65456863  0.81804504  1
  O2-  O393  1  0.07168622  0.92545158  0.17352232  1
  O2-  O394  1  0.07287505  0.91197293  0.49133559  1
  O2-  O395  1  0.08890523  0.88348730  0.80238509  1
  O2-  O396  1  0.33309368  0.17472151  0.14449292  1
  O2-  O397  1  0.34815408  0.16795465  0.49423739  1
  O2-  O398  1  0.31945458  0.13937984  0.84025768  1
  O2-  O399  1  0.35968729  0.44171289  0.14918026  1
  O2-  O400  1  0.34416067  0.42972595  0.49280502  1
  O2-  O401  1  0.33373743  0.38972935  0.81295657  1
  O2-  O402  1  0.33215124  0.66888440  0.15607486  1
  O2-  O403  1  0.32892951  0.67106041  0.49005342  1
  O2-  O404  1  0.31721832  0.66216900  0.79873731  1
  O2-  O405  1  0.33493257  0.92119066  0.13870905  1
  O2-  O406  1  0.35444089  0.92928715  0.49154761  1
  O2-  O407  1  0.35808156  0.91783478  0.81167238  1
  O2-  O408  1  0.59541644  0.17545010  0.11771661  1
  O2-  O409  1  0.58061503  0.16380345  0.47972381  1
  O2-  O410  1  0.65474226  0.20650869  0.79362951  1
  O2-  O411  1  0.58271019  0.40626234  0.14646757  1
  O2-  O412  1  0.59223162  0.43411763  0.47192956  1
  O2-  O413  1  0.63296035  0.40915221  0.81709363  1
  O2-  O414  1  0.58750498  0.67313031  0.13736680  1
  O2-  O415  1  0.56690680  0.66372278  0.48514858  1
  O2-  O416  1  0.60874108  0.66250538  0.84845634  1
  O2-  O417  1  0.59283641  0.91695098  0.14370809  1
  O2-  O418  1  0.58372357  0.92173486  0.48138759  1
  O2-  O419  1  0.59968180  0.92766032  0.80825520  1
  O2-  O420  1  0.83632421  0.15639149  0.14583533  1
  O2-  O421  1  0.83668064  0.17361746  0.47432717  1
  O2-  O422  1  0.86663148  0.19516914  0.81493448  1
  O2-  O423  1  0.83101794  0.41152092  0.15653944  1
  O2-  O424  1  0.82375999  0.42135359  0.47759471  1
  O2-  O425  1  0.77983088  0.38180940  0.80421475  1
  O2-  O426  1  0.84775202  0.68276954  0.15247355  1
  O2-  O427  1  0.82181727  0.66040122  0.48335280  1
  O2-  O428  1  0.84319241  0.67337299  0.81144158  1
  O2-  O429  1  0.84573421  0.89005815  0.16799273  1
  O2-  O430  1  0.83554077  0.91939581  0.48107022  1
  O2-  O431  1  0.85418796  0.92938078  0.80088395  1
  O2-  O432  1  0.17441239  0.10155768  0.19676052  1
  O2-  O433  1  0.17934823  0.08904924  0.52045332  1
  O2-  O434  1  0.15938620  0.06374865  0.86245434  1
  O2-  O435  1  0.13926298  0.31483369  0.18793985  1
  O2-  O436  1  0.17088306  0.33474505  0.52376939  1
  O2-  O437  1  0.16561842  0.30546716  0.85658594  1
  O2-  O438  1  0.16284577  0.58058596  0.18793275  1
  O2-  O439  1  0.15664786  0.57406362  0.52154638  1
  O2-  O440  1  0.16587548  0.59337405  0.86898508  1
  O2-  O441  1  0.17004912  0.83942896  0.19480969  1
  O2-  O442  1  0.15127939  0.82056219  0.53780985  1
  O2-  O443  1  0.16307314  0.81718950  0.86444443  1
  O2-  O444  1  0.43691754  0.09499719  0.16352712  1
  O2-  O445  1  0.42534297  0.08322687  0.52895834  1
  O2-  O446  1  0.40563957  0.05884474  0.87857604  1
  O2-  O447  1  0.42165539  0.33158344  0.19248920  1
  O2-  O448  1  0.43710806  0.34840272  0.53178735  1
  O2-  O449  1  0.41871742  0.31858513  0.85492991  1
  O2-  O450  1  0.42813828  0.59921813  0.18673341  1
  O2-  O451  1  0.40643623  0.58726496  0.52911390  1
  O2-  O452  1  0.42836799  0.60116452  0.84594900  1
  O2-  O453  1  0.42072720  0.83960337  0.18268628  1
  O2-  O454  1  0.42695594  0.84222996  0.52154024  1
  O2-  O455  1  0.43962189  0.82206530  0.85150949  1
  O2-  O456  1  0.66653696  0.08650089  0.18044926  1
  O2-  O457  1  0.67573032  0.08776491  0.51515462  1
  O2-  O458  1  0.73206519  0.06216532  0.87386280  1
  O2-  O459  1  0.66601972  0.32468067  0.18209591  1
  O2-  O460  1  0.66581399  0.34927158  0.50331885  1
  O2-  O461  1  0.59364439  0.26519936  0.89215002  1
  O2-  O462  1  0.70052944  0.64732478  0.20507910  1
  O2-  O463  1  0.64637967  0.57761986  0.52938557  1
  O2-  O464  1  0.69237396  0.58222713  0.86106086  1
  O2-  O465  1  0.66908996  0.83201694  0.19118562  1
  O2-  O466  1  0.64128119  0.83105409  0.52668214  1
  O2-  O467  1  0.68937280  0.84208895  0.84283547  1
  O2-  O468  1  0.90966768  0.06059735  0.18963368  1
  O2-  O469  1  0.90219665  0.06831589  0.51840728  1
  O2-  O470  1  0.93471841  0.08988375  0.85269651  1
  O2-  O471  1  0.91276351  0.32320186  0.18977946  1
  O2-  O472  1  0.91697149  0.32221912  0.51560763  1
  O2-  O473  1  0.92362345  0.35242113  0.85968759  1
  O2-  O474  1  0.93486945  0.61361981  0.19293879  1
  O2-  O475  1  0.91222991  0.58263924  0.52177412  1
  O2-  O476  1  0.91531160  0.58080337  0.86164357  1
  O2-  O477  1  0.89768912  0.85290774  0.19084645  1
  O2-  O478  1  0.90359539  0.82798104  0.51965554  1
  O2-  O479  1  0.92475488  0.83265106  0.84351831  1
  O2-  O480  1  0.18500741  0.10426045  0.31840350  1
  O2-  O481  1  0.16594615  0.08847544  0.63984957  1
  O2-  O482  1  0.15475422  0.09155892  0.98239482  1
  O2-  O483  1  0.16649165  0.33607124  0.31245794  1
  O2-  O484  1  0.16460861  0.32988019  0.64752561  1
  O2-  O485  1  0.17392487  0.33233955  0.97272693  1
  O2-  O486  1  0.20235723  0.54129462  0.29891018  1
  O2-  O487  1  0.14475160  0.56266774  0.64613657  1
  O2-  O488  1  0.15885485  0.56524714  0.99248170  1
  O2-  O489  1  0.17806378  0.84096422  0.32101443  1
  O2-  O490  1  0.16070467  0.82232740  0.65606554  1
  O2-  O491  1  0.14814580  0.80630465  0.98959714  1
  O2-  O492  1  0.40023472  0.08237816  0.33097776  1
  O2-  O493  1  0.40792658  0.07616408  0.65243042  1
  O2-  O494  1  0.39711423  0.08129522  1.01667489  1
  O2-  O495  1  0.44958660  0.33309588  0.31991145  1
  O2-  O496  1  0.42688739  0.34492556  0.65524012  1
  O2-  O497  1  0.41716277  0.32453208  0.97797773  1
  O2-  O498  1  0.44375064  0.60060215  0.31268861  1
  O2-  O499  1  0.40797444  0.58036907  0.64940117  1
  O2-  O500  1  0.44981425  0.55870428  0.96727288  1
  O2-  O501  1  0.44401727  0.89919764  0.30144190  1
  O2-  O502  1  0.45206597  0.85339186  0.64163362  1
  O2-  O503  1  0.34425604  0.79244416  0.95863506  1
  O2-  O504  1  0.66693611  0.08288626  0.30797551  1
  O2-  O505  1  0.68502232  0.09523340  0.64217199  1
  O2-  O506  1  0.74409383  0.11306720  0.98991895  1
  O2-  O507  1  0.64433745  0.31358860  0.30420781  1
  O2-  O508  1  0.66624825  0.33707189  0.65441993  1
  O2-  O509  1  0.69824838  0.40547167  0.97077785  1
  O2-  O510  1  0.60995037  0.56083619  0.29436632  1
  O2-  O511  1  0.65764079  0.57506768  0.65302842  1
  O2-  O512  1  0.70179762  0.59846144  0.97139494  1
  O2-  O513  1  0.66829154  0.83082799  0.32228129  1
  O2-  O514  1  0.66274620  0.83046172  0.64656938  1
  O2-  O515  1  0.62899351  0.81627983  0.96341292  1
  O2-  O516  1  0.91897576  0.08344521  0.31346227  1
  O2-  O517  1  0.92639744  0.08401496  0.64043823  1
  O2-  O518  1  0.91410742  0.08687422  0.97456381  1
  O2-  O519  1  0.91950125  0.32603794  0.31559277  1
  O2-  O520  1  0.91371469  0.32022717  0.63594309  1
  O2-  O521  1  0.91130242  0.32750711  0.98418948  1
  O2-  O522  1  0.97769990  0.68702006  0.29592314  1
  O2-  O523  1  0.91259529  0.58269881  0.64675698  1
  O2-  O524  1  0.91868000  0.58137688  0.98406523  1
  O2-  O525  1  0.91311184  0.84502379  0.31372427  1
  O2-  O526  1  0.91257377  0.82505284  0.64064959  1
  O2-  O527  1  0.95055871  0.85246829  0.99744733  1
  O2-  O528  1  0.06813929  0.17008683  0.02269488  1
  O2-  O529  1  0.08674565  0.17374262  0.35536476  1
  O2-  O530  1  0.08505963  0.16433931  0.68619649  1
  O2-  O531  1  0.06369871  0.40482165  0.03002810  1
  O2-  O532  1  0.08191570  0.40854108  0.35938073  1
  O2-  O533  1  0.07018819  0.39596868  0.68125726  1
  O2-  O534  1  0.07878835  0.64840789  0.03527112  1
  O2-  O535  1  0.09372496  0.67700530  0.36530900  1
  O2-  O536  1  0.07618252  0.65737160  0.69571706  1
  O2-  O537  1  0.08431614  0.94884709  0.05454736  1
  O2-  O538  1  0.08460808  0.92187880  0.30859795  1
  O2-  O539  1  0.08554786  0.91870504  0.67655999  1
  O2-  O540  1  0.31608760  0.16206860  0.02203343  1
  O2-  O541  1  0.34362053  0.17886120  0.37009397  1
  O2-  O542  1  0.33216642  0.18015980  0.68295373  1
  O2-  O543  1  0.33609811  0.40365290  0.02454557  1
  O2-  O544  1  0.34002329  0.42002911  0.32063447  1
  O2-  O545  1  0.32681233  0.41112190  0.68800553  1
  O2-  O546  1  0.31739894  0.66276819  0.03911436  1
  O2-  O547  1  0.33827279  0.66304273  0.36301597  1
  O2-  O548  1  0.31310226  0.69363407  0.67819015  1
  O2-  O549  1  0.31140453  0.91061226  0.01661381  1
  O2-  O550  1  0.33416337  0.92316996  0.37372116  1
  O2-  O551  1  0.33511249  0.90741273  0.68423715  1
  O2-  O552  1  0.55133400  0.16132487  -0.00459382  1
  O2-  O553  1  0.57577151  0.15434792  0.35491647  1
  O2-  O554  1  0.60498434  0.18097319  0.66881124  1
  O2-  O555  1  0.57474148  0.41843378  0.03248203  1
  O2-  O556  1  0.53060285  0.37330233  0.33895106  1
  O2-  O557  1  0.58798979  0.41655328  0.70108890  1
  O2-  O558  1  0.60756470  0.66115977  0.01696685  1
  O2-  O559  1  0.61089646  0.68307515  0.36477183  1
  O2-  O560  1  0.58131305  0.66997943  0.69377786  1
  O2-  O561  1  0.62865428  0.94693538  0.02670750  1
  O2-  O562  1  0.59709653  0.92158931  0.35630120  1
  O2-  O563  1  0.59980469  0.94734280  0.69100304  1
  O2-  O564  1  0.83211912  0.15797243  0.01556864  1
  O2-  O565  1  0.83279457  0.16364592  0.35443316  1
  O2-  O566  1  0.82971226  0.12526442  0.69887736  1
  O2-  O567  1  0.83978594  0.42218495  0.03174406  1
  O2-  O568  1  0.80160982  0.35380686  0.36242080  1
  O2-  O569  1  0.83743239  0.41633012  0.68552045  1
  O2-  O570  1  0.85197148  0.67710337  0.02492732  1
  O2-  O571  1  0.72052763  0.53916916  0.39511013  1
  O2-  O572  1  0.82973456  0.66601768  0.68800037  1
  O2-  O573  1  0.84161481  0.91438096  0.00559051  1
  O2-  O574  1  0.82704177  0.92137919  0.36344582  1
  O2-  O575  1  0.84398077  0.92332246  0.67776632  1
