# generated using pymatgen
data_H2O
_symmetry_space_group_name_H-M   'P 1'
_cell_length_a   17.97246494
_cell_length_b   17.96722654
_cell_length_c   22.00016187
_cell_angle_alpha   90.00894107
_cell_angle_beta   90.03389062
_cell_angle_gamma   119.98908780
_symmetry_Int_Tables_number   1
_chemical_formula_structural   H2O
_chemical_formula_sum   'H384 O192'
_cell_volume   6153.08345571
_cell_formula_units_Z   192
loop_
 _symmetry_equiv_pos_site_id
 _symmetry_equiv_pos_as_xyz
  1  'x, y, z'
loop_
 _atom_type_symbol
 _atom_type_oxidation_number
  H+  1.0
  O2-  -2.0
loop_
 _atom_site_type_symbol
 _atom_site_label
 _atom_site_symmetry_multiplicity
 _atom_site_fract_x
 _atom_site_fract_y
 _atom_site_fract_z
 _atom_site_occupancy
  H+  H0  1  0.77130834  0.66230060  0.35432084  1
  H+  H1  1  0.13544926  0.12538021  0.83823792  1
  H+  H2  1  0.34661911  0.87788252  0.65761292  1
  H+  H3  1  0.35724185  0.72931482  0.82743523  1
  H+  H4  1  0.28034252  0.14275732  0.48251583  1
  H+  H5  1  0.12014791  0.48303533  0.17288992  1
  H+  H6  1  0.89091980  0.27780017  0.16804742  1
  H+  H7  1  0.20610231  0.58298161  0.66836305  1
  H+  H8  1  0.64561145  0.05900911  0.54311067  1
  H+  H9  1  0.77104811  0.32751088  0.44597929  1
  H+  H10  1  0.12277442  -0.01183587  0.33834477  1
  H+  H11  1  0.10158679  0.15515255  0.67575237  1
  H+  H12  1  0.86415356  0.63207705  0.15452119  1
  H+  H13  1  0.14681101  0.37594986  0.18356927  1
  H+  H14  1  0.23285190  0.61546131  0.18324100  1
  H+  H15  1  0.90158897  0.03619176  0.84197519  1
  H+  H16  1  0.22072041  0.07775468  0.55844473  1
  H+  H17  1  0.60210968  0.21717004  0.00275251  1
  H+  H18  1  0.13369071  0.65476339  0.49788268  1
  H+  H19  1  0.74123054  0.19019204  0.21871377  1
  H+  H20  1  0.88079742  -0.01928818  1.00649632  1
  H+  H21  1  0.86841830  1.02225192  0.17781253  1
  H+  H22  1  0.63685241  0.02015005  0.84090258  1
  H+  H23  1  0.83694194  0.17571045  0.74339138  1
  H+  H24  1  0.65719511  0.61669103  0.29395988  1
  H+  H25  1  0.59561228  0.22057606  0.68182874  1
  H+  H26  1  0.89132777  0.36668202  0.17763973  1
  H+  H27  1  0.23664589  0.87909877  0.50991294  1
  H+  H28  1  0.26453194  0.87821797  0.84906953  1
  H+  H29  1  0.88724867  0.90814891  0.69213941  1
  H+  H30  1  0.37823281  0.27514648  0.15962826  1
  H+  H31  1  0.62627537  0.86383580  0.16166459  1
  H+  H32  1  0.22959361  0.87021864  0.33603720  1
  H+  H33  1  0.25043623  0.15016508  0.67853477  1
  H+  H34  1  0.98128532  0.30326404  0.53651443  1
  H+  H35  1  0.90988914  0.41887646  0.43438049  1
  H+  H36  1  0.38390895  0.27107242  0.50513196  1
  H+  H37  1  0.65520690  0.34605919  0.22088257  1
  H+  H38  1  0.37019821  0.48219450  0.16245257  1
  H+  H39  1  0.18938356  0.59345793  0.36874304  1
  H+  H40  1  0.24327084  0.39438274  0.82458396  1
  H+  H41  1  0.86299482  0.71450797  0.85473195  1
  H+  H42  1  0.83730989  0.87365573  0.33351915  1
  H+  H43  1  0.89105683  0.03659762  0.66948551  1
  H+  H44  1  0.88788310  0.52243958  0.66240889  1
  H+  H45  1  0.12295511  0.77864113  0.84806618  1
  H+  H46  1  0.85913518  0.14815106  0.68021967  1
  H+  H47  1  0.26877638  0.38269995  0.35169012  1
  H+  H48  1  0.87832520  0.52096489  1.01502362  1
  H+  H49  1  0.13221023  0.49872831  0.48367994  1
  H+  H50  1  0.12240773  0.25124083  0.82918821  1
  H+  H51  1  1.00071408  0.40503309  0.99513482  1
  H+  H52  1  0.63093336  0.77746377  0.16276939  1
  H+  H53  1  0.04274987  0.64970467  0.50006424  1
  H+  H54  1  0.86509978  0.22784009  0.83566418  1
  H+  H55  1  0.30039506  0.88495022  -0.01027458  1
  H+  H56  1  0.63681499  0.52350788  0.13253323  1
  H+  H57  1  0.35908446  0.38006568  0.49829680  1
  H+  H58  1  0.27646657  0.38977425  0.17132929  1
  H+  H59  1  0.13337197  0.53578542  0.84294546  1
  H+  H60  1  0.37166942  0.38034018  0.16083580  1
  H+  H61  1  0.09136230  0.67259177  0.40024481  1
  H+  H62  1  0.49998521  0.79506411  0.42368917  1
  H+  H63  1  0.36546912  0.24220708  1.00220400  1
  H+  H64  1  0.09871708  0.93463350  0.43224703  1
  H+  H65  1  0.44331063  0.85335876  0.65708383  1
  H+  H66  1  0.40259991  0.60525005  0.52162201  1
  H+  H67  1  0.49383098  0.63435973  0.31524883  1
  H+  H68  1  0.09295215  0.73205875  0.02259333  1
  H+  H69  1  0.96984747  0.60844842  1.01321292  1
  H+  H70  1  0.63949136  0.61679564  0.98120317  1
  H+  H71  1  0.64327299  1.02420619  -0.00850591  1
  H+  H72  1  0.17551358  0.34023819  0.24160032  1
  H+  H73  1  0.60391931  0.12947862  1.00236109  1
  H+  H74  1  0.61103972  0.74625630  0.35600565  1
  H+  H75  1  0.71160113  0.82473431  0.59147949  1
  H+  H76  1  0.93223757  0.52787880  0.51002527  1
  H+  H77  1  0.02495909  0.14953556  0.34099426  1
  H+  H78  1  0.98072785  0.86499484  0.84062333  1
  H+  H79  1  0.38172815  0.53337478  0.83275748  1
  H+  H80  1  0.14377870  0.26943766  1.01045570  1
  H+  H81  1  0.36965998  0.14339251  0.48586278  1
  H+  H82  1  0.54192183  0.88520110  -0.00144069  1
  H+  H83  1  0.47864183  0.12088130  0.49947090  1
  H+  H84  1  0.89275296  0.76601445  0.99311626  1
  H+  H85  1  0.89294533  0.54931602  0.33880973  1
  H+  H86  1  0.86423940  0.63399108  0.00542903  1
  H+  H87  1  0.97914436  0.61094012  0.17879475  1
  H+  H88  1  0.14205336  0.12212792  0.32312762  1
  H+  H89  1  0.77526602  0.62711212  0.84645143  1
  H+  H90  1  0.10889347  0.24609158  0.16685466  1
  H+  H91  1  0.83571847  0.81450402  0.62918497  1
  H+  H92  1  0.32966557  0.66367391  0.10256925  1
  H+  H93  1  0.76664590  0.11859421  0.48510072  1
  H+  H94  1  0.70633983  0.87984609  0.32145369  1
  H+  H95  1  0.36331757  0.72837762  0.15796566  1
  H+  H96  1  0.62304950  0.25823400  0.50402142  1
  H+  H97  1  0.47888331  0.10616592  0.31666138  1
  H+  H98  1  0.27011816  0.64290803  0.00763199  1
  H+  H99  1  0.11097094  0.14896954  0.49899907  1
  H+  H100  1  0.02754528  0.88242221  0.14579409  1
  H+  H101  1  0.46424266  0.85795813  0.84663522  1
  H+  H102  1  0.79653979  0.89062697  0.67859759  1
  H+  H103  1  0.74868039  0.06730511  0.33708387  1
  H+  H104  1  0.88074662  0.10367109  0.50546145  1
  H+  H105  1  0.56448642  0.16256945  0.74237364  1
  H+  H106  1  0.63338770  0.35844775  0.97948642  1
  H+  H107  1  0.14057939  0.78018761  0.33452926  1
  H+  H108  1  0.61960724  0.63245987  0.67776458  1
  H+  H109  1  0.35123274  0.97965308  0.15153877  1
  H+  H110  1  0.39196569  0.61142103  0.16375373  1
  H+  H111  1  0.77559474  0.63174740  0.67746137  1
  H+  H112  1  0.36458323  0.15159960  0.00325944  1
  H+  H113  1  0.61080011  0.50903830  0.35647538  1
  H+  H114  1  0.11929671  0.39551083  0.02047956  1
  H+  H115  1  0.35629375  0.14107328  0.15537073  1
  H+  H116  1  0.90939510  0.76728372  0.17444668  1
  H+  H117  1  0.00306018  0.88010623  0.66931696  1
  H+  H118  1  0.71715021  0.13297055  0.27758561  1
  H+  H119  1  0.73188943  0.35968445  0.83957224  1
  H+  H120  1  0.39348223  0.29052078  0.33248650  1
  H+  H121  1  0.35739449  0.96332810  0.84356806  1
  H+  H122  1  0.37347849  0.90671615  0.50134373  1
  H+  H123  1  0.94241712  0.83117256  0.23183748  1
  H+  H124  1  0.88090885  0.89188962  0.01054516  1
  H+  H125  1  0.58530809  0.97866355  0.68931660  1
  H+  H126  1  0.76500283  0.89623465  0.15983623  1
  H+  H127  1  0.67252975  0.59251554  0.92118451  1
  H+  H128  1  0.38673719  0.72044641  0.53590418  1
  H+  H129  1  0.52929203  0.32768483  0.82467969  1
  H+  H130  1  0.11426446  0.63448568  0.17104087  1
  H+  H131  1  1.01822543  0.85715187  0.99416051  1
  H+  H132  1  0.40661030  0.08254007  0.22430514  1
  H+  H133  1  0.92643518  0.34728252  0.51584233  1
  H+  H134  1  0.62278275  0.42852688  0.34265396  1
  H+  H135  1  0.59844089  0.87270942  0.49786028  1
  H+  H136  1  0.74294067  0.87072457  -0.00404503  1
  H+  H137  1  0.24644294  0.61991806  0.51943649  1
  H+  H138  1  0.59096959  0.86804234  0.82105234  1
  H+  H139  1  0.15002280  0.02494198  0.50769047  1
  H+  H140  1  0.86228014  0.38028199  0.82238593  1
  H+  H141  1  0.86096325  0.97354902  0.48970007  1
  H+  H142  1  0.51774027  0.38166292  0.68452012  1
  H+  H143  1  0.46846310  0.87122624  0.15565998  1
  H+  H144  1  0.95814805  0.11199481  0.18223851  1
  H+  H145  1  0.14098227  0.27881833  0.33255954  1
  H+  H146  1  0.69863931  0.92805636  0.67808988  1
  H+  H147  1  0.64305683  0.77311168  0.51005998  1
  H+  H148  1  0.61479650  -0.00204305  0.48598518  1
  H+  H149  1  0.97820632  0.61160856  0.66519574  1
  H+  H150  1  0.27145430  0.15854507  0.83029246  1
  H+  H151  1  0.33733961  0.71388558  0.66656145  1
  H+  H152  1  0.36811492  0.48670933  0.66898408  1
  H+  H153  1  0.63028853  0.16831097  0.31239691  1
  H+  H154  1  0.41590640  0.86848772  0.99882356  1
  H+  H155  1  0.27580919  0.39950579  0.66407633  1
  H+  H156  1  0.26113307  0.89065558  0.66348531  1
  H+  H157  1  0.72698163  0.61033186  0.14433104  1
  H+  H158  1  0.11982394  0.40956657  0.81249506  1
  H+  H159  1  0.22218606  0.11772911  0.16460814  1
  H+  H160  1  0.11701189  0.65406089  0.82887120  1
  H+  H161  1  0.13385586  0.29488111  0.66053745  1
  H+  H162  1  0.38852862  0.37046882  0.65878110  1
  H+  H163  1  0.04285621  0.43445952  0.66507683  1
  H+  H164  1  0.62199019  0.11241630  0.68608741  1
  H+  H165  1  0.73268552  0.46541372  0.27639833  1
  H+  H166  1  0.37371861  0.80406763  0.49793558  1
  H+  H167  1  0.61934456  0.51226870  0.83104223  1
  H+  H168  1  0.62092908  0.63624625  0.49878048  1
  H+  H169  1  0.38869963  0.03319212  0.50297269  1
  H+  H170  1  0.47105196  0.09991669  0.84514943  1
  H+  H171  1  0.37529428  0.39894380  -0.00420555  1
  H+  H172  1  0.08657810  0.26525918  0.50987278  1
  H+  H173  1  0.46936192  0.36321436  0.14979925  1
  H+  H174  1  0.60496242  0.37520481  0.13934332  1
  H+  H175  1  0.11502831  0.72439958  0.17345228  1
  H+  H176  1  0.39260167  0.61838750  0.66212670  1
  H+  H177  1  0.87336822  0.75878856  0.65615151  1
  H+  H178  1  0.85364296  0.20354283  0.50342593  1
  H+  H179  1  0.37716519  0.86762049  0.15435337  1
  H+  H180  1  0.72131130  0.59372422  0.51535656  1
  H+  H181  1  0.40628357  0.62985250  0.29693590  1
  H+  H182  1  0.62461502  0.60386055  0.83020883  1
  H+  H183  1  0.60315697  0.71700965  0.75305288  1
  H+  H184  1  0.13185823  0.11340300  0.16755475  1
  H+  H185  1  0.62804787  0.35734805  0.66970505  1
  H+  H186  1  0.98866182  0.12098912  0.99425142  1
  H+  H187  1  0.98537830  0.87689878  0.50018126  1
  H+  H188  1  0.91361013  0.08045384  0.56677699  1
  H+  H189  1  0.86472616  0.37267414  0.31560574  1
  H+  H190  1  0.89238071  0.79206316  0.33146061  1
  H+  H191  1  0.16354284  0.59276192  0.90446479  1
  H+  H192  1  0.61037089  0.98262327  0.14778500  1
  H+  H193  1  0.46290436  0.37447317  0.84426481  1
  H+  H194  1  0.36583171  0.98762962  0.65514663  1
  H+  H195  1  0.86602474  0.63660729  0.67190305  1
  H+  H196  1  0.26769091  0.64201217  0.82735798  1
  H+  H197  1  0.72832440  0.11619248  0.99164761  1
  H+  H198  1  0.12587230  0.48988239  0.32815049  1
  H+  H199  1  0.08427469  0.90049150  0.05731217  1
  H+  H200  1  -0.02637687  0.13025574  0.66521242  1
  H+  H201  1  0.57555657  0.88733289  0.67824917  1
  H+  H202  1  0.76799518  0.38245750  0.67206413  1
  H+  H203  1  0.47115069  0.36066806  0.50856477  1
  H+  H204  1  0.36188682  1.02798059  -0.00344042  1
  H+  H205  1  -0.00102023  0.35197086  0.31795868  1
  H+  H206  1  0.14739931  0.37274262  0.32794124  1
  H+  H207  1  0.32308974  0.19004702  0.76820358  1
  H+  H208  1  0.86938345  0.22659876  0.00118558  1
  H+  H209  1  0.98430705  0.63153170  0.33296445  1
  H+  H210  1  0.73932353  0.39007249  0.30793501  1
  H+  H211  1  0.11703262  0.63902796  0.34016956  1
  H+  H212  1  0.61257217  0.13390531  0.82982306  1
  H+  H213  1  0.22281284  0.85577624  0.17771057  1
  H+  H214  1  0.28509083  0.14942198  0.32947065  1
  H+  H215  1  0.03341599  0.16089858  0.82922595  1
  H+  H216  1  0.01396606  0.13019910  0.49621762  1
  H+  H217  1  0.59878132  0.21730004  0.15588207  1
  H+  H218  1  0.10842261  -0.02128742  0.13555457  1
  H+  H219  1  0.85713820  0.65683692  0.34447874  1
  H+  H220  1  0.36576400  0.38541370  0.35227924  1
  H+  H221  1  0.76248523  0.37748281  1.01538958  1
  H+  H222  1  0.62705480  0.51563729  0.51766308  1
  H+  H223  1  0.37637083  0.61182305  0.99226915  1
  H+  H224  1  0.38350757  0.79151555  0.30335647  1
  H+  H225  1  0.65217189  0.78495342  -0.01231644  1
  H+  H226  1  0.52812060  0.64509758  0.99320030  1
  H+  H227  1  0.61378841  0.22343363  0.83371291  1
  H+  H228  1  0.90158685  0.20705711  0.32385938  1
  H+  H229  1  0.07856831  0.92033384  0.76771686  1
  H+  H230  1  0.10530843  1.02242756  0.66381011  1
  H+  H231  1  -0.01942707  0.87955472  0.32903825  1
  H+  H232  1  0.61368881  0.47863851  -0.03747267  1
  H+  H233  1  0.90087490  0.29155531  0.67764722  1
  H+  H234  1  0.86076935  0.38729079  0.67235539  1
  H+  H235  1  0.85750070  0.60686075  0.49463227  1
  H+  H236  1  0.27879408  0.39327261  1.00792490  1
  H+  H237  1  0.89410368  0.52066558  0.82862497  1
  H+  H238  1  0.13202197  0.77833695  0.66033188  1
  H+  H239  1  0.77798167  0.64024025  0.99823710  1
  H+  H240  1  0.60125862  0.37805064  0.49632407  1
  H+  H241  1  0.85183332  0.14057659  0.16354405  1
  H+  H242  1  0.46523239  0.11250945  0.16482051  1
  H+  H243  1  0.50830078  0.87599698  0.49907573  1
  H+  H244  1  0.37650320  0.62049310  0.83671640  1
  H+  H245  1  0.39851616  0.12306944  0.32032047  1
  H+  H246  1  0.36184877  0.89502686  0.33680843  1
  H+  H247  1  0.28617970  0.64941703  0.31907742  1
  H+  H248  1  0.61752769  0.64275602  0.13621665  1
  H+  H249  1  0.47758835  0.38466254  0.34053144  1
  H+  H250  1  0.11153934  0.89552036  0.82885782  1
  H+  H251  1  0.89040297  0.86112562  0.84567918  1
  H+  H252  1  0.63375242  0.51484870  0.67174117  1
  H+  H253  1  0.93575385  0.31717387  0.26066935  1
  H+  H254  1  0.77570229  0.28881754  0.45201991  1
  H+  H255  1  0.86456773  0.88676666  0.48729288  1
  H+  H256  1  0.46121137  0.10596449  0.99751594  1
  H+  H257  1  0.69557825  0.93664147  0.64488247  1
  H+  H258  1  0.47644604  0.37857074  0.97239052  1
  H+  H259  1  0.62331090  0.64557983  0.35253427  1
  H+  H260  1  0.85753380  0.39031985  0.01453482  1
  H+  H261  1  0.13758885  0.53811255  0.00429954  1
  H+  H262  1  0.22961199  0.12703198  0.99023051  1
  H+  H263  1  0.89258563  0.60573215  0.84889758  1
  H+  H264  1  0.10975066  0.63349681  0.67969452  1
  H+  H265  1  0.90465931  0.09619891  0.26983815  1
  H+  H266  1  0.13376920  0.62582609  1.00314345  1
  H+  H267  1  0.14527090  0.38952274  0.65655509  1
  H+  H268  1  0.77540397  0.13648609  0.83460681  1
  H+  H269  1  0.57586332  0.40676046  -0.09028895  1
  H+  H270  1  0.67003967  -0.01891710  0.31290253  1
  H+  H271  1  0.36559748  0.72535354  1.00788068  1
  H+  H272  1  0.17149236  0.57626830  0.56895383  1
  H+  H273  1  0.09481811  0.88664364  0.66875049  1
  H+  H274  1  0.12495719  0.14006339  0.00563419  1
  H+  H275  1  0.36268685  0.40113874  0.81985178  1
  H+  H276  1  0.72012839  0.36123660  0.16871116  1
  H+  H277  1  0.98088318  0.36914327  0.83223268  1
  H+  H278  1  0.12539532  0.90007614  0.49206668  1
  H+  H279  1  0.71105872  0.11106254  0.68907542  1
  H+  H280  1  0.78271343  -0.10221110  0.84077565  1
  H+  H281  1  0.60462616  0.12486339  0.47998440  1
  H+  H282  1  0.68308238  0.76234380  0.64920173  1
  H+  H283  1  0.11928146  0.89701566  0.34213092  1
  H+  H284  1  0.46689494  0.10065900  0.66161515  1
  H+  H285  1  0.53787457  0.64629250  0.67149433  1
  H+  H286  1  0.36917796  0.47314268  0.50008215  1
  H+  H287  1  0.52726297  0.63968834  0.14339266  1
  H+  H288  1  0.17709123  0.58888271  0.24455237  1
  H+  H289  1  0.67420783  0.32409612  0.93420371  1
  H+  H290  1  0.56943088  0.15696432  0.09810868  1
  H+  H291  1  1.00030430  0.44501177  0.46448500  1
  H+  H292  1  0.39645100  0.83146212  0.59004531  1
  H+  H293  1  0.58912566  0.92605917  0.08734293  1
  H+  H294  1  0.40343515  0.58377647  0.92926744  1
  H+  H295  1  0.36757386  0.49434052  0.99631162  1
  H+  H296  1  0.49201843  0.60691200  0.51513980  1
  H+  H297  1  0.93060238  0.09306479  0.93396036  1
  H+  H298  1  0.42066371  0.82872870  0.93394176  1
  H+  H299  1  0.64917753  0.32163784  0.60889413  1
  H+  H300  1  0.93357102  0.58057804  0.56961915  1
  H+  H301  1  0.19656832  0.40615907  0.88135959  1
  H+  H302  1  0.82779936  0.40830080  0.76387908  1
  H+  H303  1  0.91826284  0.58995706  0.23637036  1
  H+  H304  1  0.02257526  0.64128122  0.82264990  1
  H+  H305  1  0.57996414  0.42226937  0.43999441  1
  H+  H306  1  0.13331381  0.08331580  0.60610680  1
  H+  H307  1  0.34244202  0.17485267  0.38936514  1
  H+  H308  1  0.92557575  0.33256791  0.61299124  1
  H+  H309  1  0.37638754  0.69675364  0.35709290  1
  H+  H310  1  0.57201265  0.39123781  0.07616547  1
  H+  H311  1  0.40897095  0.07693449  0.90176716  1
  H+  H312  1  0.83609616  0.92318344  0.77834022  1
  H+  H313  1  0.60124773  0.08264548  0.34357792  1
  H+  H314  1  0.76322276  0.09676065  0.59302179  1
  H+  H315  1  0.58732416  0.67246868  0.44173152  1
  H+  H316  1  0.66659179  0.08028232  0.89994472  1
  H+  H317  1  0.91963265  0.83375979  0.55446382  1
  H+  H318  1  0.09648737  0.42912299  0.38599259  1
  H+  H319  1  0.16765919  0.09017792  0.26283005  1
  H+  H320  1  0.50100892  0.71208830  0.39870789  1
  H+  H321  1  0.55130297  0.54261335  0.23019988  1
  H+  H322  1  0.55899129  0.90879703  0.77117370  1
  H+  H323  1  0.17053054  0.82979786  0.24059705  1
  H+  H324  1  0.08439891  0.19485312  0.73505149  1
  H+  H325  1  0.92560651  0.82920496  0.93405983  1
  H+  H326  1  0.83480125  0.92817522  0.10646881  1
  H+  H327  1  0.83020498  0.17165945  0.10166225  1
  H+  H328  1  0.43594149  0.59022001  0.21980061  1
  H+  H329  1  0.16414345  0.32506913  0.95176229  1
  H+  H330  1  0.02994573  0.39300802  0.16762927  1
  H+  H331  1  0.36913589  0.28651982  0.83655834  1
  H+  H332  1  0.33687741  0.42987024  0.75582372  1
  H+  H333  1  0.77828673  0.29128915  0.30254295  1
  H+  H334  1  0.57381127  0.40565936  0.74628113  1
  H+  H335  1  0.80581254  0.89305235  0.39553820  1
  H+  H336  1  0.30805036  0.91889105  0.09348957  1
  H+  H337  1  0.16022776  0.83822762  0.60042752  1
  H+  H338  1  0.09049994  0.42729889  0.07917837  1
  H+  H339  1  0.08756761  0.67484241  0.73668672  1
  H+  H340  1  0.86104594  0.47485921  0.17081100  1
  H+  H341  1  0.58632656  0.67335553  0.05258084  1
  H+  H342  1  0.64972308  0.85843043  0.26260958  1
  H+  H343  1  0.63590699  0.89322621  0.00171927  1
  H+  H344  1  0.43006295  0.58709527  0.60688904  1
  H+  H345  1  0.66271210  0.57223992  0.61043165  1
  H+  H346  1  0.32014888  0.66348506  0.72933509  1
  H+  H347  1  0.32851404  0.41237836  0.41921742  1
  H+  H348  1  0.40028157  0.34575065  0.92526261  1
  H+  H349  1  0.13330155  0.03457817  0.83759820  1
  H+  H350  1  0.08944676  0.16548353  0.06786510  1
  H+  H351  1  0.09503825  0.39662322  0.48598025  1
  H+  H352  1  0.89442454  0.12151798  0.84261790  1
  H+  H353  1  0.70726701  0.34684056  0.51377081  1
  H+  H354  1  0.11903967  0.32953623  0.56706469  1
  H+  H355  1  0.34042708  0.92900473  0.43821529  1
  H+  H356  1  0.41757773  0.33436539  0.60295912  1
  H+  H357  1  0.21878729  0.89133601  0.00751213  1
  H+  H358  1  0.14919336  0.78798271  0.50713607  1
  H+  H359  1  0.82411532  0.64565159  0.44258308  1
  H+  H360  1  0.58322476  0.16136262  0.42175382  1
  H+  H361  1  0.84077178  0.66789104  0.09448138  1
  H+  H362  1  0.32925881  0.17363690  0.09521690  1
  H+  H363  1  0.87304213  0.14013337  0.00232003  1
  H+  H364  1  0.40826936  0.85799041  0.25140201  1
  H+  H365  1  0.41865819  0.07907276  0.59523311  1
  H+  H366  1  0.64249703  0.36070840  0.84737199  1
  H+  H367  1  0.08989005  0.44899172  0.75924499  1
  H+  H368  1  0.96961399  0.45873145  0.95790659  1
  H+  H369  1  0.37170196  0.85550318  0.85386605  1
  H+  H370  1  0.74630015  0.04923348  0.59163952  1
  H+  H371  1  0.51315455  0.64714785  0.83868001  1
  H+  H372  1  0.34479467  0.23179698  0.67364786  1
  H+  H373  1  0.72909165  0.86438971  0.50245858  1
  H+  H374  1  0.08208317  0.67200648  0.08025496  1
  H+  H375  1  0.02962215  0.21184951  0.12392856  1
  H+  H376  1  0.13643162  0.83366914  0.90932753  1
  H+  H377  1  0.08212770  0.17027576  0.40058425  1
  H+  H378  1  0.16565585  0.09509831  0.93285731  1
  H+  H379  1  0.54584268  0.49876015  0.23455792  1
  H+  H380  1  0.93288038  0.35207658  0.89568048  1
  H+  H381  1  0.39450747  0.69251497  0.46956996  1
  H+  H382  1  0.82860885  0.41260018  0.11254641  1
  H+  H383  1  0.36149651  0.98284024  0.34146162  1
  O2-  O384  1  0.06493380  0.19246277  0.14468341  1
  O2-  O385  1  0.07476115  0.16916512  0.48054141  1
  O2-  O386  1  0.09341024  0.19247176  0.81253214  1
  O2-  O387  1  0.09217040  0.42330547  0.15502759  1
  O2-  O388  1  0.09211392  0.44339451  0.46295897  1
  O2-  O389  1  0.08374237  0.43600569  0.80341614  1
  O2-  O390  1  0.08231250  0.66292802  0.15635665  1
  O2-  O391  1  0.10239847  0.68328680  0.48251630  1
  O2-  O392  1  0.08612173  0.68158093  0.81087554  1
  O2-  O393  1  0.07116961  0.92366135  0.11494807  1
  O2-  O394  1  0.09938650  0.93515067  0.47827351  1
  O2-  O395  1  0.08186070  0.92631869  0.81255402  1
  O2-  O396  1  0.32630364  0.17258561  0.14087043  1
  O2-  O397  1  0.34058256  0.17391861  0.46782756  1
  O2-  O398  1  0.32923814  0.19850158  0.81351506  1
  O2-  O399  1  0.33571573  0.41724543  0.15265690  1
  O2-  O400  1  0.33246641  0.41410468  0.48315735  1
  O2-  O401  1  0.33544517  0.43408686  0.80157635  1
  O2-  O402  1  0.33441634  0.66561001  0.14769086  1
  O2-  O403  1  0.35948609  0.67044503  0.50856550  1
  O2-  O404  1  0.32663791  0.67002095  0.80910174  1
  O2-  O405  1  0.32190085  0.91858116  0.13716258  1
  O2-  O406  1  0.33972547  0.93413779  0.48365654  1
  O2-  O407  1  0.32426113  0.89928252  0.83544909  1
  O2-  O408  1  0.56569574  0.15649901  0.14317946  1
  O2-  O409  1  0.58113581  0.16276382  0.46681087  1
  O2-  O410  1  0.58032367  0.16331802  0.81775779  1
  O2-  O411  1  0.57204152  0.40083249  0.11971219  1
  O2-  O412  1  0.57357378  0.41200871  0.48501952  1
  O2-  O413  1  0.56431045  0.38949929  0.83163656  1
  O2-  O414  1  0.58679512  0.67571904  0.12730750  1
  O2-  O415  1  0.58925030  0.66691341  0.48790818  1
  O2-  O416  1  0.57754199  0.67474485  0.83606681  1
  O2-  O417  1  0.57838623  0.92385404  0.13281277  1
  O2-  O418  1  0.56407846  0.89379874  0.47602534  1
  O2-  O419  1  0.56942278  0.90812614  0.81619604  1
  O2-  O420  1  0.83007850  0.17761303  0.14628659  1
  O2-  O421  1  0.82953902  0.14912468  0.48017647  1
  O2-  O422  1  0.83702242  0.16704514  0.82118588  1
  O2-  O423  1  0.82912693  0.41278937  0.15803276  1
  O2-  O424  1  0.94141053  0.43688340  0.47266803  1
  O2-  O425  1  0.82890420  0.40805291  0.80943349  1
  O2-  O426  1  0.83604904  0.66431754  0.13989034  1
  O2-  O427  1  0.80682489  0.60834974  0.47900315  1
  O2-  O428  1  0.83388107  0.65216360  0.86263423  1
  O2-  O429  1  0.82743205  0.93278999  0.15057579  1
  O2-  O430  1  0.82910574  0.91335466  0.47455733  1
  O2-  O431  1  0.84072340  0.92459006  0.82413601  1
  O2-  O432  1  0.16200190  0.08379287  0.18098091  1
  O2-  O433  1  0.18395565  0.08423884  0.52876735  1
  O2-  O434  1  0.16320243  0.09391636  0.85492323  1
  O2-  O435  1  0.17569033  0.34245371  0.19563704  1
  O2-  O436  1  0.08435585  0.31451715  0.52895251  1
  O2-  O437  1  0.18344434  0.37155228  0.84463573  1
  O2-  O438  1  0.17288260  0.58441371  0.19956927  1
  O2-  O439  1  0.18311529  0.59108955  0.52537710  1
  O2-  O440  1  0.16707244  0.59530206  0.85922549  1
  O2-  O441  1  0.16554215  0.81912279  0.19610270  1
  O2-  O442  1  0.17495317  0.84786219  0.52361623  1
  O2-  O443  1  0.15030667  0.83833549  0.86526361  1
  O2-  O444  1  0.40327919  0.08440110  0.17907444  1
  O2-  O445  1  0.42021629  0.09523181  0.51786364  1
  O2-  O446  1  0.41050833  0.06494581  0.85805850  1
  O2-  O447  1  0.41161894  0.33873828  0.16909438  1
  O2-  O448  1  0.41068890  0.32918385  0.52439745  1
  O2-  O449  1  0.39996242  0.34971670  0.85433236  1
  O2-  O450  1  0.42375591  0.58051571  0.17366310  1
  O2-  O451  1  0.43194081  0.57270730  0.53290912  1
  O2-  O452  1  0.40671814  0.59041142  0.85389518  1
  O2-  O453  1  0.40806403  0.83794760  0.16985960  1
  O2-  O454  1  0.41363086  0.84992330  0.52471471  1
  O2-  O455  1  0.40616736  0.82432424  0.86519262  1
  O2-  O456  1  0.72587769  0.18885630  0.26152079  1
  O2-  O457  1  0.64531135  0.06108970  0.49880895  1
  O2-  O458  1  0.66890723  0.08106400  0.85429613  1
  O2-  O459  1  0.65679394  0.33332970  0.17735923  1
  O2-  O460  1  0.64677754  0.31537938  0.52524118  1
  O2-  O461  1  0.67309667  0.32866167  0.85883911  1
  O2-  O462  1  0.66316048  0.58367417  0.14566357  1
  O2-  O463  1  0.66250368  0.57576796  0.53255088  1
  O2-  O464  1  0.65566712  0.57332830  0.84129439  1
  O2-  O465  1  0.65716015  0.83663220  0.18006195  1
  O2-  O466  1  0.67191121  0.83439016  0.52406497  1
  O2-  O467  1  0.60247414  0.74546743  0.79258549  1
  O2-  O468  1  0.89787357  0.08422083  0.19553513  1
  O2-  O469  1  0.91611934  0.07792058  0.52176131  1
  O2-  O470  1  0.93161639  0.09719313  0.85575216  1
  O2-  O471  1  0.92542974  0.33756850  0.18561903  1
  O2-  O472  1  0.92501582  0.30125436  0.54174941  1
  O2-  O473  1  0.92338110  0.33606299  0.85201537  1
  O2-  O474  1  0.91694647  0.58049327  0.19186095  1
  O2-  O475  1  0.94168315  0.58411343  0.52415829  1
  O2-  O476  1  0.93070872  0.58055838  0.84236957  1
  O2-  O477  1  0.95919732  0.81903200  0.19172924  1
  O2-  O478  1  0.92351903  0.84382952  0.51020359  1
  O2-  O479  1  0.92195088  0.83197950  0.85910889  1
  O2-  O480  1  0.17417887  0.09406185  0.30790651  1
  O2-  O481  1  0.13174998  0.08391873  0.65082715  1
  O2-  O482  1  0.16801989  0.09795154  0.97825117  1
  O2-  O483  1  0.17743203  0.33917260  0.31709727  1
  O2-  O484  1  0.16648131  0.35248560  0.64001296  1
  O2-  O485  1  0.17330003  0.33261531  0.99560986  1
  O2-  O486  1  0.17234043  0.59036353  0.32638076  1
  O2-  O487  1  0.14459275  0.55305404  0.65246780  1
  O2-  O488  1  0.16371287  0.59604615  0.98551085  1
  O2-  O489  1  0.16891847  0.84114592  0.32055193  1
  O2-  O490  1  0.15793340  0.83901752  0.64609257  1
  O2-  O491  1  0.12347110  0.83603221  0.99303491  1
  O2-  O492  1  0.41847467  0.08407130  0.30406576  1
  O2-  O493  1  0.41063389  0.06616275  0.63976341  1
  O2-  O494  1  0.40199119  0.08763180  0.98262879  1
  O2-  O495  1  0.41651689  0.35341188  0.32693656  1
  O2-  O496  1  0.41796106  0.33754315  0.64836700  1
  O2-  O497  1  0.41152828  0.35065474  0.97140083  1
  O2-  O498  1  0.44161548  0.60251601  0.28893522  1
  O2-  O499  1  0.42805957  0.59169865  0.65255056  1
  O2-  O500  1  0.40535071  0.58054331  0.97504944  1
  O2-  O501  1  0.40608694  0.85387439  0.29628475  1
  O2-  O502  1  0.38579950  0.82101280  0.63765513  1
  O2-  O503  1  0.43143651  0.82890550  0.98034508  1
  O2-  O504  1  0.68904773  0.04293256  0.32251339  1
  O2-  O505  1  0.64890941  0.07585400  0.68040283  1
  O2-  O506  1  0.66792239  0.08525222  0.97704541  1
  O2-  O507  1  0.69743898  0.40923058  0.29508277  1
  O2-  O508  1  0.65650818  0.32539382  0.65363569  1
  O2-  O509  1  0.66485460  0.32589330  0.97937147  1
  O2-  O510  1  0.65837507  0.61494793  0.33824887  1
  O2-  O511  1  0.66418188  0.57492728  0.65609288  1
  O2-  O512  1  0.67048623  0.58698278  0.96630079  1
  O2-  O513  1  0.65202833  0.87564332  0.30554322  1
  O2-  O514  1  0.73356943  0.81240220  0.63021593  1
  O2-  O515  1  0.68430332  0.84748470  0.97860363  1
  O2-  O516  1  0.92080524  0.10782379  0.31436261  1
  O2-  O517  1  0.91336103  0.09385309  0.65020319  1
  O2-  O518  1  0.92786351  0.09161005  0.97947702  1
  O2-  O519  1  0.93903753  0.30908551  0.30524141  1
  O2-  O520  1  0.93027847  0.34912866  0.65718141  1
  O2-  O521  1  0.95129605  0.39969243  0.97004849  1
  O2-  O522  1  0.92239367  0.60504377  0.31882876  1
  O2-  O523  1  0.92044718  0.58189500  0.64549571  1
  O2-  O524  1  0.91048529  0.57870289  0.99667917  1
  O2-  O525  1  0.92267983  0.84850332  0.31017741  1
  O2-  O526  1  0.89198945  0.81851183  0.63806766  1
  O2-  O527  1  0.93017083  0.82857558  0.97983361  1
  O2-  O528  1  0.09319046  0.17167952  0.02324797  1
  O2-  O529  1  0.08557724  0.17420419  0.35530396  1
  O2-  O530  1  0.07934393  0.19340589  0.68963432  1
  O2-  O531  1  0.09150542  0.42856650  0.03318993  1
  O2-  O532  1  0.09849927  0.42547208  0.34088154  1
  O2-  O533  1  0.10505605  0.46508825  0.67830273  1
  O2-  O534  1  0.07927186  0.67301653  0.03449674  1
  O2-  O535  1  0.08587239  0.67047429  0.35520145  1
  O2-  O536  1  0.08572047  0.67045885  0.69053375  1
  O2-  O537  1  0.08412387  0.88879301  0.00864272  1
  O2-  O538  1  0.09155774  0.93009706  0.35739079  1
  O2-  O539  1  0.06283776  0.91501753  0.68417300  1
  O2-  O540  1  0.33498317  0.18297331  0.01872604  1
  O2-  O541  1  0.34589520  0.17913658  0.34405176  1
  O2-  O542  1  0.30983936  0.17459696  0.69303110  1
  O2-  O543  1  0.34295198  0.43050287  0.01355403  1
  O2-  O544  1  0.32859078  0.41184241  0.37031566  1
  O2-  O545  1  0.33482823  0.42450268  0.68133315  1
  O2-  O546  1  0.33053668  0.66448238  0.02180365  1
  O2-  O547  1  0.35038125  0.68411418  0.31597180  1
  O2-  O548  1  0.31379930  0.65499109  0.68423420  1
  O2-  O549  1  0.28516959  0.91992550  0.01484834  1
  O2-  O550  1  0.33430691  0.92442681  0.35988199  1
  O2-  O551  1  0.32483380  0.91801454  0.67235667  1
  O2-  O552  1  0.57012777  0.15624196  0.01686947  1
  O2-  O553  1  0.58748047  0.12935586  0.34226368  1
  O2-  O554  1  0.56235677  0.16005060  0.69666412  1
  O2-  O555  1  0.57877311  0.41456495  -0.04443042  1
  O2-  O556  1  0.58574178  0.44571116  0.36474093  1
  O2-  O557  1  0.57774176  0.40880406  0.70095013  1
  O2-  O558  1  0.58841522  0.67220601  0.00661081  1
  O2-  O559  1  0.57374307  0.68759525  0.37081417  1
  O2-  O560  1  0.59890672  0.67460671  0.68510534  1
  O2-  O561  1  0.60102732  0.92205655  0.01467569  1
  O2-  O562  1  0.46127640  0.73371991  0.41320078  1
  O2-  O563  1  0.54495532  0.91381005  0.69647386  1
  O2-  O564  1  0.83906398  0.16795834  0.01641246  1
  O2-  O565  1  0.87107572  0.14505734  0.33841434  1
  O2-  O566  1  0.83390519  0.18143088  0.69841243  1
  O2-  O567  1  0.82028407  0.40784253  0.03560196  1
  O2-  O568  1  0.80286916  0.34981854  0.32017604  1
  O2-  O569  1  0.82846895  0.41591116  0.68688817  1
  O2-  O570  1  0.83642443  0.66968684  0.01660440  1
  O2-  O571  1  0.83316871  0.68863215  0.36560834  1
  O2-  O572  1  0.83772726  0.66859273  0.68653467  1
  O2-  O573  1  0.84982594  0.92177275  0.02368005  1
  O2-  O574  1  0.78825696  0.87446354  0.35300794  1
  O2-  O575  1  0.84913954  0.93076967  0.70316290  1
