# generated using pymatgen
data_H2O
_symmetry_space_group_name_H-M   'P 1'
_cell_length_a   17.97955372
_cell_length_b   17.98425243
_cell_length_c   21.99569143
_cell_angle_alpha   89.95574087
_cell_angle_beta   90.02483590
_cell_angle_gamma   119.97890271
_symmetry_Int_Tables_number   1
_chemical_formula_structural   H2O
_chemical_formula_sum   'H384 O192'
_cell_volume   6160.72331932
_cell_formula_units_Z   192
loop_
 _symmetry_equiv_pos_site_id
 _symmetry_equiv_pos_as_xyz
  1  'x, y, z'
loop_
 _atom_type_symbol
 _atom_type_oxidation_number
  H+  1.0
  O2-  -2.0
loop_
 _atom_site_type_symbol
 _atom_site_label
 _atom_site_symmetry_multiplicity
 _atom_site_fract_x
 _atom_site_fract_y
 _atom_site_fract_z
 _atom_site_occupancy
  H+  H0  1  0.38849644  0.61770612  0.16447169  1
  H+  H1  1  0.87159182  0.88793832  0.48890922  1
  H+  H2  1  0.78225321  0.12989361  0.48875363  1
  H+  H3  1  0.48241793  0.63499455  0.64671296  1
  H+  H4  1  0.77679038  0.64850307  0.82759312  1
  H+  H5  1  0.12335535  0.52216985  0.84634053  1
  H+  H6  1  0.49574559  0.09750881  0.52083221  1
  H+  H7  1  0.42096590  0.09037761  0.26083952  1
  H+  H8  1  0.40464882  0.86043236  0.51024402  1
  H+  H9  1  0.76963416  0.63762053  0.32637784  1
  H+  H10  1  0.90600642  0.11793185  0.84280586  1
  H+  H11  1  0.61949916  0.23133592  0.16942227  1
  H+  H12  1  0.15422712  0.35937324  0.99227455  1
  H+  H13  1  0.13214565  0.89674953  0.15966270  1
  H+  H14  1  0.36769545  0.23145770  -0.00036147  1
  H+  H15  1  0.59880409  0.21229863  0.01918671  1
  H+  H16  1  0.87848774  0.39292654  0.16926859  1
  H+  H17  1  0.86945473  0.22711032  0.82736337  1
  H+  H18  1  0.10759889  0.38497046  0.67183911  1
  H+  H19  1  0.09861581  0.72533709  0.82893820  1
  H+  H20  1  0.40868375  0.89503039  0.32991953  1
  H+  H21  1  0.65908436  0.58722725  0.26128366  1
  H+  H22  1  0.21595347  0.11592633  0.65578498  1
  H+  H23  1  0.77939787  0.88958821  0.33568842  1
  H+  H24  1  0.20351102  0.10171567  0.49231413  1
  H+  H25  1  0.10876669  0.12602953  0.66889627  1
  H+  H26  1  0.28323328  0.15543229  0.30583149  1
  H+  H27  1  0.63506657  0.62621585  1.03410894  1
  H+  H28  1  0.62800552  0.74766798  0.65807841  1
  H+  H29  1  0.78211451  0.38439970  0.35282438  1
  H+  H30  1  0.04774181  0.36292960  0.51413660  1
  H+  H31  1  0.97359279  0.86979433  0.83851777  1
  H+  H32  1  0.08274400  0.41762184  0.76958759  1
  H+  H33  1  0.63367521  0.52862397  0.32210551  1
  H+  H34  1  0.65111482  0.87373231  0.49366725  1
  H+  H35  1  0.13276814  0.83032859  0.32820626  1
  H+  H36  1  1.01666473  0.86142650  0.33897533  1
  H+  H37  1  0.32501757  0.91736416  0.09858955  1
  H+  H38  1  0.24730355  0.60256333  0.33395772  1
  H+  H39  1  0.85976765  0.26391075  0.50775770  1
  H+  H40  1  0.58837072  0.92524983  0.22021381  1
  H+  H41  1  0.63244235  0.41586688  0.49696190  1
  H+  H42  1  0.32360481  0.40314728  0.74945338  1
  H+  H43  1  0.11886242  0.60918133  0.84675968  1
  H+  H44  1  0.35678697  0.88309310  1.00848589  1
  H+  H45  1  0.71443722  0.34323416  1.02029403  1
  H+  H46  1  0.13332609  0.60654435  0.66632022  1
  H+  H47  1  0.77606776  0.32789099  0.51007357  1
  H+  H48  1  0.47281433  0.61778975  0.31828111  1
  H+  H49  1  0.97319273  0.36871600  0.65624982  1
  H+  H50  1  0.35204866  0.61423580  0.32714883  1
  H+  H51  1  0.04705408  0.12010727  0.83852040  1
  H+  H52  1  0.02288097  0.38319372  0.82796852  1
  H+  H53  1  0.87615879  0.97059591  0.00719963  1
  H+  H54  1  0.70341857  0.31106629  0.76394810  1
  H+  H55  1  0.13375970  0.36072627  0.32709805  1
  H+  H56  1  0.59023777  0.62875504  0.48642036  1
  H+  H57  1  0.14245190  0.51876578  0.17358184  1
  H+  H58  1  0.86286493  0.88577285  0.82581116  1
  H+  H59  1  0.31601917  0.17079108  0.73154404  1
  H+  H60  1  0.11216308  0.75627632  0.14697790  1
  H+  H61  1  0.63567949  0.88245863  0.82505354  1
  H+  H62  1  0.34637099  0.11909452  0.49600016  1
  H+  H63  1  0.26078977  0.37330341  0.67844136  1
  H+  H64  1  0.73477924  0.85835091  0.84299348  1
  H+  H65  1  0.15641614  0.08552242  0.93439230  1
  H+  H66  1  0.68122792  0.12709889  0.62271376  1
  H+  H67  1  0.27269386  0.62703386  0.16175389  1
  H+  H68  1  0.88856348  0.34556333  -0.00283387  1
  H+  H69  1  0.67433757  0.82014135  0.94299897  1
  H+  H70  1  0.88241976  0.10608305  0.32283043  1
  H+  H71  1  0.12798010  0.59310157  0.33721372  1
  H+  H72  1  0.64655932  0.86008966  -0.00423502  1
  H+  H73  1  0.73620340  0.11268892  0.83612766  1
  H+  H74  1  0.89250539  0.86102111  0.32542374  1
  H+  H75  1  0.28435653  0.65572252  0.66978151  1
  H+  H76  1  0.87340982  0.89268670  0.16088331  1
  H+  H77  1  0.13370597  0.26363787  0.66114561  1
  H+  H78  1  0.48270629  0.35987620  0.83441723  1
  H+  H79  1  0.49568486  0.37185762  0.50948753  1
  H+  H80  1  0.62608730  1.00093779  0.68727621  1
  H+  H81  1  0.11164167  0.38650373  0.16556387  1
  H+  H82  1  0.66046212  0.54622012  0.88956078  1
  H+  H83  1  0.17118961  0.80978969  0.60749310  1
  H+  H84  1  0.88324762  0.35254667  0.32090926  1
  H+  H85  1  0.63142613  0.10592530  0.17655907  1
  H+  H86  1  0.88427770  0.52044704  0.85309793  1
  H+  H87  1  0.67135236  0.33403008  0.22072039  1
  H+  H88  1  0.07569711  0.92411871  0.77358149  1
  H+  H89  1  0.33346934  0.13055959  0.67097976  1
  H+  H90  1  0.61487995  0.38894449  0.35902374  1
  H+  H91  1  0.88114887  0.01269032  0.16960030  1
  H+  H92  1  0.78494914  0.88160364  1.00815499  1
  H+  H93  1  0.87732310  0.23322835  0.67156847  1
  H+  H94  1  0.36163827  0.38260149  0.82406745  1
  H+  H95  1  0.84411596  0.92201626  0.09946964  1
  H+  H96  1  0.12435938  0.52814787  -0.00349539  1
  H+  H97  1  0.40291414  0.79413768  0.66298451  1
  H+  H98  1  0.21112453  0.86466686  0.83248548  1
  H+  H99  1  0.87866987  0.60735097  0.83644115  1
  H+  H100  1  0.13476931  0.04744787  0.14437085  1
  H+  H101  1  0.12861998  0.87471355  0.84114567  1
  H+  H102  1  0.16989520  0.33502377  0.22848863  1
  H+  H103  1  0.12177433  0.24121695  0.02740971  1
  H+  H104  1  0.63931909  0.21751095  0.49258717  1
  H+  H105  1  0.64683209  0.01234622  0.48532454  1
  H+  H106  1  0.13615257  0.27406582  0.32373609  1
  H+  H107  1  0.81570330  0.40479252  0.89209142  1
  H+  H108  1  0.37240007  0.86152737  0.17023604  1
  H+  H109  1  0.03089654  0.66419653  0.15500347  1
  H+  H110  1  0.46084676  0.86120327  0.16854515  1
  H+  H111  1  -0.02265823  0.10881485  0.66027063  1
  H+  H112  1  0.91593068  0.58964319  0.60758125  1
  H+  H113  1  0.62011991  0.41060444  0.17039153  1
  H+  H114  1  0.39154397  0.28152078  0.17175288  1
  H+  H115  1  0.97785904  0.11518535  1.00801827  1
  H+  H116  1  0.53602532  0.90992434  0.68480739  1
  H+  H117  1  0.49768384  0.07950453  0.66979132  1
  H+  H118  1  0.28439437  0.86965346  0.50404672  1
  H+  H119  1  0.88205473  0.62022414  0.66573128  1
  H+  H120  1  0.10642821  0.97461452  -0.00454544  1
  H+  H121  1  -0.02666537  0.37861537  0.49695944  1
  H+  H122  1  0.45862132  0.11518724  0.84335443  1
  H+  H123  1  0.88508713  0.10042816  -0.00216564  1
  H+  H124  1  0.60826812  0.73192230  0.33293369  1
  H+  H125  1  0.61059711  0.96971003  -0.00246809  1
  H+  H126  1  0.10964616  0.94106967  0.35172897  1
  H+  H127  1  0.36805260  0.48164995  0.00080597  1
  H+  H128  1  0.89115240  0.78226561  0.16874005  1
  H+  H129  1  0.01442585  0.62572815  0.67961334  1
  H+  H130  1  0.88648818  0.01809221  0.32231209  1
  H+  H131  1  0.10937793  0.69976005  0.35278220  1
  H+  H132  1  0.13631792  0.75138144  0.66724943  1
  H+  H133  1  0.85616594  0.48139712  0.66622533  1
  H+  H134  1  0.85269402  0.71719841  0.47987712  1
  H+  H135  1  0.97776129  0.11024746  0.50319234  1
  H+  H136  1  0.62397989  0.73696767  1.04135958  1
  H+  H137  1  0.52529650  0.39225429  0.65685807  1
  H+  H138  1  0.63470222  0.62396393  0.65637238  1
  H+  H139  1  0.15198255  0.34507745  0.48484349  1
  H+  H140  1  0.26502198  0.89676509  0.15740155  1
  H+  H141  1  0.63496195  0.53389749  0.65037781  1
  H+  H142  1  0.02054844  0.90522820  0.14963050  1
  H+  H143  1  0.23161082  0.37238651  0.16965533  1
  H+  H144  1  0.47699376  0.11837466  0.32908624  1
  H+  H145  1  0.63536343  0.24832170  0.68408564  1
  H+  H146  1  0.37531371  0.38218880  0.48933299  1
  H+  H147  1  0.50107874  0.04365630  0.79531744  1
  H+  H148  1  0.59042061  0.62872207  0.79077267  1
  H+  H149  1  0.99989310  0.88382697  0.69255636  1
  H+  H150  1  0.11723896  0.25157097  0.13462976  1
  H+  H151  1  0.31251814  0.24233978  0.46001141  1
  H+  H152  1  0.63902189  0.36687322  0.63050821  1
  H+  H153  1  0.01981288  0.62984617  0.50252080  1
  H+  H154  1  0.88733351  0.61016554  0.32658830  1
  H+  H155  1  0.76608229  0.11672675  0.34584874  1
  H+  H156  1  0.86266096  0.73990162  0.67396977  1
  H+  H157  1  0.51436068  0.01497303  0.11958418  1
  H+  H158  1  0.10996883  0.50521931  0.51278507  1
  H+  H159  1  0.98690855  0.85714997  1.00822246  1
  H+  H160  1  0.82932473  0.49010806  0.51475242  1
  H+  H161  1  0.27247522  0.38808931  0.33819024  1
  H+  H162  1  0.37370009  0.51226989  0.50365059  1
  H+  H163  1  0.34120562  0.14036341  0.82881596  1
  H+  H164  1  0.33160616  0.08037443  0.47593387  1
  H+  H165  1  0.39272995  0.37401444  0.32634230  1
  H+  H166  1  0.88745549  0.77954514  0.83244324  1
  H+  H167  1  0.48960924  0.11654339  0.67077613  1
  H+  H168  1  0.36122744  0.47765764  0.33600407  1
  H+  H169  1  0.86406686  0.97536259  0.83106769  1
  H+  H170  1  0.35619043  0.38064870  0.67619290  1
  H+  H171  1  0.10432937  0.98614392  0.83273351  1
  H+  H172  1  0.76519047  0.12211352  1.00373890  1
  H+  H173  1  0.73916966  0.86732924  0.16536228  1
  H+  H174  1  0.88284198  0.25606669  0.98944049  1
  H+  H175  1  0.32835400  0.68889020  0.47752428  1
  H+  H176  1  0.46686803  0.09565081  0.16991123  1
  H+  H177  1  0.36518646  0.39367429  0.15834896  1
  H+  H178  1  0.21686768  0.10798592  -0.00808218  1
  H+  H179  1  0.14274626  0.75988436  0.50895680  1
  H+  H180  1  0.14961125  0.05333694  0.28057444  1
  H+  H181  1  0.42350279  0.27436884  0.51646725  1
  H+  H182  1  0.63366834  0.46471416  0.79781760  1
  H+  H183  1  0.46452352  0.85162180  -0.00743805  1
  H+  H184  1  0.23701912  0.34630453  0.49942420  1
  H+  H185  1  0.72909312  0.37035901  0.63678433  1
  H+  H186  1  0.92407200  0.84307153  0.22784342  1
  H+  H187  1  0.97434284  0.84206519  0.50891025  1
  H+  H188  1  0.55917148  0.10676449  0.08826853  1
  H+  H189  1  0.38312635  0.11347141  0.99604985  1
  H+  H190  1  0.73783881  0.86855039  0.65510474  1
  H+  H191  1  0.43533077  0.79097127  0.52686226  1
  H+  H192  1  0.33444372  -0.00104394  0.65173622  1
  H+  H193  1  0.37393333  0.65737239  0.66180998  1
  H+  H194  1  0.07783732  0.92814552  0.08798948  1
  H+  H195  1  0.09291948  0.96922231  0.68332987  1
  H+  H196  1  0.97365179  0.60367787  0.33333606  1
  H+  H197  1  0.64153564  0.62824754  0.16385986  1
  H+  H198  1  0.62947521  0.10348609  0.98696086  1
  H+  H199  1  0.37454132  1.01727125  0.17491638  1
  H+  H200  1  0.12448336  0.50147011  0.33404262  1
  H+  H201  1  0.36288275  0.14161818  0.15801369  1
  H+  H202  1  0.65345676  0.39063494  0.78245323  1
  H+  H203  1  0.53780601  0.89653200  0.47044450  1
  H+  H204  1  0.37237498  0.24245145  0.32149527  1
  H+  H205  1  0.65973780  0.33013276  0.96034653  1
  H+  H206  1  0.80139178  0.41372229  0.17449987  1
  H+  H207  1  0.39958818  0.62137600  0.83032332  1
  H+  H208  1  0.24588258  0.36487346  0.99182656  1
  H+  H209  1  0.02249029  0.13518368  0.32847408  1
  H+  H210  1  0.86693895  0.88957764  0.67766478  1
  H+  H211  1  0.62158190  0.40234016  0.01907708  1
  H+  H212  1  0.78034175  0.28834118  0.06291530  1
  H+  H213  1  0.37347355  0.76479735  0.99664786  1
  H+  H214  1  0.64959628  0.86705753  0.16858208  1
  H+  H215  1  0.97713092  0.65314589  0.98946593  1
  H+  H216  1  0.14637750  0.84958508  0.51404178  1
  H+  H217  1  0.59325030  0.11212634  0.34687202  1
  H+  H218  1  0.60494728  0.22029821  0.20217528  1
  H+  H219  1  0.70065953  0.33207532  0.54644765  1
  H+  H220  1  0.26311851  0.86861299  0.67799187  1
  H+  H221  1  0.14451049  0.14050099  0.13299069  1
  H+  H222  1  0.11402020  0.20952469  0.48424663  1
  H+  H223  1  0.77700350  0.39070171  0.80985989  1
  H+  H224  1  0.10351632  0.64448531  0.00310064  1
  H+  H225  1  0.64076214  -0.02075851  0.82908861  1
  H+  H226  1  0.63589150  0.53738171  0.16833564  1
  H+  H227  1  0.38008206  0.72897912  0.82389773  1
  H+  H228  1  0.00999281  0.36974986  0.34065464  1
  H+  H229  1  0.34592554  0.90957969  0.41008806  1
  H+  H230  1  0.90786388  0.54530268  0.17164448  1
  H+  H231  1  0.34550694  0.60798473  0.48502618  1
  H+  H232  1  0.64504488  0.76720934  0.84416285  1
  H+  H233  1  0.87966574  0.26041995  0.32412013  1
  H+  H234  1  0.47911523  0.62090075  0.16059450  1
  H+  H235  1  0.37959070  0.02106629  0.99596825  1
  H+  H236  1  0.11246662  0.88572647  -0.00160592  1
  H+  H237  1  0.65014959  0.88402701  0.31380310  1
  H+  H238  1  0.48319086  0.37436041  0.32844624  1
  H+  H239  1  0.91565902  0.32154017  0.23262313  1
  H+  H240  1  0.63861911  0.62002655  0.87447019  1
  H+  H241  1  0.10669610  0.95471564  0.49465881  1
  H+  H242  1  0.48455946  0.37247653  -0.00623171  1
  H+  H243  1  0.88951486  0.85342957  0.01590828  1
  H+  H244  1  0.38892146  0.13442808  0.31707700  1
  H+  H245  1  -0.02171779  0.35762771  0.17408309  1
  H+  H246  1  0.87634192  0.14139752  0.66936496  1
  H+  H247  1  0.62614322  0.74246881  0.13815203  1
  H+  H248  1  0.88651554  1.02121047  0.66019854  1
  H+  H249  1  0.01296668  0.34821822  0.01233570  1
  H+  H250  1  0.88819672  0.36596457  0.84725563  1
  H+  H251  1  0.38976524  0.52573057  0.83378081  1
  H+  H252  1  0.27862340  0.15012965  0.14664654  1
  H+  H253  1  0.60782478  0.64267016  0.33031305  1
  H+  H254  1  0.13457497  0.77829311  -0.00859183  1
  H+  H255  1  0.51772536  0.62120131  0.83809644  1
  H+  H256  1  0.15004691  0.58156243  0.93358999  1
  H+  H257  1  0.87450817  0.97922946  0.49016989  1
  H+  H258  1  0.88453933  0.76779428  0.31996171  1
  H+  H259  1  0.36667431  0.48326728  0.15530986  1
  H+  H260  1  0.73880699  0.87441803  0.49896796  1
  H+  H261  1  0.52299661  0.39497851  0.16527359  1
  H+  H262  1  0.70157490  0.17801612  0.21758861  1
  H+  H263  1  0.87527135  0.14114261  0.49250312  1
  H+  H264  1  0.36340057  0.89380083  0.67367616  1
  H+  H265  1  0.82693880  0.66945523  0.76305101  1
  H+  H266  1  0.10790968  0.62559058  0.49956241  1
  H+  H267  1  0.93087145  0.08520059  0.90255142  1
  H+  H268  1  0.77316078  0.64961570  0.66951578  1
  H+  H269  1  0.78047952  0.14004462  0.16358716  1
  H+  H270  1  0.37224808  0.60386822  0.98899814  1
  H+  H271  1  0.51157301  0.12463283  0.00370837  1
  H+  H272  1  0.37760558  0.99074994  0.82275607  1
  H+  H273  1  0.82536362  0.38415472  0.08507632  1
  H+  H274  1  0.37829971  -0.04313236  0.50579980  1
  H+  H275  1  0.88077419  0.10881772  0.17161444  1
  H+  H276  1  0.09018255  0.15328928  0.73344140  1
  H+  H277  1  0.39615016  0.37240616  0.99011921  1
  H+  H278  1  0.68542091  0.33141056  0.42387549  1
  H+  H279  1  0.37990203  0.27661126  0.65974970  1
  H+  H280  1  0.75262447  0.13413233  0.67062777  1
  H+  H281  1  0.35671889  0.72009442  0.15805401  1
  H+  H282  1  0.11381851  0.47702078  0.67290447  1
  H+  H283  1  0.66311066  0.18023967  0.70046521  1
  H+  H284  1  0.87182065  0.65470343  0.16504928  1
  H+  H285  1  0.28601400  0.88031385  0.35214534  1
  H+  H286  1  0.14749028  0.37394476  0.83956843  1
  H+  H287  1  0.86671339  0.47116692  0.33019387  1
  H+  H288  1  0.07366558  0.40137831  0.10558104  1
  H+  H289  1  0.67505810  0.84014033  0.26094108  1
  H+  H290  1  0.26095910  0.63292754  0.00356864  1
  H+  H291  1  0.40841565  0.57888782  0.93108428  1
  H+  H292  1  0.17372939  0.78993810  0.28222932  1
  H+  H293  1  0.34231290  0.42189539  0.06148308  1
  H+  H294  1  0.66551194  0.07649952  0.92860684  1
  H+  H295  1  0.58451522  0.42757640  0.07605169  1
  H+  H296  1  0.91606404  0.61692944  0.93146101  1
  H+  H297  1  0.83561017  0.15870387  0.39889216  1
  H+  H298  1  0.63720796  0.53195977  0.02164539  1
  H+  H299  1  0.15476374  0.86950415  0.22219708  1
  H+  H300  1  0.42866229  0.86336927  0.26442095  1
  H+  H301  1  0.36200576  0.93734697  0.76049577  1
  H+  H302  1  0.35787641  0.67776770  0.76076318  1
  H+  H303  1  0.88386911  0.32403518  0.56737918  1
  H+  H304  1  0.79540132  0.40586543  0.71286343  1
  H+  H305  1  0.83268554  0.92565844  0.73299538  1
  H+  H306  1  0.89769725  0.79705357  0.55758848  1
  H+  H307  1  0.57697743  0.69447443  0.71720416  1
  H+  H308  1  0.35253600  0.23301656  0.82714139  1
  H+  H309  1  0.41246352  0.33775171  0.60116495  1
  H+  H310  1  0.66389897  0.59834305  0.56336442  1
  H+  H311  1  0.63585585  0.09247336  0.83316710  1
  H+  H312  1  0.28434200  0.02455686  0.60536200  1
  H+  H313  1  0.20641690  0.13289248  0.83559009  1
  H+  H314  1  0.67459991  0.60913859  0.96839379  1
  H+  H315  1  0.40074355  0.86803851  0.83887436  1
  H+  H316  1  0.40234557  0.08729758  0.90310209  1
  H+  H317  1  0.05407187  0.29980794  0.04649142  1
  H+  H318  1  0.65518614  0.06541864  0.27775438  1
  H+  H319  1  0.07370641  0.64111648  0.41133361  1
  H+  H320  1  0.56108471  0.65498173  0.42501027  1
  H+  H321  1  0.92155872  0.32590727  0.89675900  1
  H+  H322  1  0.41731966  0.06556955  0.56949333  1
  H+  H323  1  0.17190917  0.57177986  0.23469637  1
  H+  H324  1  0.08043681  0.68407925  0.06136456  1
  H+  H325  1  0.34110556  0.17712653  0.06073285  1
  H+  H326  1  0.32247574  0.65861760  0.06185955  1
  H+  H327  1  0.61982591  0.49875098  0.49985800  1
  H+  H328  1  0.84619956  0.16722233  0.76890802  1
  H+  H329  1  0.62381531  0.12277312  0.49515382  1
  H+  H330  1  1.01014180  0.63546557  0.83114730  1
  H+  H331  1  0.57072587  0.13866272  0.77090615  1
  H+  H332  1  0.29575909  0.17995387  0.40546317  1
  H+  H333  1  0.78281952  0.65418876  0.16322536  1
  H+  H334  1  0.58345232  0.43267647  0.40449521  1
  H+  H335  1  0.61698703  0.29849519  0.88071531  1
  H+  H336  1  0.33991901  0.40986247  0.43058772  1
  H+  H337  1  0.71693313  0.42529474  0.25037443  1
  H+  H338  1  0.07757295  0.15242187  0.42460738  1
  H+  H339  1  0.83315036  0.61940303  0.47821564  1
  H+  H340  1  0.41467367  0.59576123  0.59273188  1
  H+  H341  1  0.56882844  0.14304425  0.40721636  1
  H+  H342  1  0.92031709  0.08235531  0.56477959  1
  H+  H343  1  0.84130614  0.91938453  0.39459593  1
  H+  H344  1  0.15880793  0.07342753  0.59543500  1
  H+  H345  1  0.05954008  0.39776572  0.40410389  1
  H+  H346  1  0.16637865  0.32332473  0.60185299  1
  H+  H347  1  0.45978559  0.60361330  0.49378138  1
  H+  H348  1  0.58217002  0.91041058  0.05611881  1
  H+  H349  1  0.93755302  0.87043979  0.62183920  1
  H+  H350  1  0.11257887  0.08460091  0.50183264  1
  H+  H351  1  0.60575227  0.92643581  0.75978044  1
  H+  H352  1  0.26927272  0.88683696  0.00501709  1
  H+  H353  1  0.82598561  0.15405155  0.06335668  1
  H+  H354  1  0.16647225  0.84020420  0.93232394  1
  H+  H355  1  0.90783148  0.07454940  0.23624868  1
  H+  H356  1  0.87125651  0.22554117  0.15978848  1
  H+  H357  1  0.26670931  0.38223870  0.82730177  1
  H+  H358  1  0.63075292  0.98411531  0.16514044  1
  H+  H359  1  0.17985705  0.33979068  0.89632472  1
  H+  H360  1  0.63663526  0.34635338  0.88538197  1
  H+  H361  1  0.42037069  0.34233209  0.23138308  1
  H+  H362  1  0.16359961  0.57902141  0.60615863  1
  H+  H363  1  0.89915664  0.70729580  -0.02413412  1
  H+  H364  1  0.17630437  0.12132762  0.22945835  1
  H+  H365  1  0.07676949  0.88374289  0.44198876  1
  H+  H366  1  0.63998522  0.26925899  0.36849279  1
  H+  H367  1  0.41600825  0.58506560  0.25725648  1
  H+  H368  1  0.43113071  0.34354753  0.89752762  1
  H+  H369  1  0.44519248  0.86246714  0.60916539  1
  H+  H370  1  0.07329667  0.65336406  0.73937548  1
  H+  H371  1  0.82293536  0.66407319  0.38774651  1
  H+  H372  1  0.40197399  0.82473663  0.90152158  1
  H+  H373  1  0.67639075  0.04580722  0.55218477  1
  H+  H374  1  0.92913749  0.59625829  0.23393678  1
  H+  H375  1  0.71663177  0.62305163  0.49940758  1
  H+  H376  1  0.59278331  0.93230259  0.40733034  1
  H+  H377  1  0.88232900  0.36683055  0.65805368  1
  H+  H378  1  0.11546486  0.14539489  0.32104104  1
  H+  H379  1  0.59544762  0.41685133  0.70783616  1
  H+  H380  1  0.53354170  0.92851010  0.31618727  1
  H+  H381  1  0.68161903  0.84317416  0.59293492  1
  H+  H382  1  0.20627363  0.58262080  0.50377295  1
  H+  H383  1  0.31596870  0.63376148  0.39349796  1
  O2-  O384  1  0.09127199  0.19483202  0.11254462  1
  O2-  O385  1  0.07534874  0.14982745  0.46990880  1
  O2-  O386  1  0.10515945  0.14448781  0.81910531  1
  O2-  O387  1  0.07670457  0.41214609  0.15047573  1
  O2-  O388  1  0.03605304  0.39970033  0.48792371  1
  O2-  O389  1  0.08450531  0.41623472  0.81467596  1
  O2-  O390  1  0.08709388  0.69631452  0.13384577  1
  O2-  O391  1  0.08075885  0.65765119  0.48241458  1
  O2-  O392  1  0.07127298  0.66489226  0.81540405  1
  O2-  O393  1  0.08052980  0.93954738  0.13285979  1
  O2-  O394  1  0.07818435  0.89136473  0.48656993  1
  O2-  O395  1  0.08154394  0.92571482  0.82087882  1
  O2-  O396  1  0.34236167  0.17924525  0.14104779  1
  O2-  O397  1  0.26940423  0.18819998  0.44239781  1
  O2-  O398  1  0.31437353  0.17331651  0.81236519  1
  O2-  O399  1  0.33372891  0.42188709  0.14201068  1
  O2-  O400  1  0.33765934  0.40468230  0.47611320  1
  O2-  O401  1  0.32950070  0.40962997  0.80667712  1
  O2-  O402  1  0.33238984  0.66093958  0.14242848  1
  O2-  O403  1  0.30642245  0.62965401  0.46477321  1
  O2-  O404  1  0.36265785  0.67179037  0.80517089  1
  O2-  O405  1  0.32602495  0.91975600  0.14462945  1
  O2-  O406  1  0.34476924  0.89677822  0.48835553  1
  O2-  O407  1  0.39374693  0.95323780  0.80027422  1
  O2-  O408  1  0.54711511  0.07608370  0.12915770  1
  O2-  O409  1  0.59670664  0.15688324  0.48211162  1
  O2-  O410  1  0.55031897  0.10073395  0.80724876  1
  O2-  O411  1  0.58394504  0.42996816  0.14973781  1
  O2-  O412  1  0.59283489  0.43551777  0.48493281  1
  O2-  O413  1  0.60472266  0.40540773  0.78409308  1
  O2-  O414  1  0.59105052  0.67968142  0.12505733  1
  O2-  O415  1  0.54885153  0.64412392  0.46897890  1
  O2-  O416  1  0.58419296  0.64844001  0.83072126  1
  O2-  O417  1  0.59178891  0.92401912  0.17559206  1
  O2-  O418  1  0.59613834  0.92603869  0.45188201  1
  O2-  O419  1  0.61213141  0.91997005  0.80930494  1
  O2-  O420  1  0.83850135  0.16305937  0.14577776  1
  O2-  O421  1  0.84274045  0.16868990  0.47534361  1
  O2-  O422  1  0.84184236  0.16518007  0.81407089  1
  O2-  O423  1  0.85415088  0.42791630  0.15151039  1
  O2-  O424  1  0.86267796  0.54646512  0.49561004  1
  O2-  O425  1  0.84188887  0.41970392  0.85198862  1
  O2-  O426  1  0.84350391  0.68670373  0.15019196  1
  O2-  O427  1  0.81226715  0.65868963  0.46363159  1
  O2-  O428  1  0.83266051  0.66767470  0.80867590  1
  O2-  O429  1  0.84311987  0.92484070  0.14529530  1
  O2-  O430  1  0.84661846  0.92103870  0.47082410  1
  O2-  O431  1  0.82922639  0.91630914  0.81477768  1
  O2-  O432  1  0.17028250  0.11006287  0.15469294  1
  O2-  O433  1  0.15039317  0.06153832  0.51493143  1
  O2-  O434  1  0.14537745  0.10072942  0.85062300  1
  O2-  O435  1  0.16999099  0.33889114  0.18327415  1
  O2-  O436  1  0.17423241  0.31675932  0.51088569  1
  O2-  O437  1  0.18295753  0.34749335  0.85145107  1
  O2-  O438  1  0.18121352  0.57677271  0.19053378  1
  O2-  O439  1  0.15163402  0.56486361  0.52558039  1
  O2-  O440  1  0.14699144  0.57929194  0.86580384  1
  O2-  O441  1  0.16255772  0.86731398  0.17863658  1
  O2-  O442  1  0.17814998  0.81973308  0.52550513  1
  O2-  O443  1  0.15656287  0.83961811  0.85403625  1
  O2-  O444  1  0.41098037  0.07875435  0.18949211  1
  O2-  O445  1  0.44196188  0.04844280  0.53605561  1
  O2-  O446  1  0.39909298  0.09249458  0.85799402  1
  O2-  O447  1  0.42109410  0.34256750  0.18597470  1
  O2-  O448  1  0.43324417  0.33258597  0.52126104  1
  O2-  O449  1  0.42536467  0.33979064  0.85180399  1
  O2-  O450  1  0.42184932  0.58949289  0.17978788  1
  O2-  O451  1  0.39804318  0.57438230  0.51187224  1
  O2-  O452  1  0.42431234  0.58460516  0.84977030  1
  O2-  O453  1  0.40378575  0.83319594  0.18736401  1
  O2-  O454  1  0.45411934  0.85179211  0.52439137  1
  O2-  O455  1  0.41249545  0.82497751  0.85743715  1
  O2-  O456  1  0.68138548  0.11915151  0.20407906  1
  O2-  O457  1  0.67764692  0.06723443  0.51125256  1
  O2-  O458  1  0.67598072  0.07499399  0.85178000  1
  O2-  O459  1  0.70166609  0.39548865  0.21132109  1
  O2-  O460  1  0.72071266  0.32763852  0.50451761  1
  O2-  O461  1  0.72958577  0.37294870  0.77326139  1
  O2-  O462  1  0.66763037  0.59741473  0.18404324  1
  O2-  O463  1  0.65767218  0.59204736  0.51777084  1
  O2-  O464  1  0.67954437  0.60649957  0.89733547  1
  O2-  O465  1  0.67725448  0.83264845  0.17805709  1
  O2-  O466  1  0.68054754  0.84918838  0.51655430  1
  O2-  O467  1  0.67301962  0.82719717  0.85887951  1
  O2-  O468  1  0.90750531  0.07456391  0.18867252  1
  O2-  O469  1  0.91756027  0.08237271  0.51909895  1
  O2-  O470  1  0.93491773  0.08637658  0.85762146  1
  O2-  O471  1  0.91546084  0.32404746  0.18674411  1
  O2-  O472  1  0.87136868  0.32139779  0.52259591  1
  O2-  O473  1  0.91806544  0.32955370  0.85197250  1
  O2-  O474  1  0.92962769  0.60328466  0.18876100  1
  O2-  O475  1  0.93664362  0.59132464  0.53702563  1
  O2-  O476  1  0.91282099  0.58598840  0.85815085  1
  O2-  O477  1  0.92226046  0.84587520  0.18265034  1
  O2-  O478  1  0.91028086  0.81438717  0.51483326  1
  O2-  O479  1  0.91087888  0.83897663  0.84734320  1
  O2-  O480  1  0.17944667  0.11543124  0.27516916  1
  O2-  O481  1  0.15651143  0.07712022  0.64049594  1
  O2-  O482  1  0.15665766  0.07358623  0.97809674  1
  O2-  O483  1  0.16803150  0.33560314  0.31058770  1
  O2-  O484  1  0.16471513  0.32492427  0.64663700  1
  O2-  O485  1  0.18409636  0.32910730  0.97774644  1
  O2-  O486  1  0.15848472  0.56299321  0.32014322  1
  O2-  O487  1  0.16873419  0.58125234  0.65117321  1
  O2-  O488  1  0.15469657  0.58668149  0.98104532  1
  O2-  O489  1  0.17123726  0.80531530  0.32438654  1
  O2-  O490  1  0.17229396  0.81160812  0.65246738  1
  O2-  O491  1  0.16727386  0.84101999  0.97782523  1
  O2-  O492  1  0.42008962  0.09986358  0.30685337  1
  O2-  O493  1  0.33723550  0.04967405  0.62896195  1
  O2-  O494  1  0.41252634  0.08178227  0.98084742  1
  O2-  O495  1  0.42428523  0.34535261  0.31010139  1
  O2-  O496  1  0.41081404  0.33836416  0.64625621  1
  O2-  O497  1  0.42694016  0.34179867  0.97469881  1
  O2-  O498  1  0.41177559  0.58317039  0.30299044  1
  O2-  O499  1  0.42021706  0.60607598  0.63703759  1
  O2-  O500  1  0.40386431  0.57433016  0.97598885  1
  O2-  O501  1  0.44950996  0.88084992  0.30679272  1
  O2-  O502  1  0.43613324  0.85782208  0.65362656  1
  O2-  O503  1  0.40276588  0.82714575  0.98411879  1
  O2-  O504  1  0.64775467  0.05270540  0.32228011  1
  O2-  O505  1  0.68791611  0.11043252  0.66357054  1
  O2-  O506  1  0.66111372  0.07368834  0.97426755  1
  O2-  O507  1  0.67135446  0.33055853  0.38019758  1
  O2-  O508  1  0.66929176  0.33513799  0.61926965  1
  O2-  O509  1  0.65575298  0.32839079  1.00491555  1
  O2-  O510  1  0.66089164  0.58848043  0.30688867  1
  O2-  O511  1  0.66611902  0.59595723  0.63903536  1
  O2-  O512  1  0.66728075  0.59785531  1.01449139  1
  O2-  O513  1  0.67336317  0.84533344  0.30588175  1
  O2-  O514  1  0.67847320  0.83539552  0.63803880  1
  O2-  O515  1  0.67668644  0.82708037  0.98812927  1
  O2-  O516  1  0.91355569  0.07806523  0.30433148  1
  O2-  O517  1  0.91835425  0.08241387  0.64294978  1
  O2-  O518  1  0.92297516  0.07655888  0.98729968  1
  O2-  O519  1  0.91367645  0.31994860  0.30822012  1
  O2-  O520  1  0.91169823  0.33522055  0.64297295  1
  O2-  O521  1  0.91857037  0.31813376  0.97827046  1
  O2-  O522  1  0.91718682  0.57945112  0.31186204  1
  O2-  O523  1  0.90986832  0.58618236  0.65368048  1
  O2-  O524  1  0.91936641  0.63888370  0.97389431  1
  O2-  O525  1  0.92209179  0.83065175  0.30923707  1
  O2-  O526  1  0.90999445  0.84101926  0.65934525  1
  O2-  O527  1  0.91873923  0.81652152  1.01808206  1
  O2-  O528  1  0.06691052  0.20942082  0.05182441  1
  O2-  O529  1  0.08250268  0.16664665  0.34429460  1
  O2-  O530  1  0.08458923  0.15986366  0.68925250  1
  O2-  O531  1  0.06514502  0.35841457  0.03574158  1
  O2-  O532  1  0.06915843  0.40012203  0.35968349  1
  O2-  O533  1  0.07741451  0.41511984  0.68576421  1
  O2-  O534  1  0.07918540  0.68146136  0.01515922  1
  O2-  O535  1  0.07493616  0.63858134  0.36486345  1
  O2-  O536  1  0.07485471  0.64892812  0.69394850  1
  O2-  O537  1  0.07725561  0.91306482  0.01194432  1
  O2-  O538  1  0.07579575  0.87902926  0.35648769  1
  O2-  O539  1  0.06283341  0.91570610  0.70681541  1
  O2-  O540  1  0.33651009  0.17150234  0.01563964  1
  O2-  O541  1  0.33814746  0.17812709  0.32902073  1
  O2-  O542  1  0.31819939  0.17369668  0.68611390  1
  O2-  O543  1  0.34436385  0.41975090  0.01626162  1
  O2-  O544  1  0.33349018  0.41837578  0.35314123  1
  O2-  O545  1  0.32065462  0.40283987  0.69654340  1
  O2-  O546  1  0.32250376  0.66137081  0.01659351  1
  O2-  O547  1  0.31373325  0.63567514  0.34704152  1
  O2-  O548  1  0.34638411  0.68991837  0.67978058  1
  O2-  O549  1  0.32884109  0.91658496  0.02282155  1
  O2-  O550  1  0.34595319  0.91713255  0.36506453  1
  O2-  O551  1  0.32514078  0.91507029  0.68876898  1
  O2-  O552  1  0.57158143  0.14878687  0.02141243  1
  O2-  O553  1  0.56681771  0.14587203  0.36148274  1
  O2-  O554  1  0.64109226  0.21620593  0.71862929  1
  O2-  O555  1  0.59124845  0.43416138  0.03038663  1
  O2-  O556  1  0.58476286  0.42258792  0.35999888  1
  O2-  O557  1  0.58850894  0.42270592  0.66309446  1
  O2-  O558  1  0.59171507  0.67644346  0.05752383  1
  O2-  O559  1  0.57423884  0.67029845  0.34401799  1
  O2-  O560  1  0.58880277  0.68440643  0.67580588  1
  O2-  O561  1  0.58347262  0.90838706  0.01191009  1
  O2-  O562  1  0.60507606  0.95744845  0.32476249  1
  O2-  O563  1  0.59624971  0.94037281  0.70110022  1
  O2-  O564  1  0.82618240  0.15247362  0.01822955  1
  O2-  O565  1  0.82848388  0.15228422  0.35332008  1
  O2-  O566  1  0.84821139  0.17289192  0.68745199  1
  O2-  O567  1  0.80264540  0.34650506  0.04728329  1
  O2-  O568  1  0.84138507  0.40848699  0.33781205  1
  O2-  O569  1  0.82371696  0.41695375  0.67170671  1
  O2-  O570  1  0.87541943  0.75184638  -0.02933181  1
  O2-  O571  1  0.82974211  0.66568827  0.34226903  1
  O2-  O572  1  0.83169215  0.67698498  0.68739874  1
  O2-  O573  1  0.84534522  0.91051984  0.02408545  1
  O2-  O574  1  0.84079913  0.91875227  0.34873587  1
  O2-  O575  1  0.83723520  0.92632047  0.68793657  1
