# generated using pymatgen
data_H2O
_symmetry_space_group_name_H-M   'P 1'
_cell_length_a   17.99140232
_cell_length_b   17.99347920
_cell_length_c   21.99758765
_cell_angle_alpha   90.00608076
_cell_angle_beta   89.98687306
_cell_angle_gamma   119.98930186
_symmetry_Int_Tables_number   1
_chemical_formula_structural   H2O
_chemical_formula_sum   'H384 O192'
_cell_volume   6167.83356379
_cell_formula_units_Z   192
loop_
 _symmetry_equiv_pos_site_id
 _symmetry_equiv_pos_as_xyz
  1  'x, y, z'
loop_
 _atom_type_symbol
 _atom_type_oxidation_number
  H+  1.0
  O2-  -2.0
loop_
 _atom_site_type_symbol
 _atom_site_label
 _atom_site_symmetry_multiplicity
 _atom_site_fract_x
 _atom_site_fract_y
 _atom_site_fract_z
 _atom_site_occupancy
  H+  H0  1  0.13517408  0.02755862  0.84097985  1
  H+  H1  1  0.85965601  0.88300684  0.16426314  1
  H+  H2  1  0.12424199  0.76647994  0.66102700  1
  H+  H3  1  0.13571283  0.89271555  0.98987893  1
  H+  H4  1  0.78247365  0.89804384  0.67644933  1
  H+  H5  1  0.35707055  0.26924890  0.31609732  1
  H+  H6  1  0.36798469  -0.04150305  1.00845429  1
  H+  H7  1  0.36703885  0.77978330  0.65331949  1
  H+  H8  1  0.25500877  0.87529290  0.68993434  1
  H+  H9  1  0.37940019  0.14900962  0.83220154  1
  H+  H10  1  0.23508006  0.85244811  -0.00884167  1
  H+  H11  1  -0.03079150  0.63504118  0.02677037  1
  H+  H12  1  0.53193240  0.88515921  0.00035608  1
  H+  H13  1  0.77100005  0.64132001  0.49778625  1
  H+  H14  1  0.66093574  0.47823665  0.16720422  1
  H+  H15  1  0.85766150  0.23539932  0.00806147  1
  H+  H16  1  0.15964172  0.88387363  0.36298839  1
  H+  H17  1  0.63861530  0.86023582  0.32840418  1
  H+  H18  1  0.21115179  0.58773086  0.66438952  1
  H+  H19  1  0.61021677  0.63363405  0.82938836  1
  H+  H20  1  0.02313136  0.63693442  0.49263426  1
  H+  H21  1  0.92925093  0.96156751  -0.00612045  1
  H+  H22  1  0.72750453  0.61071391  0.65683663  1
  H+  H23  1  0.97098981  0.11125739  0.16962201  1
  H+  H24  1  0.58867630  0.54712401  0.13308053  1
  H+  H25  1  0.11546037  0.14623178  0.81953093  1
  H+  H26  1  0.38314597  0.90048893  0.47198258  1
  H+  H27  1  0.55911681  0.90138799  0.75525717  1
  H+  H28  1  0.84181064  0.79254279  1.00419216  1
  H+  H29  1  0.88344460  0.77631478  0.52015066  1
  H+  H30  1  0.72384782  0.12645832  1.00040839  1
  H+  H31  1  0.61026404  0.23250669  0.01085512  1
  H+  H32  1  0.87640948  0.55180574  1.02533164  1
  H+  H33  1  0.11456869  0.13798795  0.33482846  1
  H+  H34  1  0.61138939  0.39731616  0.48744701  1
  H+  H35  1  0.36042448  1.00297517  0.09337158  1
  H+  H36  1  0.50823178  0.37427243  0.33549276  1
  H+  H37  1  0.10438317  0.47105663  0.15153871  1
  H+  H38  1  0.47627668  0.11448540  0.83534720  1
  H+  H39  1  0.13401098  0.11793855  0.17184346  1
  H+  H40  1  0.98920783  0.36336841  0.98527813  1
  H+  H41  1  0.36997032  0.48827412  0.66443804  1
  H+  H42  1  0.61168551  0.21248616  0.48901967  1
  H+  H43  1  0.39635853  0.04798988  0.17565945  1
  H+  H44  1  0.87651821  0.59565509  0.83759021  1
  H+  H45  1  0.51694585  0.64376352  0.00538127  1
  H+  H46  1  0.35948577  0.72741331  0.15724776  1
  H+  H47  1  1.00454779  0.61265070  0.82008585  1
  H+  H48  1  0.86150719  0.13833551  0.82876966  1
  H+  H49  1  0.16020624  0.33214508  0.89785930  1
  H+  H50  1  0.07694061  0.16968413  0.10252761  1
  H+  H51  1  0.10803855  0.63151765  0.66857068  1
  H+  H52  1  0.38653500  0.53805693  1.01059849  1
  H+  H53  1  0.27767390  0.11866919  0.65647510  1
  H+  H54  1  0.10893403  0.39310472  0.82884819  1
  H+  H55  1  0.62592867  0.76407937  0.31837684  1
  H+  H56  1  0.13948482  0.80125415  0.14801900  1
  H+  H57  1  0.87304699  0.60524338  0.32994141  1
  H+  H58  1  0.64139792  0.76828041  0.83988836  1
  H+  H59  1  0.96355969  0.61072518  0.33534029  1
  H+  H60  1  0.39251872  0.35945998  0.85933059  1
  H+  H61  1  0.34997555  0.38377907  0.33266673  1
  H+  H62  1  0.29258566  0.15228580  0.82261302  1
  H+  H63  1  0.13518386  0.27617055  0.83616635  1
  H+  H64  1  0.62081785  0.39537697  0.00650527  1
  H+  H65  1  0.52414776  0.38571955  0.83365263  1
  H+  H66  1  0.35718222  0.63801997  0.83616141  1
  H+  H67  1  0.33367774  0.42267699  0.39245497  1
  H+  H68  1  0.26625063  0.37707087  0.83706685  1
  H+  H69  1  -0.02661395  0.10487557  0.32275122  1
  H+  H70  1  0.86335396  0.99321223  0.51493887  1
  H+  H71  1  0.38138212  0.23002942  0.01401260  1
  H+  H72  1  0.86845121  0.65491168  0.09908428  1
  H+  H73  1  0.86760973  0.66544525  0.99079124  1
  H+  H74  1  1.01708799  0.14799211  0.67011739  1
  H+  H75  1  0.08433459  0.33925290  0.48787241  1
  H+  H76  1  0.67374154  0.34095125  0.73247045  1
  H+  H77  1  0.13203291  0.27812344  0.65929485  1
  H+  H78  1  0.06511107  0.13357361  -0.00376299  1
  H+  H79  1  0.61896432  0.64066764  0.67550672  1
  H+  H80  1  0.75547356  0.86234363  0.82966606  1
  H+  H81  1  0.73776309  0.87465708  0.52076192  1
  H+  H82  1  0.10346910  0.90542921  0.13059115  1
  H+  H83  1  0.14813847  0.73278908  0.30253045  1
  H+  H84  1  0.07352873  0.39358017  0.40534780  1
  H+  H85  1  0.86050679  0.11776404  0.98831844  1
  H+  H86  1  0.76640460  0.59656209  0.17727883  1
  H+  H87  1  0.37696919  0.62079466  0.99919212  1
  H+  H88  1  0.88484366  0.61361288  0.50658554  1
  H+  H89  1  0.41916110  0.78845027  0.32525820  1
  H+  H90  1  0.61547853  0.13324538  0.82032339  1
  H+  H91  1  0.35307629  0.90421131  0.68611655  1
  H+  H92  1  0.96967845  0.11317026  0.51821614  1
  H+  H93  1  0.64344796  0.89859183  0.67003584  1
  H+  H94  1  0.67660020  0.98028179  0.71118896  1
  H+  H95  1  0.34680065  0.73738542  0.66980825  1
  H+  H96  1  0.46873523  0.84940743  0.16585148  1
  H+  H97  1  0.62946297  0.50886378  0.32396733  1
  H+  H98  1  0.88515502  0.81014948  0.69874359  1
  H+  H99  1  0.86883842  0.71731673  0.66231583  1
  H+  H100  1  0.36492428  0.20533628  0.65543141  1
  H+  H101  1  0.86367621  0.12862841  0.33534521  1
  H+  H102  1  0.10202287  0.47395552  0.67186423  1
  H+  H103  1  0.89080019  0.64098621  0.16435928  1
  H+  H104  1  0.86760376  0.26896937  0.50769890  1
  H+  H105  1  0.73510065  0.11102996  0.83015206  1
  H+  H106  1  0.61774777  0.23139579  0.67293881  1
  H+  H107  1  0.37558910  0.36845347  0.17232429  1
  H+  H108  1  0.17966816  0.09282628  0.72972967  1
  H+  H109  1  0.48740554  0.36844853  1.00489039  1
  H+  H110  1  0.58433025  0.96770054  0.80735340  1
  H+  H111  1  0.00391507  0.97012084  0.38090042  1
  H+  H112  1  0.87419738  0.50695033  0.83589162  1
  H+  H113  1  0.66787359  0.10501602  0.93998397  1
  H+  H114  1  0.26732575  0.63528064  0.15709455  1
  H+  H115  1  0.22064481  0.36754758  0.65437934  1
  H+  H116  1  0.60808251  0.74710299  0.15985322  1
  H+  H117  1  0.74950114  0.83114663  0.01745620  1
  H+  H118  1  0.35129748  0.72390513  0.83100873  1
  H+  H119  1  0.62535309  0.13160029  0.48504877  1
  H+  H120  1  0.71803830  0.35647501  0.33005053  1
  H+  H121  1  0.96347210  0.85663317  0.32227533  1
  H+  H122  1  -0.01956411  0.35711155  0.67395659  1
  H+  H123  1  0.07702367  0.58104148  0.31174408  1
  H+  H124  1  0.76974887  0.13551451  0.16288465  1
  H+  H125  1  0.31255726  0.89897154  0.36931054  1
  H+  H126  1  0.12741361  1.01868551  0.68333543  1
  H+  H127  1  0.88829629  0.35331600  0.66569682  1
  H+  H128  1  0.88490512  0.18470875  0.67580299  1
  H+  H129  1  0.52876848  0.14703895  0.16617925  1
  H+  H130  1  0.48505308  0.61826923  0.66197409  1
  H+  H131  1  0.14007769  0.77138109  -0.00542950  1
  H+  H132  1  0.35098913  0.96232352  0.31483830  1
  H+  H133  1  0.63592352  0.36327029  0.83844988  1
  H+  H134  1  0.64711279  0.77900979  0.66542125  1
  H+  H135  1  0.72348368  0.37215750  0.99406078  1
  H+  H136  1  0.12912300  0.02872343  0.16133318  1
  H+  H137  1  0.89042341  0.05147202  0.66446098  1
  H+  H138  1  0.77060890  0.88496236  0.16549086  1
  H+  H139  1  0.88423255  0.52379530  0.50411319  1
  H+  H140  1  0.47975378  0.36571777  0.51091063  1
  H+  H141  1  0.76649381  0.62922905  0.34035424  1
  H+  H142  1  0.87476622  0.90550347  0.67665580  1
  H+  H143  1  0.63584444  0.87071135  0.17303372  1
  H+  H144  1  0.49247786  0.94774559  0.64902516  1
  H+  H145  1  0.85530193  0.47018260  0.33934527  1
  H+  H146  1  0.10670653  0.22225305  0.33500550  1
  H+  H147  1  0.10424343  0.14095665  0.67794230  1
  H+  H148  1  0.95168683  0.35562920  0.51121951  1
  H+  H149  1  0.37332349  0.61551778  0.16268919  1
  H+  H150  1  0.63320971  0.52159615  0.83964388  1
  H+  H151  1  0.90024817  0.52446441  0.17791382  1
  H+  H152  1  0.15628245  0.88827220  0.32927002  1
  H+  H153  1  0.16238534  0.87672332  0.84333233  1
  H+  H154  1  0.15749804  0.47611207  0.38038701  1
  H+  H155  1  0.42154703  0.96508972  0.41920585  1
  H+  H156  1  0.62877717  0.57403971  0.11494393  1
  H+  H157  1  0.85319902  0.38289604  0.49607805  1
  H+  H158  1  0.08428374  0.16439298  0.43619388  1
  H+  H159  1  0.87860328  0.13601787  0.50244776  1
  H+  H160  1  0.84770079  0.16255569  0.43580711  1
  H+  H161  1  0.34374666  0.43466765  -0.03276324  1
  H+  H162  1  0.64505249  0.86825043  0.98912137  1
  H+  H163  1  0.08403442  -0.07495425  1.03233744  1
  H+  H164  1  0.74449555  0.11855187  0.49768874  1
  H+  H165  1  0.64391954  0.26634333  0.17710460  1
  H+  H166  1  0.34423805  0.59937532  0.68471063  1
  H+  H167  1  0.46593522  0.62247109  0.16357574  1
  H+  H168  1  0.85880257  0.13505425  0.15914565  1
  H+  H169  1  0.63089828  0.98155516  0.49281277  1
  H+  H170  1  0.49300378  0.87775134  0.50516191  1
  H+  H171  1  0.73013362  0.11163115  0.32608997  1
  H+  H172  1  0.61583661  0.97871155  0.00368110  1
  H+  H173  1  0.24868827  0.59929234  0.34646512  1
  H+  H174  1  0.12943685  0.52147170  0.84530540  1
  H+  H175  1  0.08227007  0.91936595  0.90640166  1
  H+  H176  1  0.66903729  0.32749282  0.23681424  1
  H+  H177  1  0.07486569  0.67938011  0.40888317  1
  H+  H178  1  0.89553096  0.77391151  0.16279914  1
  H+  H179  1  0.50293526  0.63874486  0.51159140  1
  H+  H180  1  0.85642775  0.86519756  0.82447434  1
  H+  H181  1  0.13215554  0.36107229  0.32472729  1
  H+  H182  1  0.22453703  0.10530412  0.50399347  1
  H+  H183  1  0.50832153  0.61687583  0.31729534  1
  H+  H184  1  0.44145005  0.98907814  0.61785586  1
  H+  H185  1  0.17113967  0.11615960  0.99037652  1
  H+  H186  1  0.38759329  0.10360780  1.02435947  1
  H+  H187  1  0.63068618  0.26391409  0.32932073  1
  H+  H188  1  0.86029590  0.41960425  0.00015776  1
  H+  H189  1  0.13191815  0.60746728  0.16447495  1
  H+  H190  1  0.33507337  0.38858503  0.78624874  1
  H+  H191  1  0.61081767  0.97627597  0.15906958  1
  H+  H192  1  0.03527317  0.65045499  0.17419087  1
  H+  H193  1  0.61587328  0.22197436  0.82266650  1
  H+  H194  1  0.60831240  0.48221107  0.67372862  1
  H+  H195  1  0.21613413  0.35428898  0.99351001  1
  H+  H196  1  0.86868673  0.38723870  0.15967105  1
  H+  H197  1  0.13008880  0.71098883  0.20046361  1
  H+  H198  1  0.39984171  0.33442969  0.26000716  1
  H+  H199  1  0.13576692  0.26959080  0.50630760  1
  H+  H200  1  0.13327546  0.02560061  0.51387716  1
  H+  H201  1  0.23924279  0.63515153  0.34122509  1
  H+  H202  1  0.35656333  0.48442676  0.14966638  1
  H+  H203  1  0.41095662  0.54939340  0.50780559  1
  H+  H204  1  0.76879866  0.63106736  0.82048372  1
  H+  H205  1  0.36751899  0.37426290  1.00291842  1
  H+  H206  1  0.93339160  -0.02065749  1.02536563  1
  H+  H207  1  0.72234566  0.62626684  0.98248230  1
  H+  H208  1  0.38598538  0.03198534  0.84985377  1
  H+  H209  1  0.12460587  0.85491347  0.50938827  1
  H+  H210  1  0.39946547  0.27273436  0.51260691  1
  H+  H211  1  0.36438996  0.72712197  0.00237327  1
  H+  H212  1  0.87343120  0.84750829  0.31175600  1
  H+  H213  1  0.31249506  0.44806595  0.72060819  1
  H+  H214  1  0.33868859  0.89246216  0.06012011  1
  H+  H215  1  0.63665234  0.11172438  0.17550993  1
  H+  H216  1  0.38503612  0.52113882  0.84673974  1
  H+  H217  1  0.22126336  0.36713884  0.16744329  1
  H+  H218  1  0.62598809  0.89027807  0.50195229  1
  H+  H219  1  0.01319245  0.89847508  0.13738671  1
  H+  H220  1  0.05863210  0.73713752  0.36145561  1
  H+  H221  1  0.14874206  0.62414592  0.50595968  1
  H+  H222  1  0.60104830  0.65525287  0.15528536  1
  H+  H223  1  0.08105269  0.49642417  0.31829028  1
  H+  H224  1  0.62091586  0.48544698  0.01148969  1
  H+  H225  1  0.87385654  0.47818794  0.66739649  1
  H+  H226  1  0.63007359  0.61711741  0.99372403  1
  H+  H227  1  0.00316098  0.88009214  0.67665309  1
  H+  H228  1  0.84028628  0.18647796  0.77549419  1
  H+  H229  1  0.62986440  0.77275817  -0.01276831  1
  H+  H230  1  0.42224210  0.82370932  0.92783080  1
  H+  H231  1  0.85539944  0.71864122  0.33586868  1
  H+  H232  1  0.11884133  0.13702834  0.49462139  1
  H+  H233  1  0.10673224  0.38320647  0.15290864  1
  H+  H234  1  0.13376552  0.36822716  0.99264635  1
  H+  H235  1  0.63058702  0.97621732  0.34315663  1
  H+  H236  1  0.88359835  0.27037781  0.17307356  1
  H+  H237  1  0.93895020  0.41099875  0.91163656  1
  H+  H238  1  0.39957668  1.09338659  0.62444432  1
  H+  H239  1  0.84905553  0.36303263  0.81249849  1
  H+  H240  1  0.86787605  0.62783246  0.66532572  1
  H+  H241  1  0.47460299  0.10167757  0.02801220  1
  H+  H242  1  0.63854282  0.63124596  0.51022977  1
  H+  H243  1  0.63567547  0.37519274  0.16038873  1
  H+  H244  1  -0.03020106  0.36073676  0.32480070  1
  H+  H245  1  0.22817818  0.10956726  0.32398970  1
  H+  H246  1  0.37406545  0.51630992  0.31387680  1
  H+  H247  1  0.33465373  0.17158712  0.10619166  1
  H+  H248  1  0.28000547  0.93468262  0.13450458  1
  H+  H249  1  0.01568849  0.88687650  0.50924798  1
  H+  H250  1  0.39585778  0.27128127  0.85093524  1
  H+  H251  1  0.85561063  0.38105943  0.33788795  1
  H+  H252  1  0.40910518  0.66044122  0.34748568  1
  H+  H253  1  0.10952293  0.73049685  0.49552973  1
  H+  H254  1  0.59674806  0.37188403  0.33805101  1
  H+  H255  1  0.83332322  0.41807289  0.43404849  1
  H+  H256  1  0.09903632  0.23394617  0.00494932  1
  H+  H257  1  0.38153447  0.36031465  0.66366884  1
  H+  H258  1  0.45431193  0.85475621  0.83410469  1
  H+  H259  1  0.10907587  0.22950441  0.16122316  1
  H+  H260  1  0.29456425  0.14068713  0.00426847  1
  H+  H261  1  0.49561822  0.11841249  0.63252145  1
  H+  H262  1  0.78164078  0.39327599  0.67358158  1
  H+  H263  1  0.65055440  0.03679596  0.64248291  1
  H+  H264  1  0.38687832  0.20553254  0.36116048  1
  H+  H265  1  0.65181847  0.32382644  0.44026927  1
  H+  H266  1  0.12276864  0.85501682  0.65957148  1
  H+  H267  1  0.23938206  0.62933902  0.50847298  1
  H+  H268  1  0.52547136  0.13028162  0.34016112  1
  H+  H269  1  0.88054316  0.75911376  0.83515326  1
  H+  H270  1  0.09033580  0.99561611  0.34729176  1
  H+  H271  1  0.64700880  0.77927640  0.52159113  1
  H+  H272  1  0.11330150  0.48293977  1.00236905  1
  H+  H273  1  0.76785595  0.87217832  0.32494220  1
  H+  H274  1  0.21835625  0.61564468  -0.00622094  1
  H+  H275  1  0.16667801  0.58199506  0.59898043  1
  H+  H276  1  0.21853338  0.61145233  0.84630093  1
  H+  H277  1  0.39927091  0.85383853  0.98904014  1
  H+  H278  1  0.88227879  0.02055797  0.16873251  1
  H+  H279  1  0.38698191  0.39787521  0.48739583  1
  H+  H280  1  0.94946918  0.12492648  0.99524255  1
  H+  H281  1  0.97370326  0.35884227  0.16938603  1
  H+  H282  1  0.61423879  0.14538396  0.01286756  1
  H+  H283  1  0.21835563  0.35875589  0.32321546  1
  H+  H284  1  0.38605946  0.09831298  0.33104883  1
  H+  H285  1  0.38188157  0.65807560  0.50165574  1
  H+  H286  1  0.10876400  0.38872743  0.67539152  1
  H+  H287  1  0.38030245  0.85092448  0.31260510  1
  H+  H288  1  0.10601879  0.63570942  0.01174804  1
  H+  H289  1  0.78136219  0.38853399  0.16400072  1
  H+  H290  1  0.63474856  0.53774736  0.50604101  1
  H+  H291  1  0.91069081  0.83073143  0.58222617  1
  H+  H292  1  0.27025965  0.13988492  0.16312445  1
  H+  H293  1  0.15458382  0.82352489  0.56711462  1
  H+  H294  1  0.58483407  0.16129656  0.72383622  1
  H+  H295  1  0.86359695  0.21792155  0.33709852  1
  H+  H296  1  0.91201333  0.09303199  0.89545030  1
  H+  H297  1  0.58635507  0.16005043  0.39992720  1
  H+  H298  1  0.67829748  0.83307580  0.89816379  1
  H+  H299  1  0.58838926  0.17356091  0.10611632  1
  H+  H300  1  0.07871812  0.42397793  0.77206524  1
  H+  H301  1  0.01774088  0.88266678  0.85257915  1
  H+  H302  1  0.07057338  0.65216173  0.72910558  1
  H+  H303  1  0.42530046  0.08890619  0.26886036  1
  H+  H304  1  0.44877483  0.47714275  0.44915617  1
  H+  H305  1  0.64285835  0.12142413  0.64446071  1
  H+  H306  1  0.65995064  0.83376167  0.23353536  1
  H+  H307  1  0.07405798  0.90077943  0.73153928  1
  H+  H308  1  0.23511915  0.81085382  0.27998607  1
  H+  H309  1  0.16793793  0.08189440  0.26419989  1
  H+  H310  1  0.97560688  0.12378246  0.83838023  1
  H+  H311  1  0.80679555  0.85619731  0.07741271  1
  H+  H312  1  0.51821908  0.39146185  0.67475475  1
  H+  H313  1  0.57709425  0.41856281  0.77049144  1
  H+  H314  1  0.89316120  0.80632778  0.89859838  1
  H+  H315  1  0.58733475  0.66871986  0.73537086  1
  H+  H316  1  0.32684184  0.66948489  0.06398169  1
  H+  H317  1  0.57921188  0.68013129  0.06270551  1
  H+  H318  1  0.63483465  0.37452537  0.68393137  1
  H+  H319  1  0.41120559  0.81939455  0.22602490  1
  H+  H320  1  0.15457456  0.33381724  0.56182834  1
  H+  H321  1  0.91453218  0.33097851  0.26443923  1
  H+  H322  1  0.18541412  0.10250163  0.88536383  1
  H+  H323  1  0.91418078  0.07830033  0.26292008  1
  H+  H324  1  0.66669799  0.07975983  0.23372611  1
  H+  H325  1  0.41336960  0.58215350  0.90495560  1
  H+  H326  1  0.92048550  0.82871329  0.22393795  1
  H+  H327  1  0.43321655  0.87633197  0.55924766  1
  H+  H328  1  -0.01097544  0.28289133  0.45882584  1
  H+  H329  1  0.58693628  0.91892612  0.09850276  1
  H+  H330  1  0.32229704  0.12838857  0.40884504  1
  H+  H331  1  0.40339925  0.57710945  0.25353716  1
  H+  H332  1  0.36953561  0.85912133  0.85149768  1
  H+  H333  1  0.83456184  0.40833686  0.75556282  1
  H+  H334  1  0.98070313  0.60955599  0.65746936  1
  H+  H335  1  0.41616250  0.14215324  0.51498372  1
  H+  H336  1  0.70060490  0.56256404  0.23708621  1
  H+  H337  1  0.91979724  0.57963333  0.59734635  1
  H+  H338  1  0.16660820  0.02740317  0.97686914  1
  H+  H339  1  0.82595405  0.17809055  0.07057683  1
  H+  H340  1  0.37872839  0.74528093  0.49941079  1
  H+  H341  1  0.83046289  0.90817733  0.76464406  1
  H+  H342  1  0.60665527  0.70255593  0.45358213  1
  H+  H343  1  0.66223998  0.58323113  0.89774109  1
  H+  H344  1  0.86556180  0.90372395  0.51411083  1
  H+  H345  1  0.67771896  0.83808009  0.60370441  1
  H+  H346  1  0.66537200  0.33614580  0.93375344  1
  H+  H347  1  0.18591042  0.83211227  0.89348171  1
  H+  H348  1  0.43108064  0.59657007  0.59943356  1
  H+  H349  1  0.39301703  0.69921503  0.40855127  1
  H+  H350  1  0.82932479  0.65720371  0.76106203  1
  H+  H351  1  0.91712391  0.10169955  0.59883614  1
  H+  H352  1  0.30693046  0.62189810  0.74400936  1
  H+  H353  1  0.83101562  0.67035727  0.43902632  1
  H+  H354  1  0.39595365  0.13542194  0.18058710  1
  H+  H355  1  0.92110371  0.57895313  0.24008436  1
  H+  H356  1  0.41438659  0.33502115  0.60447776  1
  H+  H357  1  0.62931276  0.59645596  0.31290283  1
  H+  H358  1  0.56257261  0.63640636  0.37723997  1
  H+  H359  1  0.16230229  0.33615607  0.22792948  1
  H+  H360  1  0.57165438  0.42113580  0.43277563  1
  H+  H361  1  0.66515099  0.03281531  0.87262405  1
  H+  H362  1  0.32736935  0.41990129  0.09290888  1
  H+  H363  1  0.66495369  0.58750370  0.59970985  1
  H+  H364  1  0.08060493  0.41823277  0.06056925  1
  H+  H365  1  0.43030718  0.33141356  0.94358406  1
  H+  H366  1  0.13273197  0.55953410  0.22323274  1
  H+  H367  1  0.31996987  0.91546141  0.79592032  1
  H+  H368  1  0.67903186  0.09174954  0.55398695  1
  H+  H369  1  0.72596627  0.36931183  0.48734449  1
  H+  H370  1  0.61031551  0.42040411  0.10022577  1
  H+  H371  1  0.85718105  0.96053363  0.32518730  1
  H+  H372  1  0.15716926  0.58455261  0.93473087  1
  H+  H373  1  0.52235193  0.63659947  0.83089245  1
  H+  H374  1  0.08133347  0.17815599  0.76304958  1
  H+  H375  1  0.06646627  0.92155159  0.44705271  1
  H+  H376  1  0.09574496  0.67652586  0.07321501  1
  H+  H377  1  0.64027096  0.11092798  0.32711545  1
  H+  H378  1  0.72383321  0.35965182  0.83590817  1
  H+  H379  1  0.83100114  0.42585529  0.06842507  1
  H+  H380  1  0.60736593  0.91931412  0.40431063  1
  H+  H381  1  0.09764689  0.62272417  0.82148174  1
  H+  H382  1  0.17013395  0.86373781  0.20197803  1
  H+  H383  1  0.37724646  0.28049602  0.17436107  1
  O2-  O384  1  0.07943096  0.16807644  0.14764214  1
  O2-  O385  1  0.08740108  0.16767349  0.48094407  1
  O2-  O386  1  0.08635792  0.17918113  0.80887371  1
  O2-  O387  1  0.07387799  0.41019686  0.13629422  1
  O2-  O388  1  0.03606856  0.34222293  0.46306762  1
  O2-  O389  1  0.07933228  0.42471615  0.81737734  1
  O2-  O390  1  0.09700786  0.68708957  0.16156287  1
  O2-  O391  1  0.08237353  0.67011040  0.47561284  1
  O2-  O392  1  0.06119337  0.64012154  0.79908538  1
  O2-  O393  1  0.07053871  0.93343285  0.11738515  1
  O2-  O394  1  0.07474775  0.91607827  0.49082162  1
  O2-  O395  1  0.08001271  0.92034329  0.86163455  1
  O2-  O396  1  0.33227299  0.17401159  0.15159650  1
  O2-  O397  1  0.40146128  0.17505198  0.48644255  1
  O2-  O398  1  0.35519492  0.18732035  0.81888464  1
  O2-  O399  1  0.32457899  0.42196731  0.13740487  1
  O2-  O400  1  0.38943452  0.44633379  0.46324008  1
  O2-  O401  1  0.33078134  0.40568718  0.82765012  1
  O2-  O402  1  0.32583680  0.66446812  0.13949939  1
  O2-  O403  1  0.35030089  0.68513381  0.48351093  1
  O2-  O404  1  0.32230982  0.66138190  0.81900263  1
  O2-  O405  1  0.34283143  0.96319753  0.12907373  1
  O2-  O406  1  0.36793574  0.93155403  0.44127209  1
  O2-  O407  1  0.33185562  0.92332301  0.84046302  1
  O2-  O408  1  0.58960192  0.17104487  0.15175962  1
  O2-  O409  1  0.58762845  0.15499206  0.47118005  1
  O2-  O410  1  0.58726314  0.16404014  0.80379451  1
  O2-  O411  1  0.61523684  0.41692456  0.14615009  1
  O2-  O412  1  0.57731990  0.42617722  0.47787467  1
  O2-  O413  1  0.58333608  0.41733555  0.81566341  1
  O2-  O414  1  0.57300077  0.68648593  0.14112378  1
  O2-  O415  1  0.59566551  0.68145417  0.49509518  1
  O2-  O416  1  0.58216448  0.66666172  0.81478567  1
  O2-  O417  1  0.58292428  0.91597244  0.14369444  1
  O2-  O418  1  0.59654414  0.91895734  0.48212265  1
  O2-  O419  1  0.54899176  0.90597850  0.79879264  1
  O2-  O420  1  0.83016078  0.16832771  0.14674734  1
  O2-  O421  1  0.85362438  0.17375509  0.48001444  1
  O2-  O422  1  0.82601115  0.16621319  0.81831757  1
  O2-  O423  1  0.84044681  0.42074974  0.14663561  1
  O2-  O424  1  0.82909021  0.42016610  0.47909030  1
  O2-  O425  1  0.82384789  0.39800971  0.80125435  1
  O2-  O426  1  0.86028975  0.66662015  0.14177934  1
  O2-  O427  1  0.83259935  0.66977151  0.48412548  1
  O2-  O428  1  0.82953322  0.65940443  0.80627961  1
  O2-  O429  1  0.83006434  0.91347717  0.14825343  1
  O2-  O430  1  0.83161841  0.93006537  0.50118279  1
  O2-  O431  1  0.82344258  0.89403403  0.81037007  1
  O2-  O432  1  0.16225710  0.08417661  0.18379215  1
  O2-  O433  1  0.16733370  0.08849277  0.52100110  1
  O2-  O434  1  0.17071271  0.09180007  0.84156789  1
  O2-  O435  1  0.16066131  0.33541461  0.18237459  1
  O2-  O436  1  0.15495349  0.33093935  0.51673513  1
  O2-  O437  1  0.16795444  0.33678765  0.85299536  1
  O2-  O438  1  0.15447461  0.57099391  0.18030694  1
  O2-  O439  1  0.17905981  0.59578098  0.52301105  1
  O2-  O440  1  0.15858786  0.58183419  0.86262481  1
  O2-  O441  1  0.16620466  0.86339926  0.15761241  1
  O2-  O442  1  0.15120783  0.82036759  0.52174734  1
  O2-  O443  1  0.18486907  0.83726360  0.84876134  1
  O2-  O444  1  0.42907668  0.10705356  0.19383087  1
  O2-  O445  1  0.31574076  0.10965660  0.46505396  1
  O2-  O446  1  0.42084548  0.09591402  0.85573628  1
  O2-  O447  1  0.40459232  0.33975077  0.19134208  1
  O2-  O448  1  0.41863483  0.33259113  0.52529877  1
  O2-  O449  1  0.42723049  0.33279902  0.87055872  1
  O2-  O450  1  0.40505746  0.58449938  0.17621356  1
  O2-  O451  1  0.43809893  0.60716073  0.52570220  1
  O2-  O452  1  0.41595179  0.58201997  0.85983606  1
  O2-  O453  1  0.40849375  0.81574238  0.17964832  1
  O2-  O454  1  0.43140627  0.85327636  0.51777676  1
  O2-  O455  1  0.39940045  0.82356601  0.85761913  1
  O2-  O456  1  0.66682939  0.08027552  0.18781495  1
  O2-  O457  1  0.68181834  0.08753247  0.50792481  1
  O2-  O458  1  0.66891513  0.07463473  0.84291256  1
  O2-  O459  1  0.67557303  0.32848276  0.19141442  1
  O2-  O460  1  0.66072262  0.33694011  0.48360032  1
  O2-  O461  1  0.66441706  0.33078169  0.85289152  1
  O2-  O462  1  0.71987762  0.54625166  0.19929644  1
  O2-  O463  1  0.66835853  0.59598732  0.52359746  1
  O2-  O464  1  0.66363442  0.58344703  0.85239895  1
  O2-  O465  1  0.66377468  0.83723343  0.18728936  1
  O2-  O466  1  0.67470921  0.84142238  0.53551248  1
  O2-  O467  1  0.68000639  0.82956773  0.85244874  1
  O2-  O468  1  0.91012388  0.08136794  0.18374708  1
  O2-  O469  1  0.91068347  0.09049403  0.53318747  1
  O2-  O470  1  0.91452575  0.09259249  0.85025180  1
  O2-  O471  1  0.91490433  0.33151476  0.18780503  1
  O2-  O472  1  0.89054664  0.32955812  0.52162923  1
  O2-  O473  1  0.89894393  0.37685757  0.94413766  1
  O2-  O474  1  0.93156280  0.58395329  0.19505145  1
  O2-  O475  1  0.91700007  0.58427326  0.51960581  1
  O2-  O476  1  0.90423376  0.56452510  0.85440980  1
  O2-  O477  1  0.91955219  0.83357442  0.17847388  1
  O2-  O478  1  0.91467281  0.83530175  0.53709403  1
  O2-  O479  1  0.90489841  0.81768635  0.85415303  1
  O2-  O480  1  0.16810506  0.08520143  0.30951032  1
  O2-  O481  1  0.16332726  0.08320192  0.68696577  1
  O2-  O482  1  0.19962917  0.09196389  0.96670784  1
  O2-  O483  1  0.15842914  0.32908697  0.30637780  1
  O2-  O484  1  0.15925411  0.33849697  0.64319697  1
  O2-  O485  1  0.15679700  0.33024416  0.97811698  1
  O2-  O486  1  0.07169200  0.53231702  0.28864150  1
  O2-  O487  1  0.15596412  0.57454839  0.64414296  1
  O2-  O488  1  0.15678751  0.58425428  0.98136770  1
  O2-  O489  1  0.18255929  0.75859178  0.26548887  1
  O2-  O490  1  0.15558632  0.82696434  0.64591631  1
  O2-  O491  1  0.17486782  0.82997994  0.97703118  1
  O2-  O492  1  0.42079630  0.07408703  0.31308371  1
  O2-  O493  1  0.44433384  0.08281882  0.60689841  1
  O2-  O494  1  0.41109173  0.06399031  1.02953531  1
  O2-  O495  1  0.39735481  0.32981505  0.30730507  1
  O2-  O496  1  0.41543390  0.33422620  0.64988261  1
  O2-  O497  1  0.42708220  0.33321179  0.98978168  1
  O2-  O498  1  0.41032654  0.57609762  0.29868008  1
  O2-  O499  1  0.42571418  0.58653857  0.64487878  1
  O2-  O500  1  0.40994845  0.59020831  0.98603026  1
  O2-  O501  1  0.41808906  0.83073842  0.29637843  1
  O2-  O502  1  0.44027811  0.93317266  0.62658124  1
  O2-  O503  1  0.43008156  0.82410941  0.97392625  1
  O2-  O504  1  0.67004574  0.08142287  0.30979407  1
  O2-  O505  1  0.67325791  0.09441621  0.62487373  1
  O2-  O506  1  0.66284049  0.09308451  0.98371440  1
  O2-  O507  1  0.65730055  0.32580388  0.31498884  1
  O2-  O508  1  0.66961128  0.34482952  0.68849354  1
  O2-  O509  1  0.66292944  0.33790899  0.97914996  1
  O2-  O510  1  0.66455007  0.56819187  0.30722031  1
  O2-  O511  1  0.66567825  0.58427817  0.64553312  1
  O2-  O512  1  0.65934743  0.58586222  0.97853629  1
  O2-  O513  1  0.66036872  0.82439828  0.30544105  1
  O2-  O514  1  0.67982139  0.83952088  0.65083879  1
  O2-  O515  1  0.66964588  0.83293799  0.97324500  1
  O2-  O516  1  0.91262809  0.07455086  0.30825811  1
  O2-  O517  1  0.92273659  0.10964679  0.64714278  1
  O2-  O518  1  0.89490808  0.09247972  0.97337703  1
  O2-  O519  1  0.91071454  0.32897801  0.31022754  1
  O2-  O520  1  0.91942080  0.32164622  0.65647211  1
  O2-  O521  1  0.93245213  0.32194107  0.96492118  1
  O2-  O522  1  0.90563921  0.57578031  0.31662507  1
  O2-  O523  1  0.91820805  0.57737718  0.64287522  1
  O2-  O524  1  0.90694660  0.61530771  1.03065429  1
  O2-  O525  1  0.90863175  0.81830317  0.30123209  1
  O2-  O526  1  0.91647524  0.84024297  0.66231075  1
  O2-  O527  1  0.87998487  0.77891303  0.97599784  1
  O2-  O528  1  0.06450900  0.17512911  0.02421026  1
  O2-  O529  1  0.07874215  0.16204139  0.35007347  1
  O2-  O530  1  0.07855678  0.17726792  0.68741773  1
  O2-  O531  1  0.08463266  0.42032986  0.01484607  1
  O2-  O532  1  0.10296495  0.42858258  0.36609386  1
  O2-  O533  1  0.07624261  0.41598272  0.69194136  1
  O2-  O534  1  0.08168634  0.67051314  0.02969060  1
  O2-  O535  1  0.06536637  0.68658955  0.36235543  1
  O2-  O536  1  0.07504169  0.65950025  0.68276409  1
  O2-  O537  1  0.10894001  0.93063878  -0.00875902  1
  O2-  O538  1  0.04095749  0.94732618  0.36920086  1
  O2-  O539  1  0.07185592  0.91110253  0.68827755  1
  O2-  O540  1  0.34783955  0.16969879  0.02944601  1
  O2-  O541  1  0.33417680  0.15030679  0.35707339  1
  O2-  O542  1  0.33976186  0.14309277  0.65024431  1
  O2-  O543  1  0.33181180  0.40423590  0.00597121  1
  O2-  O544  1  0.32057571  0.41518863  0.34814425  1
  O2-  O545  1  0.33169869  0.43013356  0.68490205  1
  O2-  O546  1  0.32704881  0.66670047  0.01813314  1
  O2-  O547  1  0.42570915  0.71385664  0.36970982  1
  O2-  O548  1  0.29103401  0.58744598  0.70600511  1
  O2-  O549  1  0.33975829  0.89508893  0.01529687  1
  O2-  O550  1  0.31165906  0.90011444  0.32405735  1
  O2-  O551  1  0.30873232  0.90063551  0.71403831  1
  O2-  O552  1  0.58427848  0.17480146  0.03038225  1
  O2-  O553  1  0.58684282  0.16441228  0.35338281  1
  O2-  O554  1  0.58880349  0.16843343  0.67870983  1
  O2-  O555  1  0.59415729  0.42566409  0.02831353  1
  O2-  O556  1  0.56767196  0.40412885  0.35186836  1
  O2-  O557  1  0.57796007  0.42314614  0.69195211  1
  O2-  O558  1  0.57850960  0.67232398  0.01763518  1
  O2-  O559  1  0.56971208  0.64371479  0.33330478  1
  O2-  O560  1  0.58922604  0.67182046  0.69005226  1
  O2-  O561  1  0.59164756  0.91857726  0.01763107  1
  O2-  O562  1  0.61347465  0.91863114  0.35933853  1
  O2-  O563  1  0.62721030  0.94208131  0.68630613  1
  O2-  O564  1  0.81825243  0.17754472  0.02534031  1
  O2-  O565  1  0.83357688  0.15820896  0.35247950  1
  O2-  O566  1  0.85694680  0.21234846  0.69872870  1
  O2-  O567  1  0.82557100  0.43756168  0.02458317  1
  O2-  O568  1  0.82411722  0.40936362  0.35401030  1
  O2-  O569  1  0.84331273  0.41721993  0.68330475  1
  O2-  O570  1  0.83115583  0.68561270  -0.03065061  1
  O2-  O571  1  0.82687642  0.66042586  0.35546317  1
  O2-  O572  1  0.83595775  0.65823655  0.67875253  1
  O2-  O573  1  0.78515608  0.81515959  0.04280985  1
  O2-  O574  1  0.83018752  0.89842834  0.33427751  1
  O2-  O575  1  0.84116736  0.93151552  0.69488740  1
