# generated using pymatgen
data_H2O
_symmetry_space_group_name_H-M   'P 1'
_cell_length_a   17.97609537
_cell_length_b   17.98182086
_cell_length_c   21.98782714
_cell_angle_alpha   89.99018577
_cell_angle_beta   90.00869070
_cell_angle_gamma   120.01208957
_symmetry_Int_Tables_number   1
_chemical_formula_structural   H2O
_chemical_formula_sum   'H384 O192'
_cell_volume   6154.44718005
_cell_formula_units_Z   192
loop_
 _symmetry_equiv_pos_site_id
 _symmetry_equiv_pos_as_xyz
  1  'x, y, z'
loop_
 _atom_type_symbol
 _atom_type_oxidation_number
  H+  1.0
  O2-  -2.0
loop_
 _atom_site_type_symbol
 _atom_site_label
 _atom_site_symmetry_multiplicity
 _atom_site_fract_x
 _atom_site_fract_y
 _atom_site_fract_z
 _atom_site_occupancy
  H+  H0  1  1.02035936  0.88786445  0.15996342  1
  H+  H1  1  0.14394115  0.78520227  0.50045102  1
  H+  H2  1  0.61362319  0.58266941  -0.00334513  1
  H+  H3  1  0.39105616  0.75610812  0.32230108  1
  H+  H4  1  0.65504868  0.49411412  0.65033013  1
  H+  H5  1  0.72030152  0.85808327  0.32663872  1
  H+  H6  1  0.87768522  0.34727926  0.33039145  1
  H+  H7  1  0.47026180  0.36342135  0.17510168  1
  H+  H8  1  0.40475615  0.53105083  0.16073829  1
  H+  H9  1  0.60142180  0.41029776  0.36480875  1
  H+  H10  1  0.40489346  0.61770127  0.16877524  1
  H+  H11  1  0.50318811  0.67229083  0.68048067  1
  H+  H12  1  0.77545754  0.89274264  0.15900825  1
  H+  H13  1  0.77781643  0.88553719  0.50782088  1
  H+  H14  1  0.03763485  0.18766718  0.01916837  1
  H+  H15  1  0.72722693  0.35098993  0.67175361  1
  H+  H16  1  0.61419082  0.73335376  0.34647915  1
  H+  H17  1  0.38203486  0.54592996  0.51134558  1
  H+  H18  1  0.33059247  0.91007114  0.07097948  1
  H+  H19  1  0.00712123  0.88315505  0.82104503  1
  H+  H20  1  0.87217726  0.86051024  0.99045848  1
  H+  H21  1  0.47507819  0.63131425  0.51265365  1
  H+  H22  1  0.88114741  0.60435831  0.17197147  1
  H+  H23  1  0.37421730  0.16362368  0.34334364  1
  H+  H24  1  0.88939922  0.03121567  0.15789679  1
  H+  H25  1  0.65201491  0.37539422  0.82985726  1
  H+  H26  1  0.13690731  1.01956475  0.16529664  1
  H+  H27  1  0.88446920  0.11412661  0.49761703  1
  H+  H28  1  0.35192039  0.88936771  0.17203717  1
  H+  H29  1  0.22174805  0.11551681  0.66556543  1
  H+  H30  1  0.37165052  0.37192017  0.83967587  1
  H+  H31  1  0.96643812  0.07677052  0.98698341  1
  H+  H32  1  0.09709674  0.97355971  0.00576946  1
  H+  H33  1  0.07761568  0.67856584  0.55699799  1
  H+  H34  1  0.12393095  0.24372781  0.83912696  1
  H+  H35  1  0.61572505  0.40209041  0.46107337  1
  H+  H36  1  0.35643364  -0.02991556  1.01082218  1
  H+  H37  1  0.10783833  0.62989208  0.16266665  1
  H+  H38  1  0.61765748  0.52010971  0.30937157  1
  H+  H39  1  0.28809377  0.40556063  0.00172363  1
  H+  H40  1  0.98920552  0.60574084  0.98668712  1
  H+  H41  1  0.39043929  0.18067370  0.82198751  1
  H+  H42  1  1.10037599  0.67711783  0.72948465  1
  H+  H43  1  0.35967611  0.13772064  0.67574302  1
  H+  H44  1  0.11397211  0.22690458  0.49550757  1
  H+  H45  1  0.13014337  0.86169814  0.65161702  1
  H+  H46  1  0.89113095  0.12256982  0.15634215  1
  H+  H47  1  0.75208583  0.59605606  0.65239827  1
  H+  H48  1  0.88769475  0.27336737  -0.01204457  1
  H+  H49  1  0.47786607  0.36571864  0.37353396  1
  H+  H50  1  0.62454385  0.50003626  -0.01044922  1
  H+  H51  1  0.08956928  0.85753102  0.32886961  1
  H+  H52  1  0.14785621  0.37829797  0.66569696  1
  H+  H53  1  0.37482599  0.77682002  0.51822196  1
  H+  H54  1  0.27095846  0.39800944  0.50497823  1
  H+  H55  1  0.11393476  0.72280625  0.00969856  1
  H+  H56  1  0.55335341  0.49719581  0.49975619  1
  H+  H57  1  0.27740856  0.63141771  0.01356202  1
  H+  H58  1  0.23642197  0.59443508  0.85081055  1
  H+  H59  1  0.34414151  0.42759460  0.06227898  1
  H+  H60  1  0.71055004  0.06927971  0.53898337  1
  H+  H61  1  0.98159708  0.11849281  0.84132830  1
  H+  H62  1  0.64278945  0.35298499  0.29545697  1
  H+  H63  1  0.85426688  0.72206160  0.67050857  1
  H+  H64  1  0.38762111  0.10530682  0.51291731  1
  H+  H65  1  0.77786315  0.13275537  0.82674859  1
  H+  H66  1  0.17265649  0.34822004  0.90281142  1
  H+  H67  1  0.73044965  0.11847926  0.17131538  1
  H+  H68  1  0.28012855  0.12667501  0.50491546  1
  H+  H69  1  0.03000397  0.14163431  0.33189610  1
  H+  H70  1  0.61599810  0.88579697  0.16207791  1
  H+  H71  1  0.72226804  0.27136690  0.37487423  1
  H+  H72  1  0.03669783  0.18446733  0.69669326  1
  H+  H73  1  0.34396819  0.86688414  0.31304751  1
  H+  H74  1  0.36758893  0.77081025  0.67170141  1
  H+  H75  1  0.78229512  0.15506494  0.46759447  1
  H+  H76  1  0.88933691  0.61208240  0.66577527  1
  H+  H77  1  0.02659287  0.39199520  0.49454026  1
  H+  H78  1  0.27560758  0.27008896  0.52142969  1
  H+  H79  1  0.15601677  0.29440554  0.99615442  1
  H+  H80  1  0.74939583  0.36529758  0.82497071  1
  H+  H81  1  0.63769861  0.36024662  0.15048433  1
  H+  H82  1  0.61360621  0.48085436  0.14798318  1
  H+  H83  1  0.58854086  0.68238184  0.44696644  1
  H+  H84  1  0.02514214  0.38492774  0.00232287  1
  H+  H85  1  0.61930274  0.73408028  0.51130633  1
  H+  H86  1  0.66086248  0.58212124  0.89766103  1
  H+  H87  1  0.36447058  0.13779951  0.15329185  1
  H+  H88  1  0.27635013  0.39354537  0.15412407  1
  H+  H89  1  0.11299251  0.38617677  0.15636502  1
  H+  H90  1  0.47048633  0.84981455  0.84407445  1
  H+  H91  1  0.90251909  0.01985775  0.28619829  1
  H+  H92  1  0.14610113  0.37800700  0.99545386  1
  H+  H93  1  0.31840092  -0.11105178  0.37812359  1
  H+  H94  1  0.39789151  0.37176933  0.66505379  1
  H+  H95  1  0.85019575  0.88147566  0.67391196  1
  H+  H96  1  0.13423680  0.52089431  0.17249564  1
  H+  H97  1  0.76648398  0.37363214  0.51099225  1
  H+  H98  1  0.36657847  0.05674409  0.84312380  1
  H+  H99  1  0.10928321  0.88846809  0.50277099  1
  H+  H100  1  0.89559704  0.27767333  0.50324560  1
  H+  H101  1  0.25975222  0.88144328  0.16205273  1
  H+  H102  1  0.77483914  0.38159702  0.14119678  1
  H+  H103  1  -0.05871581  0.56657775  0.32625842  1
  H+  H104  1  0.61377867  0.20935541  0.51121449  1
  H+  H105  1  0.61969184  0.82178509  0.67008526  1
  H+  H106  1  0.36219504  0.38759995  0.15516871  1
  H+  H107  1  0.02239949  0.38917795  0.82791999  1
  H+  H108  1  0.60802600  0.21843120  0.14615533  1
  H+  H109  1  0.51757886  0.88410578  0.30651847  1
  H+  H110  1  0.47962945  0.61858041  0.35139361  1
  H+  H111  1  0.10391998  0.71700152  0.15923732  1
  H+  H112  1  0.75347479  0.65012124  0.34606775  1
  H+  H113  1  0.87423390  0.77358126  0.32699375  1
  H+  H114  1  0.57632226  0.88113608  0.47406785  1
  H+  H115  1  0.36947338  0.63862870  1.01484847  1
  H+  H116  1  0.72116697  0.86406721  0.85234882  1
  H+  H117  1  0.13249822  0.12056711  -0.01042533  1
  H+  H118  1  0.82493305  0.91571439  0.76982602  1
  H+  H119  1  0.22347638  0.60889312  0.17624687  1
  H+  H120  1  0.13544272  0.11933189  0.66726458  1
  H+  H121  1  0.63419031  0.02103628  0.99273157  1
  H+  H122  1  0.86187650  -0.02390345  0.82815914  1
  H+  H123  1  0.61863917  0.77393890  1.00154576  1
  H+  H124  1  0.47234013  0.10712446  0.66867365  1
  H+  H125  1  0.76994800  0.13392627  0.00022335  1
  H+  H126  1  0.85923344  0.13424885  1.00176160  1
  H+  H127  1  0.09187188  0.61891530  0.33599587  1
  H+  H128  1  0.91281693  0.83674257  0.23308260  1
  H+  H129  1  0.10508502  -0.02561318  0.50940511  1
  H+  H130  1  0.66133726  0.43890326  0.46399108  1
  H+  H131  1  0.83005299  0.40214373  0.76202035  1
  H+  H132  1  0.59599903  0.12304778  0.00028394  1
  H+  H133  1  0.14438129  0.28043328  0.16809176  1
  H+  H134  1  0.62821427  0.01762782  0.68894582  1
  H+  H135  1  0.37461605  0.82754977  0.84832610  1
  H+  H136  1  0.37274236  0.26836145  0.99058838  1
  H+  H137  1  0.85201248  0.46643106  0.50544965  1
  H+  H138  1  0.86420934  0.23205946  0.15467292  1
  H+  H139  1  0.09764972  -0.03066678  0.81732932  1
  H+  H140  1  0.13064246  0.36601264  0.31715161  1
  H+  H141  1  0.26187614  0.64169057  0.67287922  1
  H+  H142  1  0.10740395  0.63509003  0.50897706  1
  H+  H143  1  0.39063313  0.27877959  0.67000501  1
  H+  H144  1  0.63332853  0.61691857  0.83999489  1
  H+  H145  1  0.22133218  0.86702366  0.65741688  1
  H+  H146  1  0.47769273  0.40556703  0.36268133  1
  H+  H147  1  0.47236952  0.10847564  0.16716460  1
  H+  H148  1  0.27412700  0.13484726  0.15207420  1
  H+  H149  1  0.47206142  0.11446891  0.32352346  1
  H+  H150  1  0.88582079  0.53504365  0.26717144  1
  H+  H151  1  1.01074503  0.64810284  0.83344096  1
  H+  H152  1  0.38877323  0.69799844  0.85643158  1
  H+  H153  1  0.88245893  0.02326421  0.50204473  1
  H+  H154  1  0.97239026  0.08948680  0.64290023  1
  H+  H155  1  0.15554573  0.58268852  0.27131022  1
  H+  H156  1  0.15498031  0.29358506  0.66921995  1
  H+  H157  1  0.35936965  0.71891393  0.16546855  1
  H+  H158  1  0.24690212  0.09127445  0.32345277  1
  H+  H159  1  0.64720891  0.62093872  0.70163796  1
  H+  H160  1  1.01844461  0.38607866  0.33899525  1
  H+  H161  1  0.60509440  0.58062009  0.69539188  1
  H+  H162  1  0.35155628  0.64608748  0.67862245  1
  H+  H163  1  0.08096884  0.41510424  0.06444621  1
  H+  H164  1  0.12580763  0.85674664  1.00042751  1
  H+  H165  1  0.86501408  0.47259948  0.67362388  1
  H+  H166  1  0.12056346  0.13591712  0.15851775  1
  H+  H167  1  0.10462676  0.95083323  0.33117084  1
  H+  H168  1  0.86638988  0.72823523  0.16236924  1
  H+  H169  1  0.86145097  0.87815475  0.34393247  1
  H+  H170  1  0.36033061  0.94009438  0.83785542  1
  H+  H171  1  0.64272780  0.77580045  0.16239709  1
  H+  H172  1  0.85646182  0.36882853  0.82433790  1
  H+  H173  1  0.88978001  0.26691716  0.31877249  1
  H+  H174  1  0.63205480  0.77677447  0.85270587  1
  H+  H175  1  0.47156524  0.34968107  0.51585628  1
  H+  H176  1  0.49904208  0.62692278  -0.01288770  1
  H+  H177  1  0.63223053  0.48664978  0.82500090  1
  H+  H178  1  0.76328486  0.63477485  1.00974122  1
  H+  H179  1  0.46900915  0.95125947  0.22390557  1
  H+  H180  1  0.87236209  0.77204468  0.99314110  1
  H+  H181  1  0.66578732  0.12379150  0.33205811  1
  H+  H182  1  0.86002247  0.13148564  0.67091126  1
  H+  H183  1  0.85315999  0.72071162  0.49724633  1
  H+  H184  1  0.60270465  0.88466617  0.01065363  1
  H+  H185  1  0.53154574  0.38818400  0.67294707  1
  H+  H186  1  0.38384077  0.27396962  0.16973982  1
  H+  H187  1  0.09912220  0.96859947  0.66832814  1
  H+  H188  1  1.02611962  0.13804184  0.49260496  1
  H+  H189  1  0.27179734  0.26403532  0.48760684  1
  H+  H190  1  0.64224111  0.69046943  -0.01153676  1
  H+  H191  1  0.88400733  0.85914146  0.50879313  1
  H+  H192  1  0.61415606  0.99888288  0.52177245  1
  H+  H193  1  0.16699867  0.34009958  0.22742648  1
  H+  H194  1  0.60997525  0.13128729  0.15769632  1
  H+  H195  1  0.60292944  0.63937761  0.34703887  1
  H+  H196  1  0.13538277  0.36455217  0.50945927  1
  H+  H197  1  0.90609789  0.82948897  0.89845425  1
  H+  H198  1  0.84867106  0.62931812  0.49616977  1
  H+  H199  1  0.14379276  0.61504589  0.99523087  1
  H+  H200  1  0.75335825  0.38187663  0.97674048  1
  H+  H201  1  0.22440256  0.62327424  0.49897446  1
  H+  H202  1  0.38047863  1.01958012  0.66600598  1
  H+  H203  1  0.11584305  0.48028166  0.49020189  1
  H+  H204  1  0.12675290  0.52361150  0.32996783  1
  H+  H205  1  0.12430704  0.15394129  0.84020559  1
  H+  H206  1  0.27068765  0.40280178  0.82640331  1
  H+  H207  1  0.66359020  0.38252865  -0.02545287  1
  H+  H208  1  0.40087750  0.63305005  0.34323919  1
  H+  H209  1  0.60595992  0.12658496  0.68755484  1
  H+  H210  1  0.77594434  0.64082549  0.15943375  1
  H+  H211  1  0.96251881  0.85644906  0.65985475  1
  H+  H212  1  0.88946109  0.26915118  0.83754680  1
  H+  H213  1  0.26641341  0.13394874  0.00471830  1
  H+  H214  1  0.96051033  0.60231760  0.51228011  1
  H+  H215  1  0.54569366  0.53416489  0.27918444  1
  H+  H216  1  0.77044105  0.12949678  0.67943780  1
  H+  H217  1  0.60908108  0.22501660  0.83438355  1
  H+  H218  1  0.88691367  0.36479184  0.16556648  1
  H+  H219  1  0.48524727  0.87858489  1.00103575  1
  H+  H220  1  0.88580954  0.36023740  0.51283130  1
  H+  H221  1  0.02651026  0.38582123  0.67581529  1
  H+  H222  1  0.12770151  0.85686479  0.16704808  1
  H+  H223  1  0.64285385  0.11603939  0.84030480  1
  H+  H224  1  0.27990097  0.89037998  0.47459864  1
  H+  H225  1  0.71849930  0.89067762  0.66976405  1
  H+  H226  1  0.37537708  0.10327819  -0.00823424  1
  H+  H227  1  0.88785484  0.27014413  0.66245930  1
  H+  H228  1  0.24928861  0.10688742  0.84492970  1
  H+  H229  1  0.89209018  0.36542107  -0.01411344  1
  H+  H230  1  0.96751459  0.60026977  0.17265550  1
  H+  H231  1  0.49717498  0.88491328  0.50486090  1
  H+  H232  1  0.36321854  0.88494743  0.48019269  1
  H+  H233  1  0.18082730  0.07333482  0.22476076  1
  H+  H234  1  0.97158643  0.85618125  0.51502734  1
  H+  H235  1  0.13408589  0.36915488  0.84246210  1
  H+  H236  1  0.50187894  0.35854827  0.99912218  1
  H+  H237  1  0.85747567  0.97339476  0.67128932  1
  H+  H238  1  0.39840239  0.33523300  0.89809280  1
  H+  H239  1  0.51362228  0.64705555  0.83473011  1
  H+  H240  1  0.78088450  0.12547821  0.33028604  1
  H+  H241  1  0.59828431  0.69198952  0.68119630  1
  H+  H242  1  0.87190971  0.12856175  0.32488164  1
  H+  H243  1  0.35794065  0.24799234  0.82791448  1
  H+  H244  1  0.62148910  0.33225335  0.52865276  1
  H+  H245  1  0.35102288  0.88508329  0.67740420  1
  H+  H246  1  0.77477800  0.63990944  0.82415050  1
  H+  H247  1  0.88665706  0.86706517  0.17214526  1
  H+  H248  1  0.08542199  0.42104061  0.73559710  1
  H+  H249  1  0.11418628  0.47798807  0.83069227  1
  H+  H250  1  0.53237947  0.89538074  0.17156104  1
  H+  H251  1  0.48552170  0.10779251  0.51396419  1
  H+  H252  1  0.82366822  0.90465480  0.44163484  1
  H+  H253  1  0.53875110  0.64628987  0.14451586  1
  H+  H254  1  0.34815800  0.69890201  0.43312667  1
  H+  H255  1  0.21469249  0.85764732  1.00055368  1
  H+  H256  1  0.36328760  0.50125369  0.35263272  1
  H+  H257  1  0.61058157  0.11906904  0.50739873  1
  H+  H258  1  0.32845057  0.26617291  0.33302860  1
  H+  H259  1  0.60558714  0.96244557  0.33117032  1
  H+  H260  1  1.03203154  0.13889653  0.15399882  1
  H+  H261  1  0.87638567  0.86064462  0.83954680  1
  H+  H262  1  0.91785819  0.63840185  0.83335774  1
  H+  H263  1  0.40668441  0.53685302  0.99035085  1
  H+  H264  1  0.14432615  0.11756019  0.50735339  1
  H+  H265  1  0.52298816  0.13072291  0.83968916  1
  H+  H266  1  0.17023667  0.75196278  0.81521906  1
  H+  H267  1  0.38530495  0.87453550  -0.00089645  1
  H+  H268  1  0.63550164  0.26003298  0.67715959  1
  H+  H269  1  0.64461252  0.02682743  0.17397284  1
  H+  H270  1  0.38346112  0.36441975  -0.00621292  1
  H+  H271  1  0.84400490  -0.03175557  1.00127493  1
  H+  H272  1  0.88225447  0.48193198  -0.00993593  1
  H+  H273  1  0.71372438  0.61023390  0.50418905  1
  H+  H274  1  0.02256223  0.38524487  0.15764908  1
  H+  H275  1  0.39077765  0.53950963  0.66336161  1
  H+  H276  1  0.31769181  0.90991065  0.73567460  1
  H+  H277  1  0.13201908  0.52329698  0.65707744  1
  H+  H278  1  0.64176819  0.62316258  0.15408278  1
  H+  H279  1  0.33220720  0.16627724  0.40651794  1
  H+  H280  1  0.90264579  0.82544378  0.60088347  1
  H+  H281  1  0.13975031  0.52401778  0.99443356  1
  H+  H282  1  0.37255835  0.42537594  0.49960758  1
  H+  H283  1  0.28814405  0.40341034  0.67251320  1
  H+  H284  1  0.88935586  0.11292442  0.83878366  1
  H+  H285  1  0.13357714  0.27877486  0.31660833  1
  H+  H286  1  0.86359829  0.96622042  0.36270867  1
  H+  H287  1  0.61499830  0.37475772  0.67613399  1
  H+  H288  1  0.20389952  0.83283490  0.31626271  1
  H+  H289  1  0.17883903  0.84446152  0.55802435  1
  H+  H290  1  0.66551728  0.07721947  0.93142988  1
  H+  H291  1  0.33261941  0.17231995  0.73418174  1
  H+  H292  1  0.23630487  0.01082044  0.28830237  1
  H+  H293  1  0.14499898  0.65300894  0.82131079  1
  H+  H294  1  0.91625033  0.33037544  0.89654940  1
  H+  H295  1  0.83131220  0.17219399  0.09454741  1
  H+  H296  1  0.16673789  0.08240120  0.93638067  1
  H+  H297  1  0.82623515  0.67195184  0.06695613  1
  H+  H298  1  0.36389809  0.65528216  0.49153615  1
  H+  H299  1  0.35792063  0.49268845  0.82927544  1
  H+  H300  1  0.75365695  0.88121476  0.00831930  1
  H+  H301  1  0.60394275  0.42790815  0.76533222  1
  H+  H302  1  0.20765546  0.01422360  0.87396370  1
  H+  H303  1  0.70046063  0.47297584  0.36076406  1
  H+  H304  1  0.83819936  0.16188811  0.76770431  1
  H+  H305  1  0.07961922  0.41467783  0.39804405  1
  H+  H306  1  0.97889064  0.61331539  0.66440872  1
  H+  H307  1  0.45460769  0.86089028  0.68151402  1
  H+  H308  1  0.57370103  0.41192698  0.09390677  1
  H+  H309  1  0.42127875  0.83871155  0.93700753  1
  H+  H310  1  0.40299813  0.83555553  0.57947441  1
  H+  H311  1  0.37915792  0.02317348  0.17273257  1
  H+  H312  1  0.84373652  0.42020389  0.05063343  1
  H+  H313  1  0.32331856  0.38662182  0.34229965  1
  H+  H314  1  0.46432015  0.09940435  0.99476151  1
  H+  H315  1  0.41202170  0.60173465  0.60517372  1
  H+  H316  1  0.65523499  0.58644433  0.21614534  1
  H+  H317  1  0.55646707  0.31847452  0.02412714  1
  H+  H318  1  0.68212463  0.56556707  0.58970924  1
  H+  H319  1  0.08419576  0.17320137  0.39297932  1
  H+  H320  1  0.90908042  0.07933034  0.59029005  1
  H+  H321  1  0.66126375  0.31251293  0.58689810  1
  H+  H322  1  0.90336501  0.57439771  0.57087284  1
  H+  H323  1  0.65348089  0.83519777  0.94170185  1
  H+  H324  1  0.17146400  0.58047255  0.90365015  1
  H+  H325  1  0.93840045  0.58529402  0.92354288  1
  H+  H326  1  0.16826971  0.58553634  0.56040775  1
  H+  H327  1  0.11598739  0.73126460  0.66836291  1
  H+  H328  1  0.57672977  0.91861166  0.07083343  1
  H+  H329  1  0.91657310  0.07808052  0.92774633  1
  H+  H330  1  0.40566458  0.05748374  0.90857267  1
  H+  H331  1  0.15152480  0.82035017  0.22676094  1
  H+  H332  1  0.56918042  0.68684527  0.77565394  1
  H+  H333  1  0.16601123  0.33771674  0.57043426  1
  H+  H334  1  0.82358839  0.39318265  0.41379188  1
  H+  H335  1  0.66608699  0.82625813  0.22669972  1
  H+  H336  1  0.08348924  0.65829529  0.06684110  1
  H+  H337  1  0.13046971  0.61201480  0.65536520  1
  H+  H338  1  0.41514420  0.59925795  0.91150014  1
  H+  H339  1  0.83418423  0.43251745  0.34643282  1
  H+  H340  1  0.05749374  0.65351774  0.39058117  1
  H+  H341  1  0.86022123  0.73064285  0.82181908  1
  H+  H342  1  0.64936043  0.06046505  0.62278564  1
  H+  H343  1  0.35193737  0.31926221  0.27097870  1
  H+  H344  1  0.81486504  0.66720368  0.40197443  1
  H+  H345  1  0.68507956  0.34655982  0.89282792  1
  H+  H346  1  0.64161899  0.26563655  0.30549552  1
  H+  H347  1  0.37840674  0.20791885  0.50808875  1
  H+  H348  1  0.32192832  0.43089069  0.41181905  1
  H+  H349  1  0.46264778  0.77911278  0.36848073  1
  H+  H350  1  0.82657638  0.66396066  0.73221988  1
  H+  H351  1  0.09794555  0.18614462  0.74755699  1
  H+  H352  1  0.63792412  0.02676251  0.83202021  1
  H+  H353  1  0.16811499  0.09014612  0.57025220  1
  H+  H354  1  0.96915895  0.85824942  0.32499662  1
  H+  H355  1  0.72573476  0.79071473  0.57204275  1
  H+  H356  1  0.57438225  0.15829035  0.74477687  1
  H+  H357  1  0.06763626  0.90738484  0.72618700  1
  H+  H358  1  0.33266136  0.66106308  0.10530727  1
  H+  H359  1  0.42532472  0.10990011  0.26137826  1
  H+  H360  1  0.92877704  0.09613671  0.24302414  1
  H+  H361  1  0.49655375  0.44898785  0.44270998  1
  H+  H362  1  0.63876840  0.19805135  0.40911537  1
  H+  H363  1  0.67843508  0.84219590  0.58985824  1
  H+  H364  1  0.67328352  0.08474129  0.26805749  1
  H+  H365  1  0.42274816  0.08022392  0.57842160  1
  H+  H366  1  0.86764600  0.38393153  0.67097663  1
  H+  H367  1  0.62968582  0.85599599  0.31770260  1
  H+  H368  1  0.10958694  0.74726213  0.31447201  1
  H+  H369  1  0.63320112  0.62419150  0.51720496  1
  H+  H370  1  0.91353706  0.33546644  0.22776127  1
  H+  H371  1  0.07352869  0.91341364  0.09751492  1
  H+  H372  1  0.56531696  0.14572433  0.06172731  1
  H+  H373  1  0.92065912  0.32925568  0.60279956  1
  H+  H374  1  0.59962816  0.67741651  0.08390130  1
  H+  H375  1  0.84862916  0.17041331  0.41616947  1
  H+  H376  1  0.09493151  0.17936525  0.07067990  1
  H+  H377  1  0.00775469  0.88425061  0.00400411  1
  H+  H378  1  0.33168783  0.16528553  0.06097891  1
  H+  H379  1  0.82937209  0.91765382  0.09766826  1
  H+  H380  1  0.86163636  0.47187800  0.14895797  1
  H+  H381  1  0.44274550  0.31013460  0.58040968  1
  H+  H382  1  0.34435084  0.43394776  0.73259078  1
  H+  H383  1  0.65827398  0.31747340  0.20548130  1
  O2-  O384  1  0.09379787  0.16887614  0.14156284  1
  O2-  O385  1  0.08677435  0.16742323  0.47894714  1
  O2-  O386  1  0.09433481  0.18169001  0.82308328  1
  O2-  O387  1  0.08223636  0.41634582  0.14096730  1
  O2-  O388  1  0.08626727  0.41838465  0.47828438  1
  O2-  O389  1  0.08330062  0.41781833  0.81345404  1
  O2-  O390  1  0.07359182  0.65555574  0.14631189  1
  O2-  O391  1  0.07317315  0.66576381  0.51353179  1
  O2-  O392  1  0.12555822  0.69106651  0.80362031  1
  O2-  O393  1  0.08004222  0.91622214  0.14299833  1
  O2-  O394  1  0.06954363  0.91178723  0.50262715  1
  O2-  O395  1  0.06361126  0.91215711  0.79943241  1
  O2-  O396  1  0.33487318  0.16845514  0.13709580  1
  O2-  O397  1  0.34068819  0.14898303  0.49004153  1
  O2-  O398  1  0.33989533  0.18505067  0.81184854  1
  O2-  O399  1  0.33638785  0.42086123  0.13767507  1
  O2-  O400  1  0.32881312  0.43945858  0.48634764  1
  O2-  O401  1  0.33123005  0.43399396  0.81138277  1
  O2-  O402  1  0.33121365  0.65939928  0.15199640  1
  O2-  O403  1  0.33140585  0.68336202  0.47623088  1
  O2-  O404  1  0.35423144  0.63567533  0.84676721  1
  O2-  O405  1  0.32232505  0.91441476  0.14915367  1
  O2-  O406  1  0.33574726  0.90918151  0.45438668  1
  O2-  O407  1  0.32915144  0.88365073  0.81637518  1
  O2-  O408  1  0.57469225  0.15453047  0.13986540  1
  O2-  O409  1  0.58412731  0.15194467  0.49056615  1
  O2-  O410  1  0.58133621  0.16368012  0.82167448  1
  O2-  O411  1  0.58088360  0.41791989  0.13865363  1
  O2-  O412  1  0.49472433  0.45208597  0.48700533  1
  O2-  O413  1  0.61149916  0.42715109  0.80979159  1
  O2-  O414  1  0.60072876  0.67951755  0.13071342  1
  O2-  O415  1  0.58245127  0.67636745  0.49229761  1
  O2-  O416  1  0.57335910  0.67289431  0.81882596  1
  O2-  O417  1  0.58743006  0.91929385  0.14909864  1
  O2-  O418  1  0.55588450  0.92023356  0.48485401  1
  O2-  O419  1  0.55692698  0.92716142  0.79265960  1
  O2-  O420  1  0.83348901  0.17074128  0.13997389  1
  O2-  O421  1  0.84311100  0.17443799  0.46208761  1
  O2-  O422  1  0.83938474  0.16247649  0.81319925  1
  O2-  O423  1  0.83730285  0.41291017  0.13055700  1
  O2-  O424  1  0.82534862  0.40435377  0.49349219  1
  O2-  O425  1  0.82274957  0.39561177  0.80746861  1
  O2-  O426  1  0.83756209  0.66796569  0.14713141  1
  O2-  O427  1  0.81838073  0.65986468  0.48197201  1
  O2-  O428  1  0.83263990  0.67065718  0.80493294  1
  O2-  O429  1  0.83582240  0.92382838  0.14299974  1
  O2-  O430  1  0.83406885  0.91794196  0.48598598  1
  O2-  O431  1  0.82686991  0.91520037  0.81514637  1
  O2-  O432  1  0.17081621  0.08028552  0.18105306  1
  O2-  O433  1  0.17434665  0.08861114  0.52532211  1
  O2-  O434  1  0.19571097  0.06052134  0.86504607  1
  O2-  O435  1  0.17135381  0.34138145  0.18059441  1
  O2-  O436  1  0.16702531  0.33568465  0.52505277  1
  O2-  O437  1  0.16791964  0.34165620  0.85723557  1
  O2-  O438  1  0.16213291  0.58036670  0.18937916  1
  O2-  O439  1  0.16454256  0.58742288  0.51486715  1
  O2-  O440  1  0.17566956  0.57729409  0.85793172  1
  O2-  O441  1  0.15778412  0.82580169  0.18088665  1
  O2-  O442  1  0.17795803  0.84604973  0.51256561  1
  O2-  O443  1  0.24034625  0.85382416  0.83373348  1
  O2-  O444  1  0.41296022  0.08514147  0.18419200  1
  O2-  O445  1  0.42440642  0.08024094  0.53136717  1
  O2-  O446  1  0.41235241  0.05155194  0.86272060  1
  O2-  O447  1  0.40899523  0.33262524  0.18766397  1
  O2-  O448  1  0.45815718  0.29767173  0.53970927  1
  O2-  O449  1  0.39278506  0.33273827  0.85295918  1
  O2-  O450  1  0.44137094  0.59137906  0.17437169  1
  O2-  O451  1  0.41395810  0.60656527  0.52581496  1
  O2-  O452  1  0.40803764  0.59812013  0.86269739  1
  O2-  O453  1  0.44173242  0.89037751  0.21289330  1
  O2-  O454  1  0.40543162  0.83690440  0.53402397  1
  O2-  O455  1  0.41698178  0.81369957  0.86753358  1
  O2-  O456  1  0.67115960  0.08720528  0.18899322  1
  O2-  O457  1  0.65171713  0.05737409  0.54351659  1
  O2-  O458  1  0.67295967  0.08392603  0.85138000  1
  O2-  O459  1  0.66614408  0.32621603  0.16009696  1
  O2-  O460  1  0.65951084  0.31047831  0.54060348  1
  O2-  O461  1  0.67755737  0.33780097  0.84488209  1
  O2-  O462  1  0.66659203  0.58783973  0.17220360  1
  O2-  O463  1  0.65587435  0.58395426  0.52490016  1
  O2-  O464  1  0.66656395  0.58896852  0.85265825  1
  O2-  O465  1  0.66966783  0.83482909  0.18183301  1
  O2-  O466  1  0.69571534  0.81712850  0.55271590  1
  O2-  O467  1  0.66323791  0.83516504  0.87090342  1
  O2-  O468  1  0.92400249  0.09357125  0.16964123  1
  O2-  O469  1  0.91251064  0.08437751  0.51693000  1
  O2-  O470  1  0.92087651  0.08348847  0.85461116  1
  O2-  O471  1  0.91572312  0.33352840  0.18244113  1
  O2-  O472  1  0.92172054  0.33384357  0.52429195  1
  O2-  O473  1  0.91533381  0.33038731  0.85051739  1
  O2-  O474  1  0.90559616  0.56765993  0.18475657  1
  O2-  O475  1  0.89914581  0.57166244  0.52538029  1
  O2-  O476  1  0.95103451  0.61185759  0.84761919  1
  O2-  O477  1  0.91653856  0.83675730  0.18763816  1
  O2-  O478  1  0.90702226  0.82279668  0.52470602  1
  O2-  O479  1  0.90717947  0.82990168  0.85275294  1
  O2-  O480  1  0.20697972  0.04325193  0.29584366  1
  O2-  O481  1  0.16121183  0.08660014  0.65043330  1
  O2-  O482  1  0.15908670  0.08503263  0.98100543  1
  O2-  O483  1  0.15847871  0.33661921  0.29748305  1
  O2-  O484  1  0.18085164  0.35073889  0.64951198  1
  O2-  O485  1  0.18164518  0.35305387  0.97878852  1
  O2-  O486  1  0.15105947  0.58427834  0.31627187  1
  O2-  O487  1  0.15947540  0.58146147  0.63804208  1
  O2-  O488  1  0.17368210  0.58411462  0.97920789  1
  O2-  O489  1  0.14270367  0.80812990  0.30047730  1
  O2-  O490  1  0.16391267  0.83471296  0.63703501  1
  O2-  O491  1  0.15420333  0.82418986  0.98793511  1
  O2-  O492  1  0.43045203  0.12693464  0.30500284  1
  O2-  O493  1  0.41408938  0.08005475  0.64918219  1
  O2-  O494  1  0.40183249  0.06814876  0.97928737  1
  O2-  O495  1  0.32819312  0.31506074  0.31193847  1
  O2-  O496  1  0.42721857  0.33858371  0.65444094  1
  O2-  O497  1  0.40768939  0.32915936  0.97597494  1
  O2-  O498  1  0.41846203  0.58915018  0.33776921  1
  O2-  O499  1  0.41217008  0.60031694  0.65054991  1
  O2-  O500  1  0.43441927  0.59706865  0.97487399  1
  O2-  O501  1  0.42292749  0.84946186  0.27484014  1
  O2-  O502  1  0.40067664  0.83411107  0.65791924  1
  O2-  O503  1  0.42327413  0.84960736  0.98289103  1
  O2-  O504  1  0.67744052  0.08034810  0.31326404  1
  O2-  O505  1  0.65973330  0.07356602  0.66710107  1
  O2-  O506  1  0.66592515  0.08095848  0.97668913  1
  O2-  O507  1  0.62746266  0.29799950  0.27610104  1
  O2-  O508  1  0.66504570  0.31998338  0.65960160  1
  O2-  O509  1  0.69385662  0.35489859  0.95732004  1
  O2-  O510  1  0.60509080  0.56466527  0.29351192  1
  O2-  O511  1  0.70384529  0.54636028  0.62604724  1
  O2-  O512  1  0.64896917  0.56017453  0.97754925  1
  O2-  O513  1  0.66222747  0.82459456  0.30850861  1
  O2-  O514  1  0.66337163  0.87426873  0.64862511  1
  O2-  O515  1  0.64948990  0.83617019  0.98829846  1
  O2-  O516  1  0.92444087  0.08153756  0.28808769  1
  O2-  O517  1  0.91361931  0.07714207  0.63636205  1
  O2-  O518  1  0.91335700  0.07443514  0.97397793  1
  O2-  O519  1  0.91377571  0.32845618  0.30792502  1
  O2-  O520  1  0.91988883  0.33099148  0.64831206  1
  O2-  O521  1  0.92189318  0.33286913  0.97170621  1
  O2-  O522  1  0.88214042  0.52639702  0.31181788  1
  O2-  O523  1  0.91770302  0.58048994  0.64992522  1
  O2-  O524  1  0.93117879  0.57237485  0.96804521  1
  O2-  O525  1  0.90594971  0.83442299  0.31210567  1
  O2-  O526  1  0.90046228  0.82574563  0.64675261  1
  O2-  O527  1  0.90492375  0.83275963  0.97596972  1
  O2-  O528  1  0.09063729  0.18582663  0.02449254  1
  O2-  O529  1  0.08831500  0.17714131  0.34814696  1
  O2-  O530  1  0.09213404  0.18767623  0.70194154  1
  O2-  O531  1  0.08511293  0.41599218  0.01872883  1
  O2-  O532  1  0.07938946  0.41755621  0.35284805  1
  O2-  O533  1  0.08731122  0.41993199  0.68992404  1
  O2-  O534  1  0.09004650  0.66084406  0.02170180  1
  O2-  O535  1  0.05309912  0.64448921  0.34680788  1
  O2-  O536  1  0.08699412  0.67105562  0.68438034  1
  O2-  O537  1  0.06780488  0.91362418  0.02082336  1
  O2-  O538  1  0.06322133  0.89173962  0.34373752  1
  O2-  O539  1  0.06888459  0.90718461  0.67995397  1
  O2-  O540  1  0.32879270  0.16389073  0.01510374  1
  O2-  O541  1  0.32967457  0.17440494  0.36214933  1
  O2-  O542  1  0.33034650  0.16963815  0.68868275  1
  O2-  O543  1  0.34843169  0.42982995  0.01641740  1
  O2-  O544  1  0.32138891  0.43632616  0.36605729  1
  O2-  O545  1  0.34892013  0.43267864  0.68725463  1
  O2-  O546  1  0.33449934  0.66052842  0.03394160  1
  O2-  O547  1  0.40460480  0.73246047  0.35886516  1
  O2-  O548  1  0.31982380  0.67542708  0.69133160  1
  O2-  O549  1  0.33251576  0.90932951  0.02540379  1
  O2-  O550  1  0.30340695  0.88078680  0.33392173  1
  O2-  O551  1  0.32221789  0.91855725  0.69096560  1
  O2-  O552  1  0.55921696  0.14497635  0.01660596  1
  O2-  O553  1  0.66924094  0.21432589  0.36974441  1
  O2-  O554  1  0.57532106  0.15829954  0.69907203  1
  O2-  O555  1  0.56090979  0.37401099  0.01615387  1
  O2-  O556  1  0.64750331  0.44786733  0.33698762  1
  O2-  O557  1  0.59453388  0.41679714  0.68375879  1
  O2-  O558  1  0.59038002  0.66846573  0.01302445  1
  O2-  O559  1  0.58679030  0.67693522  0.36951416  1
  O2-  O560  1  0.56204745  0.71296923  0.69807226  1
  O2-  O561  1  0.57432760  0.91871914  0.02530484  1
  O2-  O562  1  0.57048235  0.89910548  0.33208901  1
  O2-  O563  1  0.55442066  0.92278291  0.73329900  1
  O2-  O564  1  0.83099241  0.16636955  0.01543589  1
  O2-  O565  1  0.84326352  0.15833148  0.34324957  1
  O2-  O566  1  0.83337403  0.16291310  0.68909589  1
  O2-  O567  1  0.84571127  0.41853517  0.00531508  1
  O2-  O568  1  0.81269565  0.37692381  0.37007037  1
  O2-  O569  1  0.83447750  0.41109287  0.68697130  1
  O2-  O570  1  0.82149052  0.67809772  0.02242643  1
  O2-  O571  1  0.81326964  0.67251854  0.35691529  1
  O2-  O572  1  0.82825587  0.66112073  0.68570920  1
  O2-  O573  1  0.81620301  0.91034261  0.02002624  1
  O2-  O574  1  0.82669219  0.90403638  0.36333324  1
  O2-  O575  1  0.82420369  0.91558020  0.68991652  1
