# generated using pymatgen
data_H2O
_symmetry_space_group_name_H-M   'P 1'
_cell_length_a   17.99129666
_cell_length_b   17.98987772
_cell_length_c   21.99934835
_cell_angle_alpha   89.99995561
_cell_angle_beta   90.01245268
_cell_angle_gamma   119.99558987
_symmetry_Int_Tables_number   1
_chemical_formula_structural   H2O
_chemical_formula_sum   'H384 O192'
_cell_volume   6166.66574534
_cell_formula_units_Z   192
loop_
 _symmetry_equiv_pos_site_id
 _symmetry_equiv_pos_as_xyz
  1  'x, y, z'
loop_
 _atom_type_symbol
 _atom_type_oxidation_number
  H+  1.0
  O2-  -2.0
loop_
 _atom_site_type_symbol
 _atom_site_label
 _atom_site_symmetry_multiplicity
 _atom_site_fract_x
 _atom_site_fract_y
 _atom_site_fract_z
 _atom_site_occupancy
  H+  H0  1  0.37181899  1.01664345  0.32156360  1
  H+  H1  1  0.85199389  0.38073838  0.81441123  1
  H+  H2  1  0.11046546  0.64774801  0.00633023  1
  H+  H3  1  0.11797360  0.13443570  0.00552172  1
  H+  H4  1  1.01093138  0.87881519  0.84275412  1
  H+  H5  1  0.38781345  0.50263765  0.83187114  1
  H+  H6  1  0.70630729  0.60331361  0.31980001  1
  H+  H7  1  0.14514435  0.02495603  0.99731094  1
  H+  H8  1  0.64342178  0.84097121  0.83865572  1
  H+  H9  1  0.50767775  0.38063980  0.18437328  1
  H+  H10  1  0.52107867  0.38236144  0.33913048  1
  H+  H11  1  0.63196652  0.11104536  0.83694470  1
  H+  H12  1  0.51688907  0.11708003  0.15303651  1
  H+  H13  1  0.36870667  0.47815152  0.32689030  1
  H+  H14  1  0.61679848  0.26440456  0.66013566  1
  H+  H15  1  0.58099922  0.89605971  0.03638591  1
  H+  H16  1  0.59380325  0.44718082  0.80641342  1
  H+  H17  1  0.85672916  0.11902482  0.00332721  1
  H+  H18  1  0.36997533  0.54458909  0.98948849  1
  H+  H19  1  0.74378012  0.82471672  0.97797051  1
  H+  H20  1  0.21782943  0.86274829  0.50210006  1
  H+  H21  1  0.35689968  0.12997834  0.66122796  1
  H+  H22  1  0.98137669  0.86704127  0.50475187  1
  H+  H23  1  0.79688916  0.63563042  0.39187739  1
  H+  H24  1  0.70706598  0.10044558  0.66132923  1
  H+  H25  1  0.11720974  0.22370714  1.00091312  1
  H+  H26  1  0.88651896  0.20749288  0.14733567  1
  H+  H27  1  0.97956838  0.89570877  0.18792330  1
  H+  H28  1  0.52523917  0.61957817  0.80901634  1
  H+  H29  1  0.50252076  0.90296725  0.00990897  1
  H+  H30  1  0.62926520  0.77843566  0.31940269  1
  H+  H31  1  0.26732868  0.13214439  0.66173307  1
  H+  H32  1  0.13373881  0.89791254  0.34581966  1
  H+  H33  1  0.87152805  0.84657371  0.33960253  1
  H+  H34  1  0.51906124  0.63496761  0.01054199  1
  H+  H35  1  0.13208411  0.98412529  0.82887469  1
  H+  H36  1  0.09836856  0.91514977  0.73540064  1
  H+  H37  1  0.47241723  0.85986318  0.65738020  1
  H+  H38  1  0.66819801  0.32867977  0.43199060  1
  H+  H39  1  0.12896480  0.11903565  0.50571342  1
  H+  H40  1  0.70494757  0.11528220  0.32392353  1
  H+  H41  1  0.56905472  0.90916994  0.43043530  1
  H+  H42  1  0.46207211  0.10682626  0.32014367  1
  H+  H43  1  0.86318615  0.31353907  0.18050951  1
  H+  H44  1  0.02923928  0.63691447  0.50101733  1
  H+  H45  1  0.37611221  0.79157655  1.00651091  1
  H+  H46  1  0.37796871  1.00833461  0.16301351  1
  H+  H47  1  0.76481621  0.11855738  0.00604735  1
  H+  H48  1  0.62829532  1.02562843  -0.00556910  1
  H+  H49  1  0.62683655  0.77554687  0.49912805  1
  H+  H50  1  0.37302579  -0.02607910  0.83407772  1
  H+  H51  1  0.82018190  0.92447477  0.74490509  1
  H+  H52  1  0.88620929  0.85568157  0.51012311  1
  H+  H53  1  0.35853040  0.23618510  0.83180312  1
  H+  H54  1  0.51537417  0.64524757  0.48403108  1
  H+  H55  1  0.39240077  0.77361306  0.84665176  1
  H+  H56  1  0.10205326  0.23463132  0.49458822  1
  H+  H57  1  0.17957271  0.56186444  0.98799883  1
  H+  H58  1  0.88603259  0.53068618  0.32526457  1
  H+  H59  1  0.92202546  0.33015820  0.75922067  1
  H+  H60  1  0.34358952  0.97045834  0.48944153  1
  H+  H61  1  0.90624938  0.75180699  0.65761619  1
  H+  H62  1  0.11453490  0.22850728  0.33665755  1
  H+  H63  1  0.60737196  0.88192801  0.48902855  1
  H+  H64  1  0.74944173  0.37925174  0.66763106  1
  H+  H65  1  0.85611690  0.50859584  0.16473003  1
  H+  H66  1  0.48799879  0.37728776  0.50230540  1
  H+  H67  1  0.90887621  0.32330273  0.55389824  1
  H+  H68  1  0.87841953  0.88029481  0.00747023  1
  H+  H69  1  0.27573689  0.14196993  1.00588199  1
  H+  H70  1  0.79419295  0.67734340  0.87227120  1
  H+  H71  1  0.84124577  0.15634405  0.45495347  1
  H+  H72  1  0.44865124  0.66133032  0.25912099  1
  H+  H73  1  0.36112110  0.65809330  0.03874672  1
  H+  H74  1  0.59586683  0.97433865  0.33967132  1
  H+  H75  1  0.36283719  0.37179435  0.48601691  1
  H+  H76  1  0.38285798  0.51799874  0.50340715  1
  H+  H77  1  0.88548640  0.52146801  0.51521534  1
  H+  H78  1  0.89686624  0.61746368  0.51569093  1
  H+  H79  1  0.24412482  0.65510026  1.00451571  1
  H+  H80  1  0.70878454  0.60971632  0.17323904  1
  H+  H81  1  0.21943335  0.62261215  0.31699141  1
  H+  H82  1  0.35432812  0.88715557  0.33329109  1
  H+  H83  1  0.61732944  0.70694513  0.81201224  1
  H+  H84  1  0.13371188  0.36805820  0.17458319  1
  H+  H85  1  0.88606226  0.03190655  0.67268207  1
  H+  H86  1  0.59833519  0.88699151  0.33936996  1
  H+  H87  1  0.57943965  0.60685746  0.16184107  1
  H+  H88  1  0.43886088  0.56807743  0.88539161  1
  H+  H89  1  0.22150035  0.36201907  0.50903460  1
  H+  H90  1  0.22835342  0.36826950  0.32185752  1
  H+  H91  1  0.11528947  0.65298806  0.83427758  1
  H+  H92  1  0.10772995  0.72550670  0.15905842  1
  H+  H93  1  0.32050132  0.88210900  -0.00741217  1
  H+  H94  1  0.60493483  0.47665194  0.33444530  1
  H+  H95  1  0.13890742  0.27533224  0.66097273  1
  H+  H96  1  0.26707526  0.39826284  -0.01023310  1
  H+  H97  1  0.47512987  0.11731681  0.98911159  1
  H+  H98  1  0.51904074  0.64094533  0.32290481  1
  H+  H99  1  -0.00725507  0.09989414  0.31486969  1
  H+  H100  1  0.21839369  0.12204130  0.51848493  1
  H+  H101  1  1.11241154  0.72987218  0.49652042  1
  H+  H102  1  0.62511135  0.58553820  0.78260630  1
  H+  H103  1  0.86798824  0.39389556  0.49231197  1
  H+  H104  1  0.17514425  0.08971513  0.26136046  1
  H+  H105  1  0.60525992  0.63794754  0.32874403  1
  H+  H106  1  0.14333217  0.11141266  0.84005815  1
  H+  H107  1  0.61708821  0.24089553  1.00526713  1
  H+  H108  1  0.23726643  0.11076161  0.17067567  1
  H+  H109  1  0.15243187  0.87098000  0.65988698  1
  H+  H110  1  0.87470196  0.60345067  0.84327339  1
  H+  H111  1  1.02493663  0.64626635  0.84211433  1
  H+  H112  1  0.77632331  0.39077061  0.48534951  1
  H+  H113  1  0.85458523  0.59307282  0.66154819  1
  H+  H114  1  0.46292834  0.86130019  0.32124747  1
  H+  H115  1  1.02958423  0.39402886  0.33264397  1
  H+  H116  1  0.38415266  0.76863934  0.65634188  1
  H+  H117  1  0.92202457  0.07726650  0.57873806  1
  H+  H118  1  0.59726548  0.21801692  0.48164691  1
  H+  H119  1  0.38953821  0.77973807  0.16007201  1
  H+  H120  1  0.58990416  0.09081066  0.51331077  1
  H+  H121  1  0.53763175  -0.11800086  0.17905711  1
  H+  H122  1  0.09296212  0.92364759  0.43676798  1
  H+  H123  1  0.97901831  0.37643148  0.68553416  1
  H+  H124  1  0.91014253  0.29066700  0.48668024  1
  H+  H125  1  0.63764302  0.36600015  0.48354652  1
  H+  H126  1  0.18756886  0.61139396  0.89622323  1
  H+  H127  1  0.35471805  0.63639465  0.32517738  1
  H+  H128  1  0.27545214  0.63948284  0.48881610  1
  H+  H129  1  0.89017926  0.74024879  0.49473380  1
  H+  H130  1  0.27907536  0.64200288  0.67105351  1
  H+  H131  1  0.59394339  0.00361844  0.51445655  1
  H+  H132  1  0.89832302  0.30219082  0.31141406  1
  H+  H133  1  0.86845489  0.08876045  0.52828998  1
  H+  H134  1  0.72583495  0.36408130  0.34536146  1
  H+  H135  1  0.83641867  0.16216273  0.28620110  1
  H+  H136  1  0.59643633  -0.03058603  0.67734273  1
  H+  H137  1  0.13109846  0.77227468  0.32495420  1
  H+  H138  1  0.35821422  0.12146083  0.15504474  1
  H+  H139  1  0.60657180  0.11814323  0.15470573  1
  H+  H140  1  0.90565429  0.77377098  0.00044422  1
  H+  H141  1  0.52114352  0.37488450  1.01644472  1
  H+  H142  1  0.78073647  0.63763010  0.01641174  1
  H+  H143  1  0.70260213  0.40745141  0.16543350  1
  H+  H144  1  0.87485124  0.40447241  0.33874007  1
  H+  H145  1  0.36830613  0.62916178  0.82189957  1
  H+  H146  1  0.90622356  0.69400950  0.43882627  1
  H+  H147  1  0.46920760  0.10622068  0.66037906  1
  H+  H148  1  0.86077151  0.38649509  0.02595882  1
  H+  H149  1  0.62770836  0.53460951  0.63030572  1
  H+  H150  1  0.84728116  0.62336600  0.33591254  1
  H+  H151  1  1.01300484  0.62732574  1.00778446  1
  H+  H152  1  0.36568921  0.23649817  0.51919156  1
  H+  H153  1  0.88853567  0.09882410  0.84102587  1
  H+  H154  1  0.08373089  0.40868900  0.87517557  1
  H+  H155  1  0.89797611  0.08066831  0.30477584  1
  H+  H156  1  0.86139269  -0.04113634  1.00906994  1
  H+  H157  1  0.39023516  0.12407324  0.98815924  1
  H+  H158  1  0.13325511  0.62079151  0.15966079  1
  H+  H159  1  0.23687490  0.62031088  0.83428954  1
  H+  H160  1  0.15020038  0.36036389  0.82420722  1
  H+  H161  1  0.71744402  0.35314445  0.84834113  1
  H+  H162  1  0.67597497  0.79667390  0.88939567  1
  H+  H163  1  0.38682796  0.75529823  0.50240286  1
  H+  H164  1  0.48231230  0.58636800  0.15443754  1
  H+  H165  1  0.36694502  0.39027397  0.67194634  1
  H+  H166  1  0.13323135  1.01750817  0.66239093  1
  H+  H167  1  0.11964686  0.38114635  0.33467846  1
  H+  H168  1  0.86057690  0.13415255  0.67346370  1
  H+  H169  1  0.03506943  0.40010335  0.48856239  1
  H+  H170  1  0.14484134  0.61747819  0.65722371  1
  H+  H171  1  1.04161180  0.87104131  0.67447739  1
  H+  H172  1  0.32993930  0.15981791  0.10008416  1
  H+  H173  1  0.86875523  0.75977478  0.32632730  1
  H+  H174  1  0.39095875  0.37287325  -0.00792266  1
  H+  H175  1  0.77273299  0.13036300  0.83059184  1
  H+  H176  1  0.37546121  0.11091533  0.51869788  1
  H+  H177  1  0.07502841  0.44953044  0.00943925  1
  H+  H178  1  0.89248354  1.01180675  0.84288938  1
  H+  H179  1  0.93425496  0.78491027  0.85255299  1
  H+  H180  1  0.76998624  0.10646703  0.51711779  1
  H+  H181  1  0.90711786  0.10165371  0.15993118  1
  H+  H182  1  0.86574229  0.47665347  0.01452459  1
  H+  H183  1  0.14466129  0.89954736  0.01390982  1
  H+  H184  1  0.15914080  0.49961489  0.68425333  1
  H+  H185  1  0.77425654  0.14942884  0.52538337  1
  H+  H186  1  0.63156642  0.62513794  0.63520595  1
  H+  H187  1  0.12210489  0.73006087  0.66671709  1
  H+  H188  1  0.28616950  0.88667594  0.84020234  1
  H+  H189  1  0.10764296  0.64017299  0.33428672  1
  H+  H190  1  0.37529173  0.77183895  0.31966112  1
  H+  H191  1  0.41957354  0.09304324  0.89592464  1
  H+  H192  1  0.83857521  0.24228590  0.64948744  1
  H+  H193  1  0.14976651  0.11582014  0.17054017  1
  H+  H194  1  0.36170647  0.36804379  0.83483600  1
  H+  H195  1  0.99781668  0.35605647  1.00885338  1
  H+  H196  1  0.12322251  0.23789491  0.15541491  1
  H+  H197  1  0.45388434  0.34969011  0.85000219  1
  H+  H198  1  0.27721005  0.38729267  0.67301215  1
  H+  H199  1  0.36281700  0.23285905  1.00774340  1
  H+  H200  1  0.59804325  0.21997211  0.34442614  1
  H+  H201  1  0.38666156  0.35321248  0.32423986  1
  H+  H202  1  1.03343558  0.64450743  0.67549222  1
  H+  H203  1  0.60215094  0.13672256  0.67590434  1
  H+  H204  1  0.12651657  0.35359113  0.98449023  1
  H+  H205  1  0.15652148  0.37290672  0.66785279  1
  H+  H206  1  0.23499420  0.11736806  0.84083023  1
  H+  H207  1  0.72046638  0.86109664  0.50400566  1
  H+  H208  1  0.46141084  0.10793365  0.50371268  1
  H+  H209  1  0.86371588  0.21546785  0.81981362  1
  H+  H210  1  0.72570086  0.10074814  0.17637694  1
  H+  H211  1  0.64330164  0.51539177  1.02316029  1
  H+  H212  1  0.10839967  0.97782902  0.49780180  1
  H+  H213  1  0.65299897  0.73794742  -0.01630666  1
  H+  H214  1  0.85386555  0.84911896  0.65986539  1
  H+  H215  1  0.18926130  0.85313173  0.91453746  1
  H+  H216  1  0.97296541  0.63254917  0.17310453  1
  H+  H217  1  0.33118570  0.17715332  0.57668865  1
  H+  H218  1  0.86414716  -0.04062593  0.33761151  1
  H+  H219  1  0.14470189  0.62280529  0.50402611  1
  H+  H220  1  0.59993124  0.88242773  0.66989804  1
  H+  H221  1  0.62656824  0.34841609  0.85038712  1
  H+  H222  1  0.36406889  0.87837008  0.65684110  1
  H+  H223  1  0.87812010  0.87955157  0.82919340  1
  H+  H224  1  0.70313363  0.57603291  0.80555190  1
  H+  H225  1  0.71329947  0.86941483  0.65687070  1
  H+  H226  1  0.26601390  0.64782002  0.13089782  1
  H+  H227  1  0.87553046  0.51574483  0.83840952  1
  H+  H228  1  0.93284564  0.37542201  0.26168957  1
  H+  H229  1  0.12809001  0.86212250  0.50860882  1
  H+  H230  1  0.89594865  0.88475651  0.67170551  1
  H+  H231  1  0.23819307  0.35992949  0.83436720  1
  H+  H232  1  0.84534253  0.85119183  0.16412423  1
  H+  H233  1  0.60625313  0.21973129  0.82883782  1
  H+  H234  1  0.83065241  0.91123629  0.43976070  1
  H+  H235  1  0.61542131  0.13488578  1.00667824  1
  H+  H236  1  0.14457650  0.78621042  0.85836871  1
  H+  H237  1  0.86192398  0.96606129  0.50119388  1
  H+  H238  1  0.27081142  0.13671758  0.32662898  1
  H+  H239  1  0.26643672  0.87922529  0.65632189  1
  H+  H240  1  0.47921090  0.37126356  0.65854882  1
  H+  H241  1  0.80991364  0.40946679  0.76462373  1
  H+  H242  1  0.36037085  0.63077107  0.48889527  1
  H+  H243  1  0.11733998  0.22150596  0.82573531  1
  H+  H244  1  0.43394874  0.40591163  0.19712039  1
  H+  H245  1  0.02839688  0.13101228  0.82804763  1
  H+  H246  1  0.58255715  0.39514375  0.07666328  1
  H+  H247  1  0.36235058  0.12826191  0.32445226  1
  H+  H248  1  0.11958632  0.97585267  0.16401619  1
  H+  H249  1  0.12181946  0.39624478  0.49059665  1
  H+  H250  1  0.28008776  0.31897775  0.44748423  1
  H+  H251  1  0.36597161  0.97403530  0.66047978  1
  H+  H252  1  0.61907417  0.34318277  0.00454358  1
  H+  H253  1  0.63605633  0.60046965  1.02242558  1
  H+  H254  1  0.87733156  0.40748639  0.17650755  1
  H+  H255  1  0.63638051  0.36522814  0.34810132  1
  H+  H256  1  0.13456120  0.89592895  0.83510353  1
  H+  H257  1  -0.02279057  0.10755596  -0.00367888  1
  H+  H258  1  0.88416224  0.60944156  -0.00219222  1
  H+  H259  1  0.98290196  0.11591267  0.66765636  1
  H+  H260  1  0.62539131  0.48314312  0.48508336  1
  H+  H261  1  0.01476536  0.39739682  0.16260808  1
  H+  H262  1  0.11282043  0.13525662  0.67353827  1
  H+  H263  1  0.14592725  0.53458795  0.49997196  1
  H+  H264  1  0.36637014  0.63900473  0.66897230  1
  H+  H265  1  0.59280003  0.12909921  0.33325752  1
  H+  H266  1  0.38757759  0.11766031  0.83498363  1
  H+  H267  1  0.39397393  0.56495280  0.23866718  1
  H+  H268  1  0.13220959  0.86009761  0.17273709  1
  H+  H269  1  0.85234214  0.66868584  0.16741174  1
  H+  H270  1  -0.00780457  0.34692533  0.67070506  1
  H+  H271  1  1.04885845  0.88853262  1.01147734  1
  H+  H272  1  0.60709013  0.73079392  0.65855572  1
  H+  H273  1  0.36953896  0.22898883  0.32758498  1
  H+  H274  1  0.38419272  0.52149875  0.65883705  1
  H+  H275  1  0.75044999  0.62319896  0.65392577  1
  H+  H276  1  0.26448225  0.88506918  0.33290571  1
  H+  H277  1  0.48446216  0.85274935  0.50089034  1
  H+  H278  1  0.86675841  0.24596186  1.00077801  1
  H+  H279  1  0.51471518  0.13310143  0.82512612  1
  H+  H280  1  0.83159637  0.36992588  0.66379191  1
  H+  H281  1  0.62389517  0.88943784  0.20953788  1
  H+  H282  1  0.61501594  0.39831460  0.66554823  1
  H+  H283  1  0.14673941  0.12068673  0.32282332  1
  H+  H284  1  0.53007654  0.87956494  0.83664677  1
  H+  H285  1  0.07200968  0.66394787  0.09967876  1
  H+  H286  1  0.86207104  0.50359392  0.66022950  1
  H+  H287  1  0.64604043  0.57352067  0.26069522  1
  H+  H288  1  0.42957416  0.35375247  0.56360818  1
  H+  H289  1  0.76783953  0.96902952  0.72833967  1
  H+  H290  1  0.33904495  0.42244649  0.38795311  1
  H+  H291  1  0.12137936  0.44152524  0.74309946  1
  H+  H292  1  0.90689533  0.57514275  0.93660643  1
  H+  H293  1  0.34218980  0.66671836  0.76514976  1
  H+  H294  1  0.97320125  0.62150951  0.32909247  1
  H+  H295  1  0.55853261  0.15027909  0.42801467  1
  H+  H296  1  0.43163736  0.33523560  0.26668507  1
  H+  H297  1  0.63773977  0.57075097  0.90567744  1
  H+  H298  1  0.91580782  0.60699460  0.23337637  1
  H+  H299  1  0.61326022  0.46671123  0.71245689  1
  H+  H300  1  0.76625071  0.88775945  0.34440898  1
  H+  H301  1  0.65087649  0.31343385  0.94205179  1
  H+  H302  1  0.82096974  0.70629332  0.80500057  1
  H+  H303  1  0.40796154  0.06750773  0.22275763  1
  H+  H304  1  0.16405621  0.33915707  0.56953107  1
  H+  H305  1  0.58086940  0.15579362  0.07146360  1
  H+  H306  1  0.40773333  0.57455976  0.56398564  1
  H+  H307  1  0.01584042  0.14145196  0.49762599  1
  H+  H308  1  0.32600554  0.43870171  0.04697668  1
  H+  H309  1  0.16992050  0.08230113  0.93607321  1
  H+  H310  1  0.82902086  0.44005496  0.10874686  1
  H+  H311  1  0.66046669  0.83812846  0.59308910  1
  H+  H312  1  0.58192849  0.66488703  0.71464745  1
  H+  H313  1  0.08064670  0.16898060  0.39582442  1
  H+  H314  1  0.33538148  0.40602754  0.77058975  1
  H+  H315  1  0.15144320  0.07591815  0.60225241  1
  H+  H316  1  0.56461890  0.64920636  0.07469351  1
  H+  H317  1  0.65162718  0.07720547  0.26389262  1
  H+  H318  1  0.85182881  0.18338019  0.35774872  1
  H+  H319  1  0.67623280  0.56476105  0.90501784  1
  H+  H320  1  0.41307938  0.07476163  0.59790101  1
  H+  H321  1  0.41993634  0.82050301  0.56603144  1
  H+  H322  1  0.92290670  0.86689169  0.24763352  1
  H+  H323  1  0.58112256  0.90586183  0.77457482  1
  H+  H324  1  0.63451707  0.06884818  0.60752302  1
  H+  H325  1  0.47265163  0.61166966  0.65111431  1
  H+  H326  1  0.83673963  0.14260697  0.09459306  1
  H+  H327  1  0.09116397  0.91808951  0.10484714  1
  H+  H328  1  0.80557268  0.84065451  0.09820110  1
  H+  H329  1  0.82369671  0.15437063  0.73346446  1
  H+  H330  1  0.08882103  0.41585344  0.39891711  1
  H+  H331  1  0.35585544  0.87935975  0.14681269  1
  H+  H332  1  0.17651114  0.58779338  0.59875611  1
  H+  H333  1  0.66576437  0.08514102  0.93422626  1
  H+  H334  1  0.31061761  0.90325720  0.09206450  1
  H+  H335  1  0.16092446  0.82959799  0.26388704  1
  H+  H336  1  0.90103059  0.57285064  0.59789660  1
  H+  H337  1  0.64343403  0.31938483  0.59835928  1
  H+  H338  1  0.40699609  0.33098360  0.93352341  1
  H+  H339  1  0.78382975  0.25715054  0.60121606  1
  H+  H340  1  0.16355099  0.33538701  0.26478212  1
  H+  H341  1  0.54065598  0.35439430  0.77821570  1
  H+  H342  1  0.16603255  0.60264579  0.25645230  1
  H+  H343  1  0.39162484  0.27947528  0.65375552  1
  H+  H344  1  0.16313101  0.33026156  0.92432918  1
  H+  H345  1  0.06771226  0.40419636  0.10329736  1
  H+  H346  1  0.40511036  0.83427500  0.93971656  1
  H+  H347  1  0.11812148  0.49706813  0.84097614  1
  H+  H348  1  0.84557327  0.43196062  0.39943574  1
  H+  H349  1  0.93664170  0.18345119  0.44056608  1
  H+  H350  1  0.57277128  0.16863420  0.73446174  1
  H+  H351  1  0.84121665  0.67189937  0.07109712  1
  H+  H352  1  0.68108049  0.59776950  0.53940820  1
  H+  H353  1  0.94207301  0.80556047  0.59742767  1
  H+  H354  1  0.97651910  0.37155503  0.81717799  1
  H+  H355  1  0.63945483  0.00854326  0.18352097  1
  H+  H356  1  0.81128932  0.72983166  0.14454783  1
  H+  H357  1  0.33210988  0.66266461  0.38995175  1
  H+  H358  1  0.76862103  0.60874325  0.72091009  1
  H+  H359  1  0.91966671  0.07416530  0.93657202  1
  H+  H360  1  0.22729041  0.37698263  0.18221979  1
  H+  H361  1  0.08095307  0.66682403  0.39766256  1
  H+  H362  1  0.63762914  0.02470423  0.83963879  1
  H+  H363  1  0.78188886  0.86681212  0.83048715  1
  H+  H364  1  0.33380087  0.17986228  0.76817783  1
  H+  H365  1  0.35269269  0.41793289  0.14151705  1
  H+  H366  1  0.21918342  0.85562860  0.17003047  1
  H+  H367  1  0.88546436  0.31306044  0.94698557  1
  H+  H368  1  0.94318953  0.83726132  0.94270286  1
  H+  H369  1  0.57242584  0.67824268  0.42395552  1
  H+  H370  1  0.13825773  0.98909877  0.34590388  1
  H+  H371  1  0.75193984  0.61513047  0.49041937  1
  H+  H372  1  0.94322146  0.06626782  0.21615831  1
  H+  H373  1  0.63221656  0.51157636  0.17532561  1
  H+  H374  1  0.40743874  0.83077710  0.22327988  1
  H+  H375  1  0.39374533  0.86411340  0.84794287  1
  H+  H376  1  0.08674186  0.16660431  0.73370218  1
  H+  H377  1  0.09779764  0.17767299  0.09297116  1
  H+  H378  1  0.17154758  0.83851304  0.59485364  1
  H+  H379  1  0.58084975  0.42084387  0.42879668  1
  H+  H380  1  0.01638419  0.12761537  0.15752942  1
  H+  H381  1  0.31495879  0.91391209  0.42921589  1
  H+  H382  1  0.39720439  0.62900494  0.94945099  1
  H+  H383  1  0.13976153  0.53482124  0.16111088  1
  O2-  O384  1  0.09566981  0.17748128  0.13962592  1
  O2-  O385  1  0.07090824  0.17629888  0.47545314  1
  O2-  O386  1  0.08759898  0.16105365  0.81070077  1
  O2-  O387  1  0.07304029  0.41312141  0.14792058  1
  O2-  O388  1  0.09343429  0.42587019  0.47013370  1
  O2-  O389  1  0.08235164  0.43150364  0.83527246  1
  O2-  O390  1  0.07425118  0.66384937  0.14592910  1
  O2-  O391  1  0.08616979  0.66861530  0.48169929  1
  O2-  O392  1  0.08510554  0.68576094  0.83092437  1
  O2-  O393  1  0.08539614  0.91519981  0.15018935  1
  O2-  O394  1  0.08023089  0.91789784  0.48265821  1
  O2-  O395  1  0.10283414  0.92265674  0.81457675  1
  O2-  O396  1  0.32577212  0.15135660  0.14502078  1
  O2-  O397  1  0.32843526  0.17522692  0.53170642  1
  O2-  O398  1  0.33360332  0.17407915  0.81236936  1
  O2-  O399  1  0.34314567  0.43075763  0.18301479  1
  O2-  O400  1  0.31535353  0.37684456  0.46382510  1
  O2-  O401  1  0.33345024  0.40675984  0.81576197  1
  O2-  O402  1  0.32900497  0.68122170  0.11845344  1
  O2-  O403  1  0.33641305  0.66690272  0.47329635  1
  O2-  O404  1  0.34008187  0.66239827  0.81057884  1
  O2-  O405  1  0.32004449  0.90586020  0.13672613  1
  O2-  O406  1  0.31031117  0.91078654  0.47431340  1
  O2-  O407  1  0.34606014  0.91185423  0.82482647  1
  O2-  O408  1  0.57696298  0.14704766  0.13712024  1
  O2-  O409  1  0.55996477  0.15554400  0.47355585  1
  O2-  O410  1  0.57664354  0.16218003  0.80907335  1
  O2-  O411  1  0.59801505  0.41431701  0.15010830  1
  O2-  O412  1  0.58527759  0.42065355  0.47461038  1
  O2-  O413  1  0.56445047  0.38472209  0.81632793  1
  O2-  O414  1  0.54313013  0.62921942  0.14500336  1
  O2-  O415  1  0.57380257  0.68383690  0.46879970  1
  O2-  O416  1  0.58430236  0.64953857  0.79105764  1
  O2-  O417  1  0.60095057  0.91248370  0.17753297  1
  O2-  O418  1  0.56832462  0.90458567  0.47632649  1
  O2-  O419  1  0.58962886  0.90826986  0.81922961  1
  O2-  O420  1  0.84908046  0.14624103  0.14015813  1
  O2-  O421  1  0.89255731  0.19920625  0.43295129  1
  O2-  O422  1  0.83158406  0.15276431  0.81272599  1
  O2-  O423  1  0.82496287  0.44554813  0.15447637  1
  O2-  O424  1  0.84048950  0.42788516  0.48040423  1
  O2-  O425  1  0.81721130  0.40937316  0.80933448  1
  O2-  O426  1  0.80706531  0.67126982  0.14388198  1
  O2-  O427  1  0.87303437  0.68052452  0.47640340  1
  O2-  O428  1  0.80969246  0.66072631  0.83402872  1
  O2-  O429  1  0.79671090  0.81095339  0.13728602  1
  O2-  O430  1  0.83015958  0.90671841  0.48528801  1
  O2-  O431  1  0.84255075  0.90486337  0.81611569  1
  O2-  O432  1  0.17542289  0.08421565  0.18913463  1
  O2-  O433  1  0.15485999  0.08686732  0.52365431  1
  O2-  O434  1  0.17443706  0.08321642  0.85691394  1
  O2-  O435  1  0.16443997  0.33783880  0.18912241  1
  O2-  O436  1  0.16182839  0.33929964  0.52332770  1
  O2-  O437  1  0.17392699  0.33006724  0.84677660  1
  O2-  O438  1  0.17274037  0.59704237  0.16931441  1
  O2-  O439  1  0.17697899  0.59328881  0.51740287  1
  O2-  O440  1  0.17793074  0.59598005  0.85246883  1
  O2-  O441  1  0.16000341  0.82652780  0.18745773  1
  O2-  O442  1  0.15844490  0.83106073  0.52250038  1
  O2-  O443  1  0.18104302  0.84866071  0.86871859  1
  O2-  O444  1  0.41255171  0.06897446  0.17783769  1
  O2-  O445  1  0.40378027  0.07592542  0.52402974  1
  O2-  O446  1  0.41963404  0.08927508  0.84961007  1
  O2-  O447  1  0.44904794  0.36105830  0.20319805  1
  O2-  O448  1  0.42688226  0.34819337  0.51829945  1
  O2-  O449  1  0.39287015  0.32144202  0.86078308  1
  O2-  O450  1  0.37350705  0.52411798  0.17744601  1
  O2-  O451  1  0.40718876  0.57674778  0.51797271  1
  O2-  O452  1  0.42392426  0.56739992  0.84273517  1
  O2-  O453  1  0.41764654  0.83780952  0.17852179  1
  O2-  O454  1  0.42154839  0.81720849  0.51963025  1
  O2-  O455  1  0.42359112  0.83190592  0.86432301  1
  O2-  O456  1  0.66638598  0.07421975  0.19092805  1
  O2-  O457  1  0.60461173  0.05427505  0.53864945  1
  O2-  O458  1  0.66655015  0.08566548  0.85327405  1
  O2-  O459  1  0.64278766  0.37465692  0.18046639  1
  O2-  O460  1  0.66806801  0.33196616  0.47806542  1
  O2-  O461  1  0.65864542  0.32032179  0.86583177  1
  O2-  O462  1  0.64924723  0.57166183  0.18966563  1
  O2-  O463  1  0.68975043  0.58549381  0.49689434  1
  O2-  O464  1  0.65414424  0.54998506  0.77706052  1
  O2-  O465  1  0.68758142  0.87071381  0.25801721  1
  O2-  O466  1  0.65955879  0.83596591  0.51745317  1
  O2-  O467  1  0.67282100  0.80707333  0.84366658  1
  O2-  O468  1  0.94825977  0.08086080  0.17134878  1
  O2-  O469  1  0.91531053  0.07647433  0.53262375  1
  O2-  O470  1  0.92231655  0.07294528  0.85667618  1
  O2-  O471  1  0.90771427  0.37237683  0.18918292  1
  O2-  O472  1  0.92790598  0.34257918  0.51152297  1
  O2-  O473  1  0.91603051  0.33222553  0.80335702  1
  O2-  O474  1  0.91312140  0.61109470  0.18846662  1
  O2-  O475  1  0.91610353  0.57945418  0.53609838  1
  O2-  O476  1  0.90620830  0.57459625  0.85604550  1
  O2-  O477  1  0.93340614  0.89984518  0.20898905  1
  O2-  O478  1  0.92146686  0.82909985  0.52181140  1
  O2-  O479  1  0.94906268  0.84429256  0.85938294  1
  O2-  O480  1  0.17944668  0.09350645  0.30771469  1
  O2-  O481  1  0.15938095  0.07824520  0.64734111  1
  O2-  O482  1  0.16806723  0.08517554  0.98141404  1
  O2-  O483  1  0.16577099  0.33632211  0.31077259  1
  O2-  O484  1  0.17169023  0.33455787  0.64387711  1
  O2-  O485  1  0.16348504  0.33080750  0.96999325  1
  O2-  O486  1  0.16014431  0.59820960  0.30114795  1
  O2-  O487  1  0.17879645  0.58962512  0.64393644  1
  O2-  O488  1  0.19434359  0.61998718  0.97700669  1
  O2-  O489  1  0.16445889  0.83238693  0.30954310  1
  O2-  O490  1  0.18054209  0.84004288  0.64082004  1
  O2-  O491  1  0.20101132  0.85669879  0.98997831  1
  O2-  O492  1  0.40158742  0.07723121  0.30425433  1
  O2-  O493  1  0.40937348  0.07196374  0.64399374  1
  O2-  O494  1  0.42015903  0.09694650  0.96785161  1
  O2-  O495  1  0.41756328  0.32251225  0.31336784  1
  O2-  O496  1  0.42009770  0.34109692  0.64153905  1
  O2-  O497  1  0.41621553  0.33782734  0.97973303  1
  O2-  O498  1  0.41553298  0.60500679  0.27837645  1
  O2-  O499  1  0.41045554  0.57982778  0.63937297  1
  O2-  O500  1  0.40179989  0.60909175  0.98971734  1
  O2-  O501  1  0.40375404  0.83194196  0.30391165  1
  O2-  O502  1  0.41339309  0.82852990  0.63775194  1
  O2-  O503  1  0.39852471  0.84568754  0.98367955  1
  O2-  O504  1  0.64568137  0.07858498  0.30977375  1
  O2-  O505  1  0.64495583  0.07495962  0.65329160  1
  O2-  O506  1  0.66846658  0.08643606  0.97954410  1
  O2-  O507  1  0.66403469  0.32954318  0.35625082  1
  O2-  O508  1  0.64764875  0.32545828  0.64257043  1
  O2-  O509  1  0.64733113  0.30947974  0.98761234  1
  O2-  O510  1  0.64494610  0.57502140  0.30723251  1
  O2-  O511  1  0.66265451  0.59573660  0.61854521  1
  O2-  O512  1  0.67605789  0.57811494  1.01762728  1
  O2-  O513  1  0.65823566  0.84333789  0.31878167  1
  O2-  O514  1  0.65536700  0.83568507  0.63894871  1
  O2-  O515  1  0.69583834  0.77858125  0.95414971  1
  O2-  O516  1  0.93747492  0.06115472  0.29276563  1
  O2-  O517  1  0.92204242  0.08761453  0.65126312  1
  O2-  O518  1  0.91666362  0.07608917  0.98186755  1
  O2-  O519  1  0.93786668  0.36507357  0.30640577  1
  O2-  O520  1  0.83847896  0.28813974  0.62275493  1
  O2-  O521  1  0.89703531  0.30952046  0.98982626  1
  O2-  O522  1  0.91267995  0.59219847  0.31300327  1
  O2-  O523  1  0.89155085  0.56705554  0.64715897  1
  O2-  O524  1  0.91032585  0.57533037  0.98162060  1
  O2-  O525  1  0.90405199  0.82220961  0.32025225  1
  O2-  O526  1  0.95930284  0.78847298  0.63548511  1
  O2-  O527  1  0.94092116  0.83557706  0.98764314  1
  O2-  O528  1  0.08844912  0.16654129  0.02109162  1
  O2-  O529  1  0.08524836  0.16767040  0.35072015  1
  O2-  O530  1  0.08450146  0.16795393  0.68806480  1
  O2-  O531  1  0.06047819  0.39144417  0.02088838  1
  O2-  O532  1  0.08812598  0.41177445  0.35221841  1
  O2-  O533  1  0.15830217  0.45193056  0.70801972  1
  O2-  O534  1  0.07024218  0.66028447  0.02764535  1
  O2-  O535  1  0.07548013  0.66762043  0.35286830  1
  O2-  O536  1  0.09521005  0.66913423  0.67932176  1
  O2-  O537  1  0.10825642  0.92602811  0.02697375  1
  O2-  O538  1  0.12051797  0.93668316  0.36989081  1
  O2-  O539  1  0.09935572  0.91612969  0.68982412  1
  O2-  O540  1  0.33573453  0.17197566  0.02157056  1
  O2-  O541  1  0.33487493  0.16440444  0.34026746  1
  O2-  O542  1  0.33163637  0.16833477  0.66392478  1
  O2-  O543  1  0.32814273  0.43812270  0.00273325  1
  O2-  O544  1  0.33497936  0.41965568  0.34289351  1
  O2-  O545  1  0.33710976  0.41970931  0.68912234  1
  O2-  O546  1  0.33091166  0.68967288  0.05171168  1
  O2-  O547  1  0.32656362  0.66554690  0.34526903  1
  O2-  O548  1  0.34040224  0.67261367  0.68580059  1
  O2-  O549  1  0.28941272  0.90935772  0.01110729  1
  O2-  O550  1  0.32548149  0.91879814  0.34840442  1
  O2-  O551  1  0.33297662  0.90980046  0.67088419  1
  O2-  O552  1  0.58326649  0.16265435  0.02347431  1
  O2-  O553  1  0.56100725  0.15678415  0.35057941  1
  O2-  O554  1  0.57263334  0.16926898  0.68826529  1
  O2-  O555  1  0.58082041  0.39525174  0.03039238  1
  O2-  O556  1  0.58128308  0.41815316  0.35397492  1
  O2-  O557  1  0.58893691  0.43477044  0.67441407  1
  O2-  O558  1  0.57547892  0.65431901  0.02886416  1
  O2-  O559  1  0.57701242  0.67211493  0.34098124  1
  O2-  O560  1  0.57940728  0.66825170  0.66930127  1
  O2-  O561  1  0.56265545  0.93677625  0.02545981  1
  O2-  O562  1  0.56554015  0.91437524  0.35562102  1
  O2-  O563  1  0.56749517  0.90757269  0.68980443  1
  O2-  O564  1  0.82602232  0.14750537  0.02203900  1
  O2-  O565  1  0.82725070  0.19218301  0.31975536  1
  O2-  O566  1  0.82217672  0.15584139  0.68797155  1
  O2-  O567  1  0.83668914  0.42226333  0.03843856  1
  O2-  O568  1  0.83924525  0.42839060  0.35435817  1
  O2-  O569  1  0.81101637  0.40760927  0.68151677  1
  O2-  O570  1  0.84443947  0.67003160  0.02549296  1
  O2-  O571  1  0.80811683  0.64618959  0.34848631  1
  O2-  O572  1  0.79905687  0.63201480  0.68249737  1
  O2-  O573  1  0.83491200  0.89711755  0.01839461  1
  O2-  O574  1  0.82401636  0.91095797  0.36319964  1
  O2-  O575  1  0.80049138  0.94538604  0.70931926  1
