# generated using pymatgen
data_H2O
_symmetry_space_group_name_H-M   'P 1'
_cell_length_a   17.98666609
_cell_length_b   17.99491640
_cell_length_c   22.00016161
_cell_angle_alpha   89.99589969
_cell_angle_beta   89.94156402
_cell_angle_gamma   120.03464684
_symmetry_Int_Tables_number   1
_chemical_formula_structural   H2O
_chemical_formula_sum   'H384 O192'
_cell_volume   6164.60076530
_cell_formula_units_Z   192
loop_
 _symmetry_equiv_pos_site_id
 _symmetry_equiv_pos_as_xyz
  1  'x, y, z'
loop_
 _atom_type_symbol
 _atom_type_oxidation_number
  H+  1.0
  O2-  -2.0
loop_
 _atom_site_type_symbol
 _atom_site_label
 _atom_site_symmetry_multiplicity
 _atom_site_fract_x
 _atom_site_fract_y
 _atom_site_fract_z
 _atom_site_occupancy
  H+  H0  1  0.13464563  0.23120418  0.51204318  1
  H+  H1  1  0.12103236  0.63701238  0.49491379  1
  H+  H2  1  0.47015540  0.34375731  -0.00232216  1
  H+  H3  1  0.52643824  0.89253573  0.50151710  1
  H+  H4  1  0.91418759  0.85047143  0.74964960  1
  H+  H5  1  0.01876591  0.35734021  0.15310171  1
  H+  H6  1  0.91390589  0.49074625  0.67008100  1
  H+  H7  1  0.61340705  0.51506558  0.83297822  1
  H+  H8  1  0.52446771  0.89179684  0.33895545  1
  H+  H9  1  0.60366703  0.63789220  0.81317309  1
  H+  H10  1  0.81704982  0.86850877  0.32122303  1
  H+  H11  1  0.13989908  0.02439925  0.50548281  1
  H+  H12  1  0.88500164  0.36500921  0.49515609  1
  H+  H13  1  0.70567875  0.61414114  0.65022983  1
  H+  H14  1  0.28015350  0.13453863  0.48971035  1
  H+  H15  1  0.89754847  0.13010551  0.82681911  1
  H+  H16  1  0.59592971  0.88297324  0.67519028  1
  H+  H17  1  0.63129100  0.86210125  -0.01506632  1
  H+  H18  1  0.87533708  0.63952490  0.14418276  1
  H+  H19  1  0.13605234  0.76922359  0.50827272  1
  H+  H20  1  0.87253890  0.89125314  0.15387070  1
  H+  H21  1  0.99116995  0.88341496  0.14881306  1
  H+  H22  1  0.18495147  0.25967288  0.60502741  1
  H+  H23  1  0.36842687  0.63985401  0.65960905  1
  H+  H24  1  0.61038149  0.38430110  0.66998386  1
  H+  H25  1  0.62682564  0.77089232  -0.01421807  1
  H+  H26  1  0.63857086  0.27542731  0.83374962  1
  H+  H27  1  0.63808371  0.01805611  0.98233348  1
  H+  H28  1  0.86547051  0.78236593  0.83293733  1
  H+  H29  1  0.47268508  0.35779231  0.32445889  1
  H+  H30  1  0.14982702  0.66568789  0.84554982  1
  H+  H31  1  0.63437306  0.36155906  0.83797752  1
  H+  H32  1  0.35659961  0.63346121  0.32527555  1
  H+  H33  1  0.22791288  0.86742769  0.86591233  1
  H+  H34  1  0.89036772  0.52041147  0.15946773  1
  H+  H35  1  0.39010604  0.11287901  0.50750651  1
  H+  H36  1  0.21475057  0.10830301  0.98359373  1
  H+  H37  1  0.60066446  0.35825602  0.00247407  1
  H+  H38  1  0.36833534  0.13724987  0.67457630  1
  H+  H39  1  0.03658480  0.12439874  0.36915132  1
  H+  H40  1  0.97659449  0.97083315  0.36648263  1
  H+  H41  1  0.36580179  0.47267922  -0.00043850  1
  H+  H42  1  0.35300807  0.97309678  0.83593634  1
  H+  H43  1  0.62711899  0.86230648  0.83551245  1
  H+  H44  1  0.15123482  0.62349892  0.16358968  1
  H+  H45  1  0.12861444  0.14193632  0.34767225  1
  H+  H46  1  0.23806630  0.61597601  0.66029526  1
  H+  H47  1  0.74649044  0.15028834  0.31258228  1
  H+  H48  1  0.67415959  0.10629158  0.21569338  1
  H+  H49  1  0.08863507  0.42222566  0.39212005  1
  H+  H50  1  0.82896878  0.65173407  0.88029415  1
  H+  H51  1  0.11641411  0.15112104  0.66572336  1
  H+  H52  1  0.60361886  0.44504506  0.15487032  1
  H+  H53  1  0.61926760  0.97762577  0.50168801  1
  H+  H54  1  0.61104444  0.38286146  0.34017537  1
  H+  H55  1  0.61748898  0.89753346  0.14795638  1
  H+  H56  1  0.65640907  0.59073936  0.93036538  1
  H+  H57  1  0.74295164  0.21937209  0.27258528  1
  H+  H58  1  0.52413671  0.13342019  0.67240561  1
  H+  H59  1  0.86206324  0.22652379  0.48620843  1
  H+  H60  1  0.26526094  0.37989854  0.33444705  1
  H+  H61  1  0.36492457  0.70867100  0.81484545  1
  H+  H62  1  0.13519559  0.86107055  0.66069974  1
  H+  H63  1  0.60292922  0.46918389  0.66818929  1
  H+  H64  1  0.86666459  0.89281175  0.49728073  1
  H+  H65  1  1.00852321  0.87420391  0.31974084  1
  H+  H66  1  0.15349270  0.62310394  0.66700545  1
  H+  H67  1  0.26798962  0.88802610  0.68059146  1
  H+  H68  1  0.12384518  0.72724003  -0.01220468  1
  H+  H69  1  0.82702423  0.66359777  0.36968941  1
  H+  H70  1  0.11478795  0.46251035  1.00343446  1
  H+  H71  1  0.86618744  0.48004822  0.50103387  1
  H+  H72  1  0.58371446  0.16596739  0.73263932  1
  H+  H73  1  0.26813410  0.88514477  0.49116644  1
  H+  H74  1  0.38688733  0.10945500  0.83475411  1
  H+  H75  1  0.16784234  0.32218729  0.92822948  1
  H+  H76  1  0.79016271  0.37187159  0.66804867  1
  H+  H77  1  1.09336130  0.67074875  0.08785069  1
  H+  H78  1  0.02823370  0.89377508  0.68145635  1
  H+  H79  1  0.11166166  0.39184758  0.49286009  1
  H+  H80  1  0.64202324  0.63073588  0.98983383  1
  H+  H81  1  0.11701804  0.37448058  0.99724489  1
  H+  H82  1  0.47937018  0.87420609  0.16663084  1
  H+  H83  1  0.40746821  0.07850304  0.22535702  1
  H+  H84  1  0.30789577  0.74650393  0.87240311  1
  H+  H85  1  0.36061696  0.88671542  0.33668924  1
  H+  H86  1  0.17284874  0.82645954  0.22542926  1
  H+  H87  1  0.85099806  0.72038799  0.47072753  1
  H+  H88  1  0.47293494  0.36345047  0.49723268  1
  H+  H89  1  0.69978579  0.60616086  0.83933168  1
  H+  H90  1  0.87890016  0.03312458  0.66168593  1
  H+  H91  1  0.23054185  0.35981574  -0.01394967  1
  H+  H92  1  0.83365364  0.40087865  0.09877619  1
  H+  H93  1  0.37427518  0.01292849  0.98615739  1
  H+  H94  1  0.85562779  0.99310541  0.82403871  1
  H+  H95  1  0.81334528  0.59644659  0.71232298  1
  H+  H96  1  0.87450984  0.36073912  0.66540806  1
  H+  H97  1  0.03189957  0.13710612  0.81404531  1
  H+  H98  1  0.11759227  0.48225268  0.49622740  1
  H+  H99  1  0.13981995  0.77374808  0.66650483  1
  H+  H100  1  0.12764345  0.22540838  1.01319872  1
  H+  H101  1  0.50356187  0.13621793  0.15482422  1
  H+  H102  1  0.67361075  0.79932854  0.38762914  1
  H+  H103  1  0.72652009  0.11076239  0.98548864  1
  H+  H104  1  0.38579858  0.10969346  0.32140424  1
  H+  H105  1  0.13641800  0.61578002  0.32400075  1
  H+  H106  1  0.11777044  0.39082799  0.33365096  1
  H+  H107  1  0.37808624  0.53635811  0.16402466  1
  H+  H108  1  0.76786100  0.35585044  0.00870198  1
  H+  H109  1  0.36774437  0.38465227  0.48122928  1
  H+  H110  1  0.92830749  0.05685001  0.32020691  1
  H+  H111  1  0.57650092  0.67305110  0.72215817  1
  H+  H112  1  0.87189650  0.87592327  0.82671659  1
  H+  H113  1  0.52146274  0.65128002  0.15673096  1
  H+  H114  1  0.86105568  0.36464664  1.00498286  1
  H+  H115  1  0.88978108  0.60688117  0.31283775  1
  H+  H116  1  0.38144344  0.36087168  0.64712313  1
  H+  H117  1  0.63301547  0.55904007  0.22255840  1
  H+  H118  1  0.86756891  0.14110519  0.49410552  1
  H+  H119  1  0.78548545  0.15353541  0.81991489  1
  H+  H120  1  0.65871103  0.91324404  0.31066646  1
  H+  H121  1  0.05111564  0.64431264  0.83958188  1
  H+  H122  1  0.47480878  0.60917733  0.49748478  1
  H+  H123  1  0.22821638  0.60675572  1.00250988  1
  H+  H124  1  0.14453546  0.11595099  0.49998944  1
  H+  H125  1  0.86208771  0.94531771  0.44238066  1
  H+  H126  1  0.63480216  0.12027922  0.15576695  1
  H+  H127  1  0.03211416  0.64175845  -0.00276435  1
  H+  H128  1  0.36881479  0.62165298  0.81618506  1
  H+  H129  1  0.38546819  0.77738825  0.31781804  1
  H+  H130  1  0.89224415  0.77848779  0.97404805  1
  H+  H131  1  0.88932185  0.35694275  0.16920046  1
  H+  H132  1  0.84337508  0.62965545  0.46089224  1
  H+  H133  1  0.12736863  0.33798093  0.17191586  1
  H+  H134  1  0.44276480  0.72986669  0.44600839  1
  H+  H135  1  0.67149376  0.09706026  0.59949612  1
  H+  H136  1  0.37793966  1.01843043  0.50746027  1
  H+  H137  1  0.78299443  0.38583573  0.16217650  1
  H+  H138  1  0.38093775  0.85759963  -0.00561112  1
  H+  H139  1  0.36218514  0.22177540  0.66977843  1
  H+  H140  1  0.36783648  0.10195597  0.16774704  1
  H+  H141  1  0.35429497  0.88509170  0.68381910  1
  H+  H142  1  0.85916456  0.13317982  0.33574516  1
  H+  H143  1  0.37649812  0.37576220  0.83876140  1
  H+  H144  1  0.51924328  0.89172130  0.82998738  1
  H+  H145  1  0.60879652  0.64144335  0.49476452  1
  H+  H146  1  0.90845847  0.61316782  0.54546649  1
  H+  H147  1  0.51654254  0.63668339  0.00190074  1
  H+  H148  1  0.61404447  0.13809759  0.82278137  1
  H+  H149  1  0.58446451  0.66917932  0.38517356  1
  H+  H150  1  0.77472304  0.13651010  0.14656265  1
  H+  H151  1  0.60966033  0.46998005  0.33321419  1
  H+  H152  1  0.86268639  0.71353193  0.30661285  1
  H+  H153  1  0.77361290  0.39404569  0.49353246  1
  H+  H154  1  0.61846004  0.61394771  0.65094777  1
  H+  H155  1  0.98737448  0.15339200  0.29948550  1
  H+  H156  1  0.50659710  0.88119049  0.67601831  1
  H+  H157  1  0.89342342  0.27023154  -0.02304328  1
  H+  H158  1  0.37868005  0.77268975  0.65886923  1
  H+  H159  1  0.87915454  0.25282904  0.64504915  1
  H+  H160  1  0.39128439  0.78667782  0.50197047  1
  H+  H161  1  0.89955703  0.52719262  0.83006738  1
  H+  H162  1  0.91105624  0.31420445  0.58459064  1
  H+  H163  1  0.96635903  0.84727800  0.51528948  1
  H+  H164  1  0.10474219  0.87497821  0.52153284  1
  H+  H165  1  0.77154485  0.40564106  0.81800377  1
  H+  H166  1  0.38711284  0.01983823  0.66701653  1
  H+  H167  1  0.61336456  0.98408185  0.14931844  1
  H+  H168  1  0.04706910  0.62904791  0.69065335  1
  H+  H169  1  0.38255524  0.52470777  0.64252956  1
  H+  H170  1  0.13753743  0.03183718  0.32515246  1
  H+  H171  1  0.35481900  0.47092814  0.33048295  1
  H+  H172  1  0.47564413  0.11250006  0.31791893  1
  H+  H173  1  0.77618578  0.64907353  -0.01054245  1
  H+  H174  1  0.39602768  0.51651636  0.83925068  1
  H+  H175  1  0.89151517  0.27017476  0.32533969  1
  H+  H176  1  0.38803673  0.60941765  0.48787930  1
  H+  H177  1  0.60735391  0.64788797  0.15312084  1
  H+  H178  1  0.63336201  0.59864458  0.31755194  1
  H+  H179  1  0.54965732  0.51868036  0.18266918  1
  H+  H180  1  0.23306341  0.34976736  0.84301077  1
  H+  H181  1  0.86917703  0.48982127  0.33678969  1
  H+  H182  1  0.92160081  0.09289403  0.88504662  1
  H+  H183  1  0.87249550  -0.01049765  0.15805652  1
  H+  H184  1  0.46290819  0.59799174  0.31906660  1
  H+  H185  1  1.07331949  0.12585094  0.16427628  1
  H+  H186  1  0.28240545  0.64923599  0.16071244  1
  H+  H187  1  0.11029286  0.67961512  0.74639396  1
  H+  H188  1  0.87549400  0.83437048  0.29480767  1
  H+  H189  1  0.03230627  0.88199154  -0.01478339  1
  H+  H190  1  0.09374337  0.22712587  0.67472798  1
  H+  H191  1  0.73261331  0.87470123  0.50947621  1
  H+  H192  1  0.98954607  0.12882012  0.51206396  1
  H+  H193  1  0.90139493  0.03892203  0.51302080  1
  H+  H194  1  0.38417257  0.35203154  0.99628983  1
  H+  H195  1  0.77581158  0.89049892  0.15646407  1
  H+  H196  1  0.93210643  0.62661711  0.83350133  1
  H+  H197  1  0.86409070  0.00369680  0.97938398  1
  H+  H198  1  0.35561242  0.97120396  0.14848605  1
  H+  H199  1  0.17164539  0.58434585  0.57423338  1
  H+  H200  1  0.35540029  0.21676108  0.01004818  1
  H+  H201  1  0.23093905  0.61341889  0.51505903  1
  H+  H202  1  0.62421794  0.15922522  0.32799953  1
  H+  H203  1  0.38478698  0.87162215  0.50402592  1
  H+  H204  1  0.38782517  0.87017461  0.16532614  1
  H+  H205  1  0.73631789  0.89309068  0.30613164  1
  H+  H206  1  0.85292117  0.13180756  0.67069322  1
  H+  H207  1  0.86518661  0.22308856  0.15200791  1
  H+  H208  1  0.14493795  0.26169506  0.83842603  1
  H+  H209  1  0.38872752  0.26265300  0.84385702  1
  H+  H210  1  0.25246816  0.39930912  0.15539642  1
  H+  H211  1  0.58319285  0.91631055  0.39795518  1
  H+  H212  1  0.83448622  0.43333404  0.40536731  1
  H+  H213  1  0.39151450  0.62923968  0.17175584  1
  H+  H214  1  0.14713329  0.11243417  0.83052662  1
  H+  H215  1  0.37319172  0.73962926  0.15920570  1
  H+  H216  1  0.13830275  0.27492177  0.32759859  1
  H+  H217  1  0.07674049  0.91950083  0.57079952  1
  H+  H218  1  1.01424861  0.30403096  0.63244976  1
  H+  H219  1  0.63629226  0.12707436  0.66267376  1
  H+  H220  1  0.36190584  0.97614705  0.33594971  1
  H+  H221  1  0.64538913  0.26852609  0.18877029  1
  H+  H222  1  0.09142836  0.35702462  0.67436885  1
  H+  H223  1  -0.02500387  0.36664352  0.49464364  1
  H+  H224  1  0.37794135  0.25616298  0.16961940  1
  H+  H225  1  0.47074471  0.36091869  0.65140738  1
  H+  H226  1  0.13072141  0.98911542  0.13498237  1
  H+  H227  1  0.64084770  0.87146872  0.51208558  1
  H+  H228  1  0.73417370  0.12550188  0.66397458  1
  H+  H229  1  0.97749783  0.35992485  0.32027915  1
  H+  H230  1  0.41649661  0.31907711  0.90666829  1
  H+  H231  1  0.22502241  0.86469019  0.32642197  1
  H+  H232  1  0.34233588  0.16972104  0.76598999  1
  H+  H233  1  0.72355601  0.60222371  0.30486093  1
  H+  H234  1  0.62953433  0.79458075  0.38882000  1
  H+  H235  1  0.14066724  0.76827158  0.86539208  1
  H+  H236  1  0.64358890  0.78970551  0.16704663  1
  H+  H237  1  0.76900694  0.39462042  0.34330570  1
  H+  H238  1  0.36456403  0.22085088  0.33622529  1
  H+  H239  1  0.88584588  0.10862496  0.15657694  1
  H+  H240  1  0.63966624  0.27831380  0.50400743  1
  H+  H241  1  0.63997970  0.27496367  0.66144631  1
  H+  H242  1  0.64251074  0.03113063  0.83058261  1
  H+  H243  1  0.10978047  0.02229575  0.65219805  1
  H+  H244  1  0.52215357  0.13376038  0.82416887  1
  H+  H245  1  0.23885687  0.61810971  0.84733122  1
  H+  H246  1  0.26791559  0.87860212  -0.01018203  1
  H+  H247  1  0.14313598  0.31360135  0.59309609  1
  H+  H248  1  0.62976938  0.25248769  0.98427515  1
  H+  H249  1  0.36324364  0.72257170  0.00830132  1
  H+  H250  1  0.32340680  0.41897674  0.05899131  1
  H+  H251  1  0.73284319  0.11702528  0.50828701  1
  H+  H252  1  0.15800822  0.26651271  0.18087338  1
  H+  H253  1  0.47846166  0.61119591  0.83274751  1
  H+  H254  1  0.51753147  0.37701697  0.82949144  1
  H+  H255  1  0.27955213  0.13613853  0.82409024  1
  H+  H256  1  0.13768447  0.52715282  0.32140958  1
  H+  H257  1  0.46534364  0.09866016  0.98655802  1
  H+  H258  1  0.11949904  0.87668829  -0.01907353  1
  H+  H259  1  0.60670661  0.47093049  0.48883181  1
  H+  H260  1  0.73015330  0.87159529  0.66617233  1
  H+  H261  1  0.87875673  0.24290024  0.81552025  1
  H+  H262  1  1.03011390  0.63545283  0.14511169  1
  H+  H263  1  0.63297166  0.36310354  0.50229209  1
  H+  H264  1  0.63322251  0.77166669  0.65596970  1
  H+  H265  1  0.85425238  0.13006352  -0.00339091  1
  H+  H266  1  0.90056996  0.68338738  0.71358456  1
  H+  H267  1  1.03108981  0.63157592  0.49966677  1
  H+  H268  1  0.12763926  0.49916577  0.69632355  1
  H+  H269  1  0.13996072  0.01244452  0.97497023  1
  H+  H270  1  0.38267124  0.35553672  0.32144012  1
  H+  H271  1  0.64087400  0.35326931  0.18235624  1
  H+  H272  1  0.63679680  0.10442435  0.50518385  1
  H+  H273  1  0.36708357  0.47862592  0.47898451  1
  H+  H274  1  0.51783590  0.64409293  0.66042676  1
  H+  H275  1  0.51867855  0.35335577  0.16144544  1
  H+  H276  1  0.60690135  0.11606278  0.99306486  1
  H+  H277  1  0.50323605  0.10025683  0.48677292  1
  H+  H278  1  0.35127525  0.84129353  0.84688547  1
  H+  H279  1  0.27281218  0.38170392  0.61787504  1
  H+  H280  1  0.51919438  0.88602776  0.99844996  1
  H+  H281  1  0.41510431  0.31557963  0.22772153  1
  H+  H282  1  0.26870706  0.63712050  0.33086238  1
  H+  H283  1  0.84883236  0.89896523  0.68894872  1
  H+  H284  1  0.64231675  0.28036167  0.33615930  1
  H+  H285  1  0.79009854  0.64485912  0.14189949  1
  H+  H286  1  0.04386759  0.90209216  0.81652192  1
  H+  H287  1  0.99268519  0.37144575  0.82061446  1
  H+  H288  1  0.93123439  0.58369043  0.93258344  1
  H+  H289  1  0.61101630  0.73160544  0.49947847  1
  H+  H290  1  0.56491924  0.21700777  0.11411559  1
  H+  H291  1  0.84384140  0.67715447  0.04416860  1
  H+  H292  1  0.19708600  0.61208557  0.91505696  1
  H+  H293  1  0.98005897  0.60877856  0.32200617  1
  H+  H294  1  0.81458608  0.03302448  0.93711453  1
  H+  H295  1  0.65729930  0.82978900  0.89359777  1
  H+  H296  1  0.08194504  0.66599016  0.39730030  1
  H+  H297  1  0.91859992  0.09668192  0.60533550  1
  H+  H298  1  0.17793091  0.59663402  0.22523598  1
  H+  H299  1  0.10455446  0.17618920  0.76108231  1
  H+  H300  1  0.41283368  0.07904598  0.89565714  1
  H+  H301  1  0.67319181  0.08816875  0.88999977  1
  H+  H302  1  0.56896781  0.91234734  0.76625683  1
  H+  H303  1  0.25469698  0.47111877  0.11504428  1
  H+  H304  1  0.07746258  0.38170388  0.09346868  1
  H+  H305  1  0.67339074  0.84097538  0.59549200  1
  H+  H306  1  0.68123153  0.86779285  0.21836422  1
  H+  H307  1  0.87559004  0.92895950  0.34715837  1
  H+  H308  1  0.82789463  0.15708414  0.39819887  1
  H+  H309  1  0.16835063  0.82623794  0.56953437  1
  H+  H310  1  0.76944192  0.87720817  0.99480537  1
  H+  H311  1  0.40259439  0.82053214  0.93606798  1
  H+  H312  1  0.57824034  0.15606971  0.39156602  1
  H+  H313  1  0.76190002  0.90067609  0.82909205  1
  H+  H314  1  0.41542105  0.58475065  0.58489320  1
  H+  H315  1  0.89918522  0.62302905  0.98369251  1
  H+  H316  1  0.82928345  0.17152925  0.73008617  1
  H+  H317  1  0.35482731  0.68099464  0.41219404  1
  H+  H318  1  0.91647912  0.08477850  0.21787145  1
  H+  H319  1  0.12697747  0.18203478  0.07490208  1
  H+  H320  1  0.52850931  0.04505638  0.44586681  1
  H+  H321  1  0.31114015  0.90843158  0.78031266  1
  H+  H322  1  0.41181158  0.33632548  0.55627704  1
  H+  H323  1  0.30420164  0.14226213  0.09615885  1
  H+  H324  1  0.34047786  0.66056850  0.72409771  1
  H+  H325  1  0.40864817  0.57770880  0.25710460  1
  H+  H326  1  0.08797273  0.92667385  0.07779043  1
  H+  H327  1  0.13299490  0.98976055  0.81777495  1
  H+  H328  1  0.11055832  0.72723782  0.33851203  1
  H+  H329  1  0.10616452  0.18972284  0.44387775  1
  H+  H330  1  0.66559686  0.32107253  0.92994917  1
  H+  H331  1  0.34006648  0.66722097  0.06908142  1
  H+  H332  1  0.93934554  0.56443584  0.58774766  1
  H+  H333  1  0.91711303  0.57737368  0.68539282  1
  H+  H334  1  0.13966571  0.07926395  0.59243334  1
  H+  H335  1  0.23033366  0.11594894  0.33023184  1
  H+  H336  1  0.91602976  0.32263976  0.22833711  1
  H+  H337  1  0.31911737  0.90684139  0.05508572  1
  H+  H338  1  0.87995045  0.79845437  0.68766372  1
  H+  H339  1  0.90418733  0.78779320  0.14786936  1
  H+  H340  1  0.41855357  0.84320679  0.26232025  1
  H+  H341  1  0.35247387  0.12644367  0.00714273  1
  H+  H342  1  0.98385022  0.35612081  0.98211531  1
  H+  H343  1  0.27774508  0.39845386  0.68734256  1
  H+  H344  1  0.83346111  0.64631596  0.80771257  1
  H+  H345  1  0.41716836  0.07492677  0.60485522  1
  H+  H346  1  0.60920087  0.73065047  0.81530655  1
  H+  H347  1  0.13692917  0.86539613  0.31936138  1
  H+  H348  1  0.83334176  0.16816790  0.05580037  1
  H+  H349  1  0.80841030  0.92910553  0.73963640  1
  H+  H350  1  0.14344480  0.76939412  0.16519815  1
  H+  H351  1  0.16691577  0.32962983  0.26459773  1
  H+  H352  1  0.57192727  0.13778760  0.05362131  1
  H+  H353  1  0.17047258  0.14042550  0.16493582  1
  H+  H354  1  0.83680566  0.42114223  0.76399676  1
  H+  H355  1  0.41497525  0.58146594  0.92998457  1
  H+  H356  1  0.71270724  0.60887949  0.49424952  1
  H+  H357  1  0.93842113  0.33988195  0.88287921  1
  H+  H358  1  0.53744576  0.57074501  0.38881624  1
  H+  H359  1  0.26953636  0.87931304  0.15257384  1
  H+  H360  1  0.32755154  0.91687920  0.43060774  1
  H+  H361  1  0.65660603  0.58023813  0.55650818  1
  H+  H362  1  0.05530504  0.89553547  0.38477148  1
  H+  H363  1  0.33389738  0.41434965  0.41415863  1
  H+  H364  1  0.58154159  0.92010475  0.05615148  1
  H+  H365  1  0.92529723  0.82678707  0.23659247  1
  H+  H366  1  0.67066331  0.33466239  0.60276390  1
  H+  H367  1  0.33948947  0.16273576  0.39642287  1
  H+  H368  1  0.86179798  0.88447872  0.99177621  1
  H+  H369  1  0.57981779  0.41167958  0.42935941  1
  H+  H370  1  0.57145945  0.40741089  0.76686949  1
  H+  H371  1  0.17534076  0.07999089  0.89081880  1
  H+  H372  1  0.67515659  0.33770595  0.27548639  1
  H+  H373  1  0.10215193  0.92947185  0.72900518  1
  H+  H374  1  0.38341460  0.60863693  0.99079830  1
  H+  H375  1  0.92283335  0.58086148  0.21733322  1
  H+  H376  1  0.92456301  0.84493324  0.91796314  1
  H+  H377  1  0.57216542  0.38119680  0.06449497  1
  H+  H378  1  0.14010913  0.60871584  0.99560699  1
  H+  H379  1  0.57663469  0.67560844  0.06113724  1
  H+  H380  1  0.35019124  0.40240152  0.77744141  1
  H+  H381  1  0.36646088  0.22534693  0.48932147  1
  H+  H382  1  0.88148066  0.79746285  0.55386275  1
  H+  H383  1  0.40631194  0.83776722  0.60280464  1
  O2-  O384  1  0.13381860  0.16983482  0.16236056  1
  O2-  O385  1  0.09819746  0.17792369  0.48843708  1
  O2-  O386  1  0.09412348  0.16233322  0.80533680  1
  O2-  O387  1  0.07749069  0.37512453  0.13843369  1
  O2-  O388  1  0.08546435  0.42398050  0.47701408  1
  O2-  O389  1  0.10025265  0.44946885  0.77753300  1
  O2-  O390  1  0.09160459  0.66746417  0.13332437  1
  O2-  O391  1  0.08803012  0.66429638  0.47982338  1
  O2-  O392  1  0.11190771  0.68889187  0.82960798  1
  O2-  O393  1  0.07800826  0.93775773  0.12046786  1
  O2-  O394  1  0.07035117  0.90532373  0.52735913  1
  O2-  O395  1  0.10190156  0.92925456  0.79976464  1
  O2-  O396  1  0.30849632  0.14345523  0.14273219  1
  O2-  O397  1  0.34163943  0.16473876  0.47594738  1
  O2-  O398  1  0.34249133  0.16736130  0.81186404  1
  O2-  O399  1  0.29240894  0.44989459  0.12871936  1
  O2-  O400  1  0.33874155  0.41696799  0.46295089  1
  O2-  O401  1  0.35001688  0.41006591  0.82116425  1
  O2-  O402  1  0.34509145  0.67815685  0.14587296  1
  O2-  O403  1  0.38153228  0.69400712  0.45499151  1
  O2-  O404  1  0.33917949  0.65071429  0.79693970  1
  O2-  O405  1  0.32958420  0.91135349  0.13342047  1
  O2-  O406  1  0.32878801  0.91738880  0.47642567  1
  O2-  O407  1  0.31363705  0.91015144  0.82580117  1
  O2-  O408  1  0.56499543  0.17117578  0.13789411  1
  O2-  O409  1  0.55313407  0.10305665  0.46245439  1
  O2-  O410  1  0.58202194  0.16661407  0.80737216  1
  O2-  O411  1  0.58146994  0.38329350  0.14767422  1
  O2-  O412  1  0.57891075  0.40991058  0.47518796  1
  O2-  O413  1  0.57696071  0.41234581  0.81176479  1
  O2-  O414  1  0.58227798  0.68376047  0.14144846  1
  O2-  O415  1  0.57812214  0.67257714  0.48274080  1
  O2-  O416  1  0.57819689  0.67233607  0.79606207  1
  O2-  O417  1  0.58276443  0.92373894  0.13431513  1
  O2-  O418  1  0.58708447  0.91688548  0.48732315  1
  O2-  O419  1  0.57679093  0.91776972  0.81241043  1
  O2-  O420  1  0.83588062  0.16331978  0.13396129  1
  O2-  O421  1  0.83113185  0.16360397  0.47680123  1
  O2-  O422  1  0.84371516  0.17974092  0.80141724  1
  O2-  O423  1  0.84125814  0.41487286  0.14443799  1
  O2-  O424  1  0.83390344  0.42565724  0.47744757  1
  O2-  O425  1  0.82314615  0.45039450  0.79621255  1
  O2-  O426  1  0.84953168  0.67408981  0.12787925  1
  O2-  O427  1  0.81490020  0.66240646  0.45171643  1
  O2-  O428  1  0.81502537  0.66934128  0.84184078  1
  O2-  O429  1  0.83996190  0.92285445  0.14503584  1
  O2-  O430  1  0.84317460  0.93012344  0.48516938  1
  O2-  O431  1  0.82114894  0.93099287  0.81026347  1
  O2-  O432  1  0.22152000  0.09134819  0.16763492  1
  O2-  O433  1  0.17654192  0.08640221  0.51307684  1
  O2-  O434  1  0.17969590  0.08366624  0.84373903  1
  O2-  O435  1  0.17030462  0.32536653  0.19387524  1
  O2-  O436  1  0.18899687  0.30317050  0.57546429  1
  O2-  O437  1  0.17272450  0.32049195  0.85616685  1
  O2-  O438  1  0.18671379  0.60023902  0.18075687  1
  O2-  O439  1  0.17087540  0.58349484  0.52781448  1
  O2-  O440  1  0.21568645  0.64488803  0.87480195  1
  O2-  O441  1  0.17660690  0.82928837  0.18080081  1
  O2-  O442  1  0.16456986  0.82945510  0.52396079  1
  O2-  O443  1  0.16689370  0.83110185  0.88412307  1
  O2-  O444  1  0.40788268  0.08047964  0.17995404  1
  O2-  O445  1  0.41613311  0.07831302  0.52280917  1
  O2-  O446  1  0.41556414  0.07699780  0.85002620  1
  O2-  O447  1  0.42132129  0.31450517  0.18301880  1
  O2-  O448  1  0.41136084  0.33702402  0.51025928  1
  O2-  O449  1  0.41978668  0.32321160  0.86069754  1
  O2-  O450  1  0.41803820  0.59261656  0.18389368  1
  O2-  O451  1  0.41098033  0.57377507  0.50588922  1
  O2-  O452  1  0.41967972  0.57820768  0.85060533  1
  O2-  O453  1  0.42022362  0.84371690  0.18416331  1
  O2-  O454  1  0.41686634  0.84386095  0.52120398  1
  O2-  O455  1  0.36515140  0.79729319  0.86226914  1
  O2-  O456  1  0.66548447  0.09186425  0.17158968  1
  O2-  O457  1  0.67342148  0.08585519  0.52687631  1
  O2-  O458  1  0.67407993  0.09184417  0.84444667  1
  O2-  O459  1  0.67552467  0.32901115  0.20204506  1
  O2-  O460  1  0.66824395  0.33768422  0.51813895  1
  O2-  O461  1  0.66878099  0.33472757  0.85075386  1
  O2-  O462  1  0.61221714  0.55032833  0.17929398  1
  O2-  O463  1  0.65359380  0.57848570  0.51114731  1
  O2-  O464  1  0.63705062  0.57662407  0.84571159  1
  O2-  O465  1  0.67931747  0.85298113  0.17345573  1
  O2-  O466  1  0.67383126  0.84299720  0.52768599  1
  O2-  O467  1  0.65997646  0.83323298  0.84754162  1
  O2-  O468  1  0.91438324  0.07693248  0.17315515  1
  O2-  O469  1  0.92826600  0.10005410  0.52543788  1
  O2-  O470  1  0.92382859  0.09461612  0.83974714  1
  O2-  O471  1  0.91333862  0.32006333  0.18266842  1
  O2-  O472  1  0.91357098  0.33208902  0.50694247  1
  O2-  O473  1  0.93433607  0.33686050  0.83762289  1
  O2-  O474  1  0.91971089  0.58256812  0.17262862  1
  O2-  O475  1  0.93102439  0.57400814  0.54311271  1
  O2-  O476  1  0.94430314  0.58379454  0.85007419  1
  O2-  O477  1  0.92930903  0.84570490  0.16662326  1
  O2-  O478  1  0.90118305  0.81489417  0.51217350  1
  O2-  O479  1  0.90524936  0.84458104  0.82578391  1
  O2-  O480  1  0.16875011  0.09446570  0.32001884  1
  O2-  O481  1  0.10201888  0.06463356  0.62840189  1
  O2-  O482  1  0.16446724  0.07153356  0.95827783  1
  O2-  O483  1  0.16828513  0.33421902  0.31131281  1
  O2-  O484  1  0.07152879  0.31163208  0.64283163  1
  O2-  O485  1  0.16906495  0.32887737  0.97417587  1
  O2-  O486  1  0.16933177  0.58874225  0.30846854  1
  O2-  O487  1  0.17507805  0.58650465  0.64867146  1
  O2-  O488  1  0.17057380  0.57730322  0.98249477  1
  O2-  O489  1  0.16431860  0.83073303  0.31155540  1
  O2-  O490  1  0.16630615  0.83106886  0.64614807  1
  O2-  O491  1  0.17184545  0.82766335  0.95162872  1
  O2-  O492  1  0.41482765  0.07852873  0.30484286  1
  O2-  O493  1  0.42194885  0.07913597  0.64989198  1
  O2-  O494  1  0.40490319  0.07442772  0.97249805  1
  O2-  O495  1  0.41270164  0.32450751  0.30886750  1
  O2-  O496  1  0.41254115  0.33206207  0.63223715  1
  O2-  O497  1  0.40902215  0.31680250  0.98127277  1
  O2-  O498  1  0.40363135  0.57197204  0.30321639  1
  O2-  O499  1  0.41823861  0.58608033  0.63021041  1
  O2-  O500  1  0.41451552  0.57923981  0.97532604  1
  O2-  O501  1  0.41564904  0.83962962  0.30790370  1
  O2-  O502  1  0.40489615  0.83494326  0.64794807  1
  O2-  O503  1  0.41278982  0.82763152  0.98089810  1
  O2-  O504  1  0.70625005  0.16007021  0.28602037  1
  O2-  O505  1  0.67073839  0.09902818  0.64571854  1
  O2-  O506  1  0.66731535  0.07890608  0.96701925  1
  O2-  O507  1  0.67568702  0.34188361  0.32161500  1
  O2-  O508  1  0.67316795  0.33613744  0.64770744  1
  O2-  O509  1  0.66237633  0.31483842  0.97514000  1
  O2-  O510  1  0.66022613  0.56882955  0.29681648  1
  O2-  O511  1  0.64690658  0.58127771  0.63538239  1
  O2-  O512  1  0.67673697  0.60694905  0.97243287  1
  O2-  O513  1  0.70360619  0.91419578  0.28314770  1
  O2-  O514  1  0.66810436  0.83546762  0.64305953  1
  O2-  O515  1  0.65944594  0.83053093  0.96826108  1
  O2-  O516  1  0.92872866  0.10484542  0.29684825  1
  O2-  O517  1  0.90931452  0.09413730  0.65004711  1
  O2-  O518  1  0.87049544  0.05709074  0.95681933  1
  O2-  O519  1  0.91785864  0.32660714  0.30481049  1
  O2-  O520  1  0.91998960  0.31162119  0.62901560  1
  O2-  O521  1  0.92562053  0.33074448  0.96271837  1
  O2-  O522  1  0.92002846  0.57369705  0.30512480  1
  O2-  O523  1  0.94770591  0.55542508  0.66082765  1
  O2-  O524  1  0.93257741  0.59370566  0.97676271  1
  O2-  O525  1  0.91690887  0.81498548  0.28254587  1
  O2-  O526  1  0.91416604  0.85632948  0.70372861  1
  O2-  O527  1  0.92430229  0.84112946  0.96243028  1
  O2-  O528  1  0.10048275  0.16971567  0.03458530  1
  O2-  O529  1  0.09565324  0.17169424  0.36510420  1
  O2-  O530  1  0.13451955  0.20784247  0.68596047  1
  O2-  O531  1  0.08312466  0.40094011  0.01467337  1
  O2-  O532  1  0.08783377  0.42222632  0.34720787  1
  O2-  O533  1  0.09210235  0.44086963  0.71580158  1
  O2-  O534  1  0.09503662  0.67063778  0.00936396  1
  O2-  O535  1  0.07925151  0.66564849  0.35215990  1
  O2-  O536  1  0.10635751  0.67517674  0.70125668  1
  O2-  O537  1  0.09229993  0.90813854  0.00009820  1
  O2-  O538  1  0.06260206  0.91473552  0.34266432  1
  O2-  O539  1  0.09136307  0.92145204  0.68267144  1
  O2-  O540  1  0.32290276  0.15567342  0.02481684  1
  O2-  O541  1  0.33614613  0.16018194  0.35107589  1
  O2-  O542  1  0.33754867  0.16589606  0.69052944  1
  O2-  O543  1  0.33619643  0.41291525  0.01596886  1
  O2-  O544  1  0.32763340  0.41191114  0.34942892  1
  O2-  O545  1  0.31471066  0.41342837  0.65153266  1
  O2-  O546  1  0.33560808  0.66208336  0.02354920  1
  O2-  O547  1  0.33173608  0.66752259  0.34268977  1
  O2-  O548  1  0.33852546  0.66804279  0.67854226  1
  O2-  O549  1  0.32598058  0.90861022  0.00970130  1
  O2-  O550  1  0.33026243  0.91658684  0.35322043  1
  O2-  O551  1  0.32594958  0.91665087  0.70000305  1
  O2-  O552  1  0.57185404  0.14171783  0.00905792  1
  O2-  O553  1  0.58466089  0.17540067  0.34850312  1
  O2-  O554  1  0.58592228  0.16702760  0.68648167  1
  O2-  O555  1  0.56654936  0.38283764  0.01999816  1
  O2-  O556  1  0.57856831  0.41213268  0.35290356  1
  O2-  O557  1  0.57430855  0.40941446  0.68308515  1
  O2-  O558  1  0.57754237  0.67263752  0.01600231  1
  O2-  O559  1  0.56038748  0.61762463  0.35934544  1
  O2-  O560  1  0.57885656  0.67515599  0.67573413  1
  O2-  O561  1  0.58137513  0.91747006  0.01061948  1
  O2-  O562  1  0.58471022  0.92367000  0.35359093  1
  O2-  O563  1  0.56535785  0.90887487  0.69436048  1
  O2-  O564  1  0.82875253  0.16536875  0.01041706  1
  O2-  O565  1  0.82795898  0.16075332  0.35286324  1
  O2-  O566  1  0.82003670  0.16223310  0.68417306  1
  O2-  O567  1  0.82255669  0.37604339  0.03078519  1
  O2-  O568  1  0.83163982  0.43049834  0.35893073  1
  O2-  O569  1  0.84908657  0.39427439  0.68391080  1
  O2-  O570  1  0.84014220  0.67739598  -0.00078450  1
  O2-  O571  1  0.83005040  0.65453720  0.32547636  1
  O2-  O572  1  0.86759345  0.62820074  0.73423549  1
  O2-  O573  1  0.83033935  0.91275873  0.00733483  1
  O2-  O574  1  0.92881275  0.98252875  0.36981050  1
  O2-  O575  1  0.80926735  0.92269590  0.69309289  1
