# generated using pymatgen
data_H2O
_symmetry_space_group_name_H-M   'P 1'
_cell_length_a   17.97708745
_cell_length_b   17.98581933
_cell_length_c   21.99707613
_cell_angle_alpha   90.00402583
_cell_angle_beta   89.96126250
_cell_angle_gamma   119.98597491
_symmetry_Int_Tables_number   1
_chemical_formula_structural   H2O
_chemical_formula_sum   'H384 O192'
_cell_volume   6160.36418183
_cell_formula_units_Z   192
loop_
 _symmetry_equiv_pos_site_id
 _symmetry_equiv_pos_as_xyz
  1  'x, y, z'
loop_
 _atom_type_symbol
 _atom_type_oxidation_number
  H+  1.0
  O2-  -2.0
loop_
 _atom_site_type_symbol
 _atom_site_label
 _atom_site_symmetry_multiplicity
 _atom_site_fract_x
 _atom_site_fract_y
 _atom_site_fract_z
 _atom_site_occupancy
  H+  H0  1  0.61571530  0.51281796  0.48313753  1
  H+  H1  1  0.13485876  0.52924103  0.18454984  1
  H+  H2  1  0.14173138  0.11058552  0.17928203  1
  H+  H3  1  0.76249763  0.45062350  -0.00201277  1
  H+  H4  1  0.63013891  0.86331453  0.99760732  1
  H+  H5  1  0.37014882  0.51116539  0.17708170  1
  H+  H6  1  0.59120658  0.68684198  0.14608417  1
  H+  H7  1  0.85595976  0.62450011  0.65929361  1
  H+  H8  1  0.74330735  0.92540468  0.17563594  1
  H+  H9  1  0.83214273  0.92522363  0.09802791  1
  H+  H10  1  0.63739078  0.36320229  0.34422217  1
  H+  H11  1  0.35012657  0.47289221  0.34092028  1
  H+  H12  1  0.14885443  0.76290364  -0.00202011  1
  H+  H13  1  0.04755493  0.93015599  0.52154820  1
  H+  H14  1  0.11427883  0.24253082  0.34332036  1
  H+  H15  1  0.14357000  0.79484169  0.50777818  1
  H+  H16  1  0.67118753  0.08472788  0.59943191  1
  H+  H17  1  0.37653889  0.37250219  0.34856616  1
  H+  H18  1  1.01809432  0.38473956  0.66035194  1
  H+  H19  1  0.61163925  0.38533585  0.17479210  1
  H+  H20  1  0.86157523  0.14047693  0.33676523  1
  H+  H21  1  0.16822247  0.33861890  0.09943590  1
  H+  H22  1  0.60025133  0.76374539  0.83871304  1
  H+  H23  1  0.81197809  0.40823703  0.72141686  1
  H+  H24  1  -0.00042480  0.87468127  0.67349312  1
  H+  H25  1  0.36630125  0.87871686  0.49472663  1
  H+  H26  1  0.36193117  0.48859899  0.49600766  1
  H+  H27  1  0.11923356  0.64330135  0.34843955  1
  H+  H28  1  0.61175041  0.97425336  0.66657610  1
  H+  H29  1  0.08558960  0.62359656  0.04236162  1
  H+  H30  1  0.37077238  0.71976635  0.81719970  1
  H+  H31  1  0.77715102  0.44238510  0.96819549  1
  H+  H32  1  0.71213898  0.36409929  0.49306494  1
  H+  H33  1  0.63709057  0.65099276  0.47525560  1
  H+  H34  1  0.32779481  0.67276960  0.07568180  1
  H+  H35  1  0.36127386  0.91674134  0.01721525  1
  H+  H36  1  0.23319320  0.85503503  0.99503793  1
  H+  H37  1  0.59818943  0.63056204  -0.00991919  1
  H+  H38  1  0.17010374  0.49254240  0.01357446  1
  H+  H39  1  0.42127216  0.34070093  0.29800412  1
  H+  H40  1  0.12991610  0.64307360  0.81981476  1
  H+  H41  1  0.90163456  0.50190812  1.02870550  1
  H+  H42  1  0.38005311  0.20189408  0.00458006  1
  H+  H43  1  0.65469493  0.57143773  0.91584162  1
  H+  H44  1  0.03998621  0.88467207  0.33832973  1
  H+  H45  1  0.14437432  0.37050463  0.82458650  1
  H+  H46  1  0.98049404  0.54987377  0.62568062  1
  H+  H47  1  0.89579251  0.27234640  0.50495369  1
  H+  H48  1  0.11698243  0.15278874  0.48425668  1
  H+  H49  1  0.13726883  0.78300360  0.18696354  1
  H+  H50  1  0.86293171  0.63869519  0.16802038  1
  H+  H51  1  0.46264886  0.34612102  0.67316980  1
  H+  H52  1  0.51966780  0.63187315  0.65676567  1
  H+  H53  1  0.11367292  0.21738235  0.14959323  1
  H+  H54  1  0.82710781  0.13580948  0.74294081  1
  H+  H55  1  0.60909848  0.47217823  0.66070430  1
  H+  H56  1  0.88377953  0.35237977  0.65601184  1
  H+  H57  1  0.37236501  0.72287436  0.66596370  1
  H+  H58  1  0.08459058  0.15150796  0.09576401  1
  H+  H59  1  0.85244584  0.98247253  0.34746795  1
  H+  H60  1  0.37735049  0.79967288  1.01107160  1
  H+  H61  1  0.22971144  0.34495973  0.97682049  1
  H+  H62  1  0.02726053  0.89286289  0.16455033  1
  H+  H63  1  0.27332785  0.39352565  0.81886100  1
  H+  H64  1  0.34875828  0.62731163  0.34287625  1
  H+  H65  1  0.13647401  0.92835202  0.51648233  1
  H+  H66  1  0.39126671  0.36112620  0.20934257  1
  H+  H67  1  0.63697272  0.51648035  0.18417207  1
  H+  H68  1  0.97339378  0.61974858  0.18932274  1
  H+  H69  1  0.61312902  0.88588003  0.67097073  1
  H+  H70  1  0.57706081  0.57380892  0.33789666  1
  H+  H71  1  0.75926179  0.62091218  0.49156939  1
  H+  H72  1  0.25331491  0.62837480  0.98396941  1
  H+  H73  1  0.62326144  0.64056919  0.81234036  1
  H+  H74  1  0.61120157  0.13793375  0.16590387  1
  H+  H75  1  0.47824992  0.86152778  0.65173631  1
  H+  H76  1  0.77288359  0.13464140  0.49125074  1
  H+  H77  1  0.53662801  0.39688279  0.81144040  1
  H+  H78  1  0.23378163  0.10343024  -0.01200705  1
  H+  H79  1  0.93135388  0.60039735  0.94479301  1
  H+  H80  1  0.72650413  0.36628342  0.18571113  1
  H+  H81  1  0.15994220  0.60919187  0.96781559  1
  H+  H82  1  0.45107541  0.60856159  0.49842387  1
  H+  H83  1  0.60432597  0.22273168  0.49140732  1
  H+  H84  1  0.99429404  0.62057365  0.84829778  1
  H+  H85  1  0.48157093  0.36520973  0.20090121  1
  H+  H86  1  0.87520990  0.61567168  0.50917799  1
  H+  H87  1  0.34706130  0.62329892  0.49410358  1
  H+  H88  1  0.57933165  0.97046717  0.15865734  1
  H+  H89  1  0.89197558  0.03092415  -0.01521362  1
  H+  H90  1  0.11145273  0.09466098  0.84520579  1
  H+  H91  1  0.78230427  0.39263973  0.34185416  1
  H+  H92  1  0.14680721  0.77850468  0.83758534  1
  H+  H93  1  0.38598884  0.85603241  0.64617840  1
  H+  H94  1  0.00468513  0.36840669  0.01138061  1
  H+  H95  1  0.79018397  0.11808861  0.82937682  1
  H+  H96  1  0.87818803  0.89626870  0.82393159  1
  H+  H97  1  0.87306950  0.40327351  0.02466150  1
  H+  H98  1  0.98427374  0.11213569  0.17170099  1
  H+  H99  1  0.62800989  0.10240428  1.00066127  1
  H+  H100  1  0.37812466  0.76034537  0.49937420  1
  H+  H101  1  0.25778641  0.12654720  0.81975763  1
  H+  H102  1  0.36597379  0.58402349  0.96479753  1
  H+  H103  1  0.90812207  0.78691367  0.66180373  1
  H+  H104  1  0.37687958  0.34684814  0.66971102  1
  H+  H105  1  0.60310124  0.22110389  0.81177595  1
  H+  H106  1  0.87345597  0.89095955  0.67479397  1
  H+  H107  1  0.37037330  0.46681276  -0.02259230  1
  H+  H108  1  0.27026377  0.37125592  0.16146954  1
  H+  H109  1  0.17832143  0.84235474  0.27608153  1
  H+  H110  1  0.26886504  0.89624961  0.17023298  1
  H+  H111  1  0.77179162  0.64210097  0.01480062  1
  H+  H112  1  0.61835737  0.35381510  0.48612394  1
  H+  H113  1  0.38869958  0.28963266  0.47482606  1
  H+  H114  1  0.60465784  0.22252414  0.65343670  1
  H+  H115  1  0.03092576  0.38535987  0.79828509  1
  H+  H116  1  0.35276721  0.88797402  0.16635966  1
  H+  H117  1  0.88475702  0.52885936  0.19010845  1
  H+  H118  1  0.48578032  0.10855486  0.50030341  1
  H+  H119  1  0.36607989  0.75178569  0.33065011  1
  H+  H120  1  0.22055901  0.60867547  0.33581176  1
  H+  H121  1  0.64768625  0.76523563  0.20405760  1
  H+  H122  1  0.13125310  0.51895237  0.33480799  1
  H+  H123  1  0.65212746  0.78536750  0.50851691  1
  H+  H124  1  0.88888912  0.78400159  -0.00008172  1
  H+  H125  1  0.39179734  1.00788184  0.49987056  1
  H+  H126  1  0.61262781  0.45925189  0.01482582  1
  H+  H127  1  0.63550553  0.60225357  0.19458691  1
  H+  H128  1  0.60805225  0.23941957  0.98998779  1
  H+  H129  1  0.84157962  0.21693677  0.00118987  1
  H+  H130  1  0.63763559  0.27672484  0.18325033  1
  H+  H131  1  0.28114230  0.89012029  0.49622330  1
  H+  H132  1  0.63224227  0.77629779  0.99332461  1
  H+  H133  1  0.12169241  0.05066714  0.61030440  1
  H+  H134  1  0.39030175  0.51799160  0.82390965  1
  H+  H135  1  0.13139864  0.36482259  0.65350303  1
  H+  H136  1  0.87126580  0.98396772  0.15740414  1
  H+  H137  1  0.65726026  0.50352397  0.34430707  1
  H+  H138  1  0.45337582  0.85203019  0.17568014  1
  H+  H139  1  0.64530501  0.90646170  0.17510034  1
  H+  H140  1  0.15016135  0.87251555  0.33655390  1
  H+  H141  1  0.36439049  0.22773572  0.18790155  1
  H+  H142  1  0.35381434  0.13873176  0.82212446  1
  H+  H143  1  0.58185616  0.88557063  0.82752346  1
  H+  H144  1  -0.01469028  0.36604260  0.33273008  1
  H+  H145  1  0.23320437  0.11634785  0.18573052  1
  H+  H146  1  0.97933197  0.12202103  0.50742835  1
  H+  H147  1  0.88992174  0.34415220  0.81477177  1
  H+  H148  1  0.12330403  0.97633128  0.34490621  1
  H+  H149  1  0.88354833  0.64804326  0.35533681  1
  H+  H150  1  0.27945046  0.15963974  0.45910678  1
  H+  H151  1  0.41804851  0.31004846  0.93403120  1
  H+  H152  1  0.52000761  0.88134395  0.49706418  1
  H+  H153  1  0.38424285  0.01545146  0.64189793  1
  H+  H154  1  0.55056154  0.54962496  0.36502733  1
  H+  H155  1  0.12501500  0.97164462  0.69138063  1
  H+  H156  1  0.12327536  1.01235245  0.83913759  1
  H+  H157  1  0.26332763  0.88361772  0.65719725  1
  H+  H158  1  0.67986032  0.75049643  0.20911897  1
  H+  H159  1  0.52539963  0.37133557  0.01428994  1
  H+  H160  1  0.15782167  0.39952119  0.01371409  1
  H+  H161  1  0.36434592  0.14240784  0.17247441  1
  H+  H162  1  0.39470685  0.34432731  -0.00844008  1
  H+  H163  1  0.51443016  0.89143222  1.00852987  1
  H+  H164  1  0.59489221  0.42031718  0.75223178  1
  H+  H165  1  1.02620631  0.65502303  0.67666060  1
  H+  H166  1  0.91766564  0.57054901  0.58968191  1
  H+  H167  1  0.61260203  0.88778511  0.50264804  1
  H+  H168  1  0.16424451  0.58710400  0.24494929  1
  H+  H169  1  0.38770593  0.52289047  0.64674945  1
  H+  H170  1  0.85224972  0.10915550  0.67160985  1
  H+  H171  1  0.16041858  1.05836355  0.50365627  1
  H+  H172  1  0.50092165  0.38222372  0.46835918  1
  H+  H173  1  0.63429619  0.02180914  0.51005878  1
  H+  H174  1  0.97632000  0.12252976  0.32993285  1
  H+  H175  1  0.35696095  0.04001436  1.00938053  1
  H+  H176  1  0.58351552  0.75729811  0.33821487  1
  H+  H177  1  0.11051415  0.97612659  0.00958755  1
  H+  H178  1  0.72983561  0.86003478  0.66547695  1
  H+  H179  1  0.47209509  0.13252039  0.82908414  1
  H+  H180  1  0.39162392  0.38106468  0.48858090  1
  H+  H181  1  0.37361347  0.63457463  0.66458171  1
  H+  H182  1  0.96937759  0.62288427  0.50613439  1
  H+  H183  1  0.36471228  0.85306699  0.33558343  1
  H+  H184  1  0.13733618  0.26166027  0.98669407  1
  H+  H185  1  0.63926459  0.36047327  0.83315695  1
  H+  H186  1  0.65520798  1.02553895  0.83970679  1
  H+  H187  1  0.26734817  0.38766692  0.66599498  1
  H+  H188  1  0.60810769  0.97381162  0.01168986  1
  H+  H189  1  0.55910245  0.91182895  0.09926144  1
  H+  H190  1  0.61656788  0.90710185  0.34638540  1
  H+  H191  1  0.12117901  0.48094063  0.49836361  1
  H+  H192  1  0.02900304  0.13251802  0.00050019  1
  H+  H193  1  0.63552586  0.03180337  0.33521229  1
  H+  H194  1  0.84409650  0.92280298  0.73313417  1
  H+  H195  1  0.35182320  0.24865628  0.83593085  1
  H+  H196  1  0.71380173  0.35603679  0.64130206  1
  H+  H197  1  0.63647459  0.11311798  0.65665024  1
  H+  H198  1  0.87268484  0.48132719  0.34377144  1
  H+  H199  1  0.22146712  0.12304673  0.33992194  1
  H+  H200  1  0.86661301  0.98619709  0.49927439  1
  H+  H201  1  0.34531383  0.62498807  0.16082748  1
  H+  H202  1  0.03283230  0.39671936  0.16372011  1
  H+  H203  1  0.62776940  0.33523578  0.99318331  1
  H+  H204  1  0.85640704  0.46536105  0.66262619  1
  H+  H205  1  0.38959622  0.03077877  0.18279567  1
  H+  H206  1  0.11823792  0.98080153  0.16940107  1
  H+  H207  1  0.89898678  0.11935903  0.17303070  1
  H+  H208  1  0.79099013  0.63081681  0.34865255  1
  H+  H209  1  0.84531303  0.48054379  0.49272471  1
  H+  H210  1  0.13130049  0.57676352  0.46306000  1
  H+  H211  1  0.59076877  0.93475283  0.40813141  1
  H+  H212  1  0.56621885  0.15492092  0.07399884  1
  H+  H213  1  0.25853497  0.63232436  0.48991459  1
  H+  H214  1  0.78743570  0.14879471  0.16361484  1
  H+  H215  1  0.71283106  0.60579970  0.63527194  1
  H+  H216  1  0.10935976  0.64339688  0.17958578  1
  H+  H217  1  0.88689205  0.12692364  0.81894352  1
  H+  H218  1  0.56505462  0.51222911  0.94406258  1
  H+  H219  1  0.90124158  0.28688356  0.17703245  1
  H+  H220  1  0.92342834  0.59206070  0.28151770  1
  H+  H221  1  0.98571289  0.86722888  0.84478850  1
  H+  H222  1  0.11861642  0.13128381  1.00163269  1
  H+  H223  1  0.36000734  0.85113440  0.85715471  1
  H+  H224  1  0.61091899  0.38318733  0.66015693  1
  H+  H225  1  0.88295838  1.01505696  0.65822808  1
  H+  H226  1  0.71924152  0.10571383  1.00435731  1
  H+  H227  1  0.25592227  0.38073519  0.34403871  1
  H+  H228  1  0.61199331  0.13809348  0.34274662  1
  H+  H229  1  0.39211323  0.13646594  0.33649647  1
  H+  H230  1  0.25510216  0.11157722  0.66201566  1
  H+  H231  1  0.39278670  0.05542169  0.86309984  1
  H+  H232  1  0.27472004  0.87690772  0.34343563  1
  H+  H233  1  0.45847227  0.62461467  0.32850607  1
  H+  H234  1  0.90710214  0.88898483  0.51519194  1
  H+  H235  1  0.10926438  0.14873075  0.34331018  1
  H+  H236  1  0.13777971  0.87255034  0.18253127  1
  H+  H237  1  0.01566010  0.64755239  0.02447993  1
  H+  H238  1  0.08809794  0.51176812  0.63436464  1
  H+  H239  1  0.11933966  0.38562051  0.34591583  1
  H+  H240  1  0.77311261  0.89408872  0.00232293  1
  H+  H241  1  0.62453729  0.60614924  0.64409573  1
  H+  H242  1  0.74497663  0.62032110  0.83096872  1
  H+  H243  1  0.63898948  0.77088241  0.66039793  1
  H+  H244  1  0.16883532  0.09070192  0.27770154  1
  H+  H245  1  0.50993155  0.38523550  0.37253880  1
  H+  H246  1  0.88422907  0.74441841  0.83639579  1
  H+  H247  1  0.11273310  0.65665947  0.50077000  1
  H+  H248  1  0.99395232  0.35844128  1.04447827  1
  H+  H249  1  0.97882567  0.87280388  1.00119967  1
  H+  H250  1  0.39703877  0.69257459  0.02391087  1
  H+  H251  1  0.89929577  0.26121619  0.80361910  1
  H+  H252  1  0.27449207  0.89892592  0.84309327  1
  H+  H253  1  0.11424705  0.88597300  0.83147239  1
  H+  H254  1  0.63596401  0.11181815  0.50746003  1
  H+  H255  1  0.36537549  0.76222222  0.17493432  1
  H+  H256  1  0.88813492  0.11840158  0.50601576  1
  H+  H257  1  0.11881049  0.47773212  0.80801391  1
  H+  H258  1  0.75864480  0.11363726  0.67714352  1
  H+  H259  1  0.86750346  0.39507337  0.17986914  1
  H+  H260  1  0.90341272  0.77623284  0.32722707  1
  H+  H261  1  0.36709160  0.09307462  0.64799683  1
  H+  H262  1  0.49833057  0.12508420  0.01942728  1
  H+  H263  1  0.52915313  0.62902276  0.81280771  1
  H+  H264  1  0.12630179  0.12628259  0.65150111  1
  H+  H265  1  0.13675702  0.87480619  0.66821100  1
  H+  H266  1  0.72172301  0.88042352  0.33414019  1
  H+  H267  1  0.10080185  0.22734618  0.68024079  1
  H+  H268  1  0.25817657  0.63075841  0.16538724  1
  H+  H269  1  0.90839146  0.62451907  0.85022088  1
  H+  H270  1  0.47781609  0.13116091  0.33276601  1
  H+  H271  1  0.45626333  0.59723985  0.16463789  1
  H+  H272  1  0.75954813  0.29482121  0.97256096  1
  H+  H273  1  0.77845680  0.89707770  0.50414445  1
  H+  H274  1  0.61574757  0.22903682  0.34838462  1
  H+  H275  1  0.51694984  0.13260962  0.65485829  1
  H+  H276  1  0.14143475  0.27992124  0.50405681  1
  H+  H277  1  0.12643640  0.39346354  0.49939533  1
  H+  H278  1  0.77283002  0.63557670  0.16822877  1
  H+  H279  1  0.98533939  0.36015885  0.50817016  1
  H+  H280  1  0.88932380  0.62505051  0.00144605  1
  H+  H281  1  0.10765952  0.56914501  0.57336691  1
  H+  H282  1  0.52238717  0.13840229  0.17052558  1
  H+  H283  1  0.69564629  0.02955403  0.19799030  1
  H+  H284  1  0.88541659  0.86581053  0.16923143  1
  H+  H285  1  0.83788564  0.33105280  0.92920884  1
  H+  H286  1  0.24384263  0.61359921  0.81750217  1
  H+  H287  1  -0.01075745  0.62038178  0.33816362  1
  H+  H288  1  0.72484764  0.12189993  0.32959314  1
  H+  H289  1  0.08179385  0.92176186  0.07090426  1
  H+  H290  1  0.89186040  0.69900908  0.77734295  1
  H+  H291  1  0.93462884  0.09234484  0.92621859  1
  H+  H292  1  0.33944852  0.90329650  0.40215779  1
  H+  H293  1  0.08970078  0.42727692  0.71293053  1
  H+  H294  1  0.80581956  0.63906256  0.71143405  1
  H+  H295  1  0.39247423  0.81313889  0.26801538  1
  H+  H296  1  0.13983080  0.78545687  0.65839285  1
  H+  H297  1  0.86615086  0.14228733  0.00124364  1
  H+  H298  1  0.08429777  0.90917435  0.76666664  1
  H+  H299  1  0.35751247  0.38472126  0.81775564  1
  H+  H300  1  0.86576643  0.23158359  0.33885816  1
  H+  H301  1  0.66303057  0.33843772  0.28049361  1
  H+  H302  1  0.16632122  0.33776795  0.28239198  1
  H+  H303  1  0.35060526  0.66727559  0.75184878  1
  H+  H304  1  0.16870788  0.07801828  0.93114388  1
  H+  H305  1  0.30912466  0.12980915  0.72242826  1
  H+  H306  1  0.07688177  0.67641822  0.12322670  1
  H+  H307  1  0.57688063  0.40969649  0.11577896  1
  H+  H308  1  0.93940762  0.86320490  0.57488326  1
  H+  H309  1  0.08831231  0.41704609  0.40499951  1
  H+  H310  1  0.35585078  0.95521864  0.80011190  1
  H+  H311  1  0.91162033  0.08055928  0.59961629  1
  H+  H312  1  0.03872920  0.14656258  0.78294848  1
  H+  H313  1  0.13960706  0.36495422  0.15758538  1
  H+  H314  1  0.82517112  0.42077455  0.43457668  1
  H+  H315  1  0.57899420  0.16039027  0.43380704  1
  H+  H316  1  0.40373275  0.58180605  0.26741060  1
  H+  H317  1  0.17380119  0.82540271  0.90172670  1
  H+  H318  1  0.33093978  0.42160797  0.72222671  1
  H+  H319  1  0.56809320  0.69817113  0.39531064  1
  H+  H320  1  0.17763118  0.85194207  0.56744186  1
  H+  H321  1  0.57943452  0.65771770  0.71749478  1
  H+  H322  1  0.07602078  0.17890976  0.43023607  1
  H+  H323  1  0.55680948  0.63524062  0.08563731  1
  H+  H324  1  0.36018201  0.24715385  0.36396493  1
  H+  H325  1  0.66879193  0.83525792  0.57315171  1
  H+  H326  1  0.19136608  0.58274190  0.87907845  1
  H+  H327  1  0.39684363  0.84198916  0.94684097  1
  H+  H328  1  0.32367457  0.93387344  0.07761586  1
  H+  H329  1  0.65632741  0.53009630  0.82300984  1
  H+  H330  1  0.62281042  0.81809342  0.89953224  1
  H+  H331  1  0.41315853  0.82068904  0.55896619  1
  H+  H332  1  0.92493966  0.84085456  0.90537021  1
  H+  H333  1  0.16371197  0.32759224  0.60098351  1
  H+  H334  1  0.33403346  0.90842164  0.70896372  1
  H+  H335  1  0.67121275  0.08375211  0.24091838  1
  H+  H336  1  0.41584054  0.57438279  0.90713767  1
  H+  H337  1  0.12472214  0.73600506  0.34536126  1
  H+  H338  1  0.93232757  0.34301599  0.23827163  1
  H+  H339  1  0.01277150  0.13809629  0.67655070  1
  H+  H340  1  0.09295179  0.67373631  0.76546350  1
  H+  H341  1  0.89482158  0.99152581  0.81965978  1
  H+  H342  1  0.91938882  0.08603217  0.26993110  1
  H+  H343  1  0.30979152  0.28434293  0.88076230  1
  H+  H344  1  0.63941618  0.56443384  0.54772231  1
  H+  H345  1  0.29794814  0.76045483  0.88327064  1
  H+  H346  1  0.08457277  0.68583813  0.44179672  1
  H+  H347  1  0.86265769  0.89454920  0.00387172  1
  H+  H348  1  0.85044974  0.43279167  0.12109453  1
  H+  H349  1  0.39725905  0.61215628  0.82313936  1
  H+  H350  1  0.32938894  0.42335492  0.43580789  1
  H+  H351  1  0.51133880  0.63173869  -0.01132157  1
  H+  H352  1  0.41105201  0.58077069  0.58492353  1
  H+  H353  1  0.88631776  0.77717277  0.16907786  1
  H+  H354  1  0.93075671  0.83227815  0.26632853  1
  H+  H355  1  0.58036651  0.92877888  0.76545576  1
  H+  H356  1  0.91886908  0.32928574  0.59625776  1
  H+  H357  1  0.42055259  0.09656140  0.24007361  1
  H+  H358  1  0.35512488  0.38542696  0.12933488  1
  H+  H359  1  0.82858045  0.66705317  0.07525800  1
  H+  H360  1  0.33701185  0.42373687  0.04022219  1
  H+  H361  1  0.98742008  0.32941634  0.90926687  1
  H+  H362  1  0.82297240  0.92465503  0.40727084  1
  H+  H363  1  0.64781267  0.31347639  0.89314551  1
  H+  H364  1  0.10089798  0.64078476  0.66201503  1
  H+  H365  1  0.84270736  0.17506055  0.10262776  1
  H+  H366  1  0.23482079  0.36671847  0.50830975  1
  H+  H367  1  0.86397164  0.45533583  0.85262538  1
  H+  H368  1  0.41500676  0.07550285  0.56121329  1
  H+  H369  1  0.32318461  0.65892131  0.40574425  1
  H+  H370  1  0.68880259  0.07798408  0.90182063  1
  H+  H371  1  0.16693710  0.33640427  0.88550283  1
  H+  H372  1  0.67548467  0.87899067  0.27141592  1
  H+  H373  1  0.83105486  0.16445485  0.43089857  1
  H+  H374  1  0.69672404  0.73372033  0.43732447  1
  H+  H375  1  0.10690408  0.43556043  0.10991809  1
  H+  H376  1  0.20252031  0.14247411  0.54273435  1
  H+  H377  1  0.83246491  0.66672209  0.44169083  1
  H+  H378  1  0.99215840  0.37330521  0.91129229  1
  H+  H379  1  0.89682396  0.36856046  0.32973181  1
  H+  H380  1  0.65218730  0.32955232  0.58212371  1
  H+  H381  1  0.77152880  0.37039405  0.84637461  1
  H+  H382  1  0.56801029  0.16536298  0.75159356  1
  H+  H383  1  0.68679325  0.55231446  0.28042032  1
  O2-  O384  1  0.08479512  0.15496145  0.14133703  1
  O2-  O385  1  0.07911509  0.17768853  0.47627025  1
  O2-  O386  1  0.04100316  0.14084165  0.82779221  1
  O2-  O387  1  0.09634789  0.42809116  0.15456835  1
  O2-  O388  1  0.09316881  0.42024791  0.48313940  1
  O2-  O389  1  0.09523447  0.41912702  0.79134678  1
  O2-  O390  1  0.07856797  0.67505401  0.16849884  1
  O2-  O391  1  0.08175537  0.68803584  0.48708896  1
  O2-  O392  1  0.09682967  0.67296695  0.81082523  1
  O2-  O393  1  0.08885375  0.92129784  0.15178214  1
  O2-  O394  1  0.11282642  0.96674014  0.52361056  1
  O2-  O395  1  0.08125554  0.91209755  0.81468687  1
  O2-  O396  1  0.33226697  0.17338280  0.16516639  1
  O2-  O397  1  0.34038688  0.18662143  0.44213753  1
  O2-  O398  1  0.31682394  0.16130049  0.80320170  1
  O2-  O399  1  0.33485780  0.40127114  0.16547180  1
  O2-  O400  1  0.33646049  0.42357768  0.48093307  1
  O2-  O401  1  0.33547040  0.42208185  0.80307362  1
  O2-  O402  1  0.31719726  0.65787623  0.14618622  1
  O2-  O403  1  0.32163797  0.65958456  0.47663336  1
  O2-  O404  1  0.34756511  0.66215137  0.79950876  1
  O2-  O405  1  0.32929670  0.92532903  0.15358661  1
  O2-  O406  1  0.34200953  0.91588180  0.48000104  1
  O2-  O407  1  0.33978675  0.93114487  0.84069292  1
  O2-  O408  1  0.58285780  0.16967410  0.15264360  1
  O2-  O409  1  0.57677585  0.15984596  0.48017670  1
  O2-  O410  1  0.56277389  0.16286758  0.79644167  1
  O2-  O411  1  0.57913934  0.41450649  0.16093507  1
  O2-  O412  1  0.57107142  0.41195296  0.45251751  1
  O2-  O413  1  0.59672426  0.42409620  0.79906813  1
  O2-  O414  1  0.55452670  0.62843601  0.13101232  1
  O2-  O415  1  0.64133070  0.70516554  0.45803990  1
  O2-  O416  1  0.58848378  0.66474715  0.79615852  1
  O2-  O417  1  0.55255912  0.91027180  0.14511357  1
  O2-  O418  1  0.58260695  0.91873349  0.48815902  1
  O2-  O419  1  0.57836865  0.93476641  0.80996591  1
  O2-  O420  1  0.84731369  0.17891115  0.14787736  1
  O2-  O421  1  0.83320731  0.16287039  0.47632913  1
  O2-  O422  1  0.84610952  0.14673312  0.80401248  1
  O2-  O423  1  0.83511432  0.42358213  0.16564341  1
  O2-  O424  1  0.80799012  0.42133864  0.47736813  1
  O2-  O425  1  0.83486732  0.39246895  0.84986089  1
  O2-  O426  1  0.83111492  0.66586091  0.14932387  1
  O2-  O427  1  0.82217245  0.65623444  0.48644871  1
  O2-  O428  1  0.86126610  0.68455998  0.81602268  1
  O2-  O429  1  0.83177657  0.92362881  0.14348167  1
  O2-  O430  1  0.83711386  0.92473754  0.48602206  1
  O2-  O431  1  0.85595032  0.93123949  0.80521531  1
  O2-  O432  1  0.17071024  0.08236748  0.19919823  1
  O2-  O433  1  0.19323131  0.12499326  0.49960824  1
  O2-  O434  1  0.15140240  0.07331303  0.85482881  1
  O2-  O435  1  0.16821686  0.33158405  0.14358800  1
  O2-  O436  1  0.17396968  0.33769442  0.52370315  1
  O2-  O437  1  0.17914378  0.34588156  0.84169171  1
  O2-  O438  1  0.16374715  0.59016940  0.19891201  1
  O2-  O439  1  0.15659516  0.59149340  0.50350508  1
  O2-  O440  1  0.18399371  0.58797781  0.83510551  1
  O2-  O441  1  0.17070184  0.84480627  0.19862006  1
  O2-  O442  1  0.18288440  0.85513917  0.52204909  1
  O2-  O443  1  0.17272399  0.83652352  0.85679591  1
  O2-  O444  1  0.42407485  0.09247643  0.19440096  1
  O2-  O445  1  0.42142333  0.07182697  0.51420381  1
  O2-  O446  1  0.41782830  0.11625220  0.85300370  1
  O2-  O447  1  0.42515449  0.33447821  0.22257280  1
  O2-  O448  1  0.42473282  0.34789759  0.49252873  1
  O2-  O449  1  0.36575439  0.30174918  0.86261878  1
  O2-  O450  1  0.39844715  0.57399903  0.18394272  1
  O2-  O451  1  0.39433424  0.57580410  0.51674333  1
  O2-  O452  1  0.42514609  0.57947483  0.83983844  1
  O2-  O453  1  0.39343595  0.82130745  0.19241389  1
  O2-  O454  1  0.41116909  0.82250117  0.51336883  1
  O2-  O455  1  0.35884138  0.79925620  0.87529249  1
  O2-  O456  1  0.67934507  0.07520009  0.19619091  1
  O2-  O457  1  0.66796618  0.08375409  0.52303404  1
  O2-  O458  1  0.70195312  0.08046717  0.85829213  1
  O2-  O459  1  0.66526087  0.33635498  0.19973369  1
  O2-  O460  1  0.64880233  0.32676557  0.50574988  1
  O2-  O461  1  0.66303931  0.32503526  0.84901511  1
  O2-  O462  1  0.67103133  0.57601807  0.20169186  1
  O2-  O463  1  0.64478173  0.57087423  0.50264525  1
  O2-  O464  1  0.68312856  0.58864779  0.84181268  1
  O2-  O465  1  0.69954499  0.93316617  0.19860631  1
  O2-  O466  1  0.67090674  0.84209501  0.52776669  1
  O2-  O467  1  0.58597844  0.80089505  0.86303804  1
  O2-  O468  1  0.92430778  0.08471156  0.18808935  1
  O2-  O469  1  0.91918239  0.09008009  0.52398953  1
  O2-  O470  1  0.94953157  0.09270702  0.84754609  1
  O2-  O471  1  0.93204406  0.34702525  0.19240892  1
  O2-  O472  1  0.92518693  0.33027576  0.52316153  1
  O2-  O473  1  0.92761483  0.32410370  0.79786620  1
  O2-  O474  1  0.91187914  0.59060967  0.20265587  1
  O2-  O475  1  0.90968318  0.58658066  0.52166656  1
  O2-  O476  1  0.93588540  0.59294849  0.86710409  1
  O2-  O477  1  0.91867996  0.83805932  0.18250143  1
  O2-  O478  1  0.94782135  0.87124505  0.53032692  1
  O2-  O479  1  0.92411126  0.83602150  0.85993803  1
  O2-  O480  1  0.16293119  0.09186268  0.32290999  1
  O2-  O481  1  0.16098926  0.10772707  0.62663794  1
  O2-  O482  1  0.17316058  0.08197491  0.97668307  1
  O2-  O483  1  0.16693981  0.33720374  0.32657467  1
  O2-  O484  1  0.15936954  0.32907648  0.64636363  1
  O2-  O485  1  0.16756467  0.32283307  0.97168663  1
  O2-  O486  1  0.15981162  0.58034390  0.31985395  1
  O2-  O487  1  0.08204979  0.55933846  0.61539619  1
  O2-  O488  1  0.19944597  0.58749200  0.96203223  1
  O2-  O489  1  0.18024040  0.83930726  0.32140052  1
  O2-  O490  1  0.16938662  0.84655447  0.64524576  1
  O2-  O491  1  0.19415862  0.80374442  0.97041331  1
  O2-  O492  1  0.42070515  0.11063900  0.31378204  1
  O2-  O493  1  0.40912677  0.07653942  0.62871704  1
  O2-  O494  1  0.39054525  0.10058999  0.99292509  1
  O2-  O495  1  0.41318037  0.34291420  0.34296417  1
  O2-  O496  1  0.40022806  0.30787444  0.67478203  1
  O2-  O497  1  0.42656690  0.31502876  0.97902140  1
  O2-  O498  1  0.40035747  0.57934246  0.31232637  1
  O2-  O499  1  0.42122413  0.58352082  0.63188685  1
  O2-  O500  1  0.40941865  0.56872229  0.95462391  1
  O2-  O501  1  0.39390378  0.81305704  0.31378935  1
  O2-  O502  1  0.41856507  0.82694603  0.63469634  1
  O2-  O503  1  0.40899341  0.85640332  0.99103374  1
  O2-  O504  1  0.66399671  0.09160854  0.31498198  1
  O2-  O505  1  0.66832258  0.08253527  0.64520242  1
  O2-  O506  1  0.66009169  0.07368243  0.98729172  1
  O2-  O507  1  0.66801555  0.33619641  0.32556255  1
  O2-  O508  1  0.65273524  0.32704159  0.62786234  1
  O2-  O509  1  0.64275580  0.29711541  0.97056780  1
  O2-  O510  1  0.70730613  0.54139983  0.31912924  1
  O2-  O511  1  0.65092770  0.57249937  0.62624998  1
  O2-  O512  1  0.62362046  0.55395725  0.95619339  1
  O2-  O513  1  0.66324120  0.85595484  0.31341978  1
  O2-  O514  1  0.66959214  0.83334507  0.64975639  1
  O2-  O515  1  0.66320042  0.83712767  0.98043787  1
  O2-  O516  1  0.91536287  0.08992703  0.31472991  1
  O2-  O517  1  0.90796267  0.07716752  0.64538200  1
  O2-  O518  1  0.92637698  0.09225730  0.97165521  1
  O2-  O519  1  0.92607597  0.33729962  0.31407744  1
  O2-  O520  1  0.92046591  0.32980838  0.64224903  1
  O2-  O521  1  0.81921189  0.30647484  0.97026859  1
  O2-  O522  1  0.92694520  0.58804918  0.32653801  1
  O2-  O523  1  0.93075958  0.55957574  0.63327366  1
  O2-  O524  1  0.92729874  0.60152919  0.99026018  1
  O2-  O525  1  0.94157748  0.83429844  0.31035097  1
  O2-  O526  1  0.93764975  0.84915971  0.65575798  1
  O2-  O527  1  0.91814878  0.84280566  0.98311424  1
  O2-  O528  1  0.08883834  0.16189016  0.01764834  1
  O2-  O529  1  0.07746335  0.17827785  0.35620566  1
  O2-  O530  1  0.07085591  0.16651743  0.69537281  1
  O2-  O531  1  0.16577080  0.44730495  0.04105715  1
  O2-  O532  1  0.08675701  0.41695367  0.35938002  1
  O2-  O533  1  0.08263289  0.42349305  0.66785804  1
  O2-  O534  1  0.07426911  0.67106672  0.04500751  1
  O2-  O535  1  0.09152032  0.67642362  0.36280748  1
  O2-  O536  1  0.08753304  0.67988785  0.68702840  1
  O2-  O537  1  0.07420581  0.91743474  0.02601373  1
  O2-  O538  1  0.09967736  0.91545357  0.35602750  1
  O2-  O539  1  0.09026973  0.91024877  0.69943553  1
  O2-  O540  1  0.34435281  0.14147191  0.01882933  1
  O2-  O541  1  0.32942722  0.18301914  0.37572025  1
  O2-  O542  1  0.29372525  0.09655857  0.68400221  1
  O2-  O543  1  0.34448719  0.40959477  -0.00122775  1
  O2-  O544  1  0.32203299  0.41381440  0.35807404  1
  O2-  O545  1  0.32971732  0.42040458  0.67710361  1
  O2-  O546  1  0.34060786  0.68648255  0.03028263  1
  O2-  O547  1  0.32072166  0.65964834  0.35887607  1
  O2-  O548  1  0.34635771  0.66512259  0.68491100  1
  O2-  O549  1  0.32369762  0.93898495  0.03201177  1
  O2-  O550  1  0.33673575  0.89782007  0.35683521  1
  O2-  O551  1  0.32914968  0.90912282  0.66502615  1
  O2-  O552  1  0.55943792  0.14562395  0.02903509  1
  O2-  O553  1  0.58203239  0.16765204  0.36115973  1
  O2-  O554  1  0.57729571  0.16259476  0.66982860  1
  O2-  O555  1  0.58318087  0.40237972  0.03409761  1
  O2-  O556  1  0.57198693  0.40762906  0.38525931  1
  O2-  O557  1  0.58747620  0.41612616  0.68198213  1
  O2-  O558  1  0.56844226  0.65870730  0.00907773  1
  O2-  O559  1  0.53911556  0.70492496  0.35954546  1
  O2-  O560  1  0.58143591  0.66055392  0.67207451  1
  O2-  O561  1  0.57309512  0.91223981  0.02570563  1
  O2-  O562  1  0.59116643  0.94113957  0.36334563  1
  O2-  O563  1  0.57877037  0.91383810  0.68138011  1
  O2-  O564  1  0.83102904  0.16380016  0.02191529  1
  O2-  O565  1  0.83093676  0.17048949  0.35251675  1
  O2-  O566  1  0.81862641  0.13407056  0.69395598  1
  O2-  O567  1  0.89721945  0.45310531  0.05239476  1
  O2-  O568  1  0.84308942  0.41893329  0.35506588  1
  O2-  O569  1  0.81418838  0.40568006  0.67728101  1
  O2-  O570  1  0.83096815  0.67081978  0.02910508  1
  O2-  O571  1  0.84805343  0.67496467  0.36531669  1
  O2-  O572  1  0.82731684  0.65696990  0.67021162  1
  O2-  O573  1  0.83357551  0.92697487  0.01726398  1
  O2-  O574  1  0.81418331  0.92346068  0.36254508  1
  O2-  O575  1  0.83786381  0.91717274  0.68694980  1
