# generated using pymatgen
data_H2O
_symmetry_space_group_name_H-M   'P 1'
_cell_length_a   17.95386473
_cell_length_b   17.95410802
_cell_length_c   21.99790256
_cell_angle_alpha   89.96565495
_cell_angle_beta   90.06824289
_cell_angle_gamma   120.01855214
_symmetry_Int_Tables_number   1
_chemical_formula_structural   H2O
_chemical_formula_sum   'H384 O192'
_cell_volume   6139.77083026
_cell_formula_units_Z   192
loop_
 _symmetry_equiv_pos_site_id
 _symmetry_equiv_pos_as_xyz
  1  'x, y, z'
loop_
 _atom_type_symbol
 _atom_type_oxidation_number
  H+  1.0
  O2-  -2.0
loop_
 _atom_site_type_symbol
 _atom_site_label
 _atom_site_symmetry_multiplicity
 _atom_site_fract_x
 _atom_site_fract_y
 _atom_site_fract_z
 _atom_site_occupancy
  H+  H0  1  0.63402832  0.14586077  0.16136558  1
  H+  H1  1  0.00782156  0.87719333  -0.00748162  1
  H+  H2  1  0.89185961  0.61926929  0.50358602  1
  H+  H3  1  0.48258878  0.86045404  0.51206039  1
  H+  H4  1  0.15515175  0.78126637  0.50393438  1
  H+  H5  1  0.16230928  0.32337283  0.60639984  1
  H+  H6  1  0.91274372  0.79534393  0.00270240  1
  H+  H7  1  0.98054477  0.62081057  0.17690893  1
  H+  H8  1  0.92168413  0.08507441  0.41612245  1
  H+  H9  1  0.42225378  0.33562297  0.59301201  1
  H+  H10  1  0.60152211  0.84938757  0.17518967  1
  H+  H11  1  0.26656463  0.37421765  0.14330661  1
  H+  H12  1  0.15405059  0.37590810  0.83334852  1
  H+  H13  1  0.98271313  0.12523325  0.47348435  1
  H+  H14  1  0.01563698  0.37468381  0.64923793  1
  H+  H15  1  0.11025685  0.21096447  0.66630600  1
  H+  H16  1  0.51892313  0.78462155  0.72978700  1
  H+  H17  1  0.34542377  0.14078609  0.82137287  1
  H+  H18  1  0.82067286  0.84123059  0.16829680  1
  H+  H19  1  0.40337000  0.78789492  0.85093432  1
  H+  H20  1  0.40392832  0.53158557  0.83643887  1
  H+  H21  1  0.06024377  0.21452306  0.14892136  1
  H+  H22  1  0.87957832  0.65402387  0.01067659  1
  H+  H23  1  0.74700773  0.35940728  0.32656624  1
  H+  H24  1  0.84832501  0.73336324  0.33797268  1
  H+  H25  1  0.38451594  0.60076172  0.48327397  1
  H+  H26  1  0.49747190  0.84114018  0.68753028  1
  H+  H27  1  0.87098478  0.67287662  0.82793328  1
  H+  H28  1  0.29546261  0.89257580  0.35223008  1
  H+  H29  1  0.74931399  0.12580940  0.31493439  1
  H+  H30  1  0.44832864  0.58578997  0.31865237  1
  H+  H31  1  0.85470547  0.64786796  0.34013102  1
  H+  H32  1  0.77173772  0.39308082  0.16908965  1
  H+  H33  1  0.61027177  0.38038745  0.16732853  1
  H+  H34  1  0.27472747  0.13665577  0.66809962  1
  H+  H35  1  0.37051186  0.38886622  0.99803367  1
  H+  H36  1  0.14423756  0.23370762  0.33418214  1
  H+  H37  1  0.61217537  0.14349840  0.67593693  1
  H+  H38  1  0.65071569  0.02931002  0.99135414  1
  H+  H39  1  0.76760085  0.60942365  0.82681395  1
  H+  H40  1  0.12888286  0.73792495  0.17070388  1
  H+  H41  1  0.21976189  0.34852470  -0.00883370  1
  H+  H42  1  0.91497526  0.85579074  0.16378557  1
  H+  H43  1  0.10432299  0.67717046  0.07230996  1
  H+  H44  1  0.87969290  0.34984981  0.66178096  1
  H+  H45  1  0.15839258  0.53705177  0.83693014  1
  H+  H46  1  0.63980625  0.52336824  0.65877877  1
  H+  H47  1  0.10119974  0.62607487  0.64930001  1
  H+  H48  1  0.96741442  0.10343991  0.65504255  1
  H+  H49  1  0.82834058  0.42498888  0.10845951  1
  H+  H50  1  0.09562806  0.14307767  0.82142483  1
  H+  H51  1  0.25832473  0.14738376  1.00096358  1
  H+  H52  1  0.61780870  0.72082515  0.66962699  1
  H+  H53  1  0.72405631  0.85826900  0.66201010  1
  H+  H54  1  0.65144997  0.28149527  0.17565196  1
  H+  H55  1  0.60559726  0.47239937  0.34303679  1
  H+  H56  1  0.77329832  0.62583426  0.66898016  1
  H+  H57  1  0.27696618  0.89345148  0.83550116  1
  H+  H58  1  0.46293674  0.07630521  0.28535236  1
  H+  H59  1  0.37058018  0.45535367  0.31733589  1
  H+  H60  1  0.15627747  0.86707207  0.35369976  1
  H+  H61  1  0.66303571  0.26645916  0.32804536  1
  H+  H62  1  0.88204013  0.50724553  0.67636603  1
  H+  H63  1  0.40813800  1.01595433  0.34039365  1
  H+  H64  1  -0.03080184  0.62781305  0.32942864  1
  H+  H65  1  0.86117858  0.13431664  1.00317409  1
  H+  H66  1  0.23898118  0.12611341  0.50589848  1
  H+  H67  1  0.46599869  0.61450362  0.68437220  1
  H+  H68  1  0.52256823  0.38906752  0.66901171  1
  H+  H69  1  0.87792672  0.15746674  0.76519924  1
  H+  H70  1  0.38506173  0.36823025  0.83839332  1
  H+  H71  1  0.04609225  0.39377492  0.81663965  1
  H+  H72  1  0.92928695  0.87425859  0.91981585  1
  H+  H73  1  0.33447146  0.40930296  0.08898540  1
  H+  H74  1  0.12408103  0.49934670  1.00338351  1
  H+  H75  1  0.08856943  0.83017375  0.21349866  1
  H+  H76  1  0.60531523  0.98220997  0.51052459  1
  H+  H77  1  0.02703930  0.90600929  0.83458457  1
  H+  H78  1  1.04929705  0.66127692  0.82064074  1
  H+  H79  1  0.36871568  0.88814882  0.16168952  1
  H+  H80  1  0.76695230  0.38052242  0.67393533  1
  H+  H81  1  0.62120001  0.51056293  0.17161999  1
  H+  H82  1  0.38982981  0.27575061  0.65240495  1
  H+  H83  1  0.85655883  0.64020290  0.16116546  1
  H+  H84  1  0.62184906  0.47371751  0.49385281  1
  H+  H85  1  0.25228762  0.35141482  0.30255024  1
  H+  H86  1  0.37736115  0.12604554  0.34303881  1
  H+  H87  1  0.34247273  0.13599863  1.00135758  1
  H+  H88  1  0.88253596  0.60394513  0.67075903  1
  H+  H89  1  0.13224790  0.51655774  0.49567342  1
  H+  H90  1  0.04395456  0.88743222  0.36687458  1
  H+  H91  1  0.65681217  0.27934673  0.99466067  1
  H+  H92  1  0.24369609  0.66898309  0.25028790  1
  H+  H93  1  0.34198614  0.71190365  0.66566806  1
  H+  H94  1  0.96686087  0.35662449  0.51359320  1
  H+  H95  1  0.37170284  0.77069474  0.32145514  1
  H+  H96  1  0.63715269  0.52660559  0.84085162  1
  H+  H97  1  0.38221267  0.27321061  -0.01024247  1
  H+  H98  1  0.13666641  0.03644715  0.98070450  1
  H+  H99  1  0.87781669  0.01727179  0.65785906  1
  H+  H100  1  0.75285865  0.08184546  0.85131095  1
  H+  H101  1  0.55751290  0.12305602  0.51066292  1
  H+  H102  1  0.29465661  0.64974510  0.16207436  1
  H+  H103  1  0.86479981  0.98136235  0.48245501  1
  H+  H104  1  0.01391279  0.85123157  0.11639053  1
  H+  H105  1  0.13411266  0.65377189  0.17822393  1
  H+  H106  1  0.89261488  0.37449823  0.17251307  1
  H+  H107  1  0.27463775  0.37643513  0.67452277  1
  H+  H108  1  0.92125948  0.40926848  0.32112731  1
  H+  H109  1  0.03315549  0.39666715  0.00166856  1
  H+  H110  1  0.65410293  0.27554592  0.51301714  1
  H+  H111  1  0.74427438  0.11928745  0.16882202  1
  H+  H112  1  0.37490664  0.47580140  0.47078920  1
  H+  H113  1  0.13251701  0.78944424  0.83539638  1
  H+  H114  1  0.86186025  0.13312356  0.34304614  1
  H+  H115  1  0.39518312  0.34054114  0.31549485  1
  H+  H116  1  0.11355393  -0.02276971  0.67317204  1
  H+  H117  1  0.64200945  0.35928638  0.50680687  1
  H+  H118  1  0.12554968  0.77099202  0.65240091  1
  H+  H119  1  0.89317780  0.88009503  0.51379697  1
  H+  H120  1  0.28740128  0.89110475  1.00572210  1
  H+  H121  1  0.86922486  0.21774995  0.68515507  1
  H+  H122  1  0.37728482  0.22638779  0.49168578  1
  H+  H123  1  0.54654789  0.13305160  0.35964161  1
  H+  H124  1  0.78255447  0.39627729  0.49690832  1
  H+  H125  1  0.23814249  0.75274322  0.74674523  1
  H+  H126  1  0.12021044  0.00868933  0.50892215  1
  H+  H127  1  0.34521446  0.16159071  0.43500560  1
  H+  H128  1  0.62882855  0.90292934  0.01122560  1
  H+  H129  1  0.63376813  0.15066791  0.00626603  1
  H+  H130  1  0.71246405  0.61185848  0.32551756  1
  H+  H131  1  0.95189362  0.09764755  0.98172329  1
  H+  H132  1  0.62836879  0.84413867  0.66621583  1
  H+  H133  1  0.62044396  0.82196416  0.24001724  1
  H+  H134  1  0.23804929  0.69537581  0.37169657  1
  H+  H135  1  0.78745144  0.38661855  -0.01647190  1
  H+  H136  1  0.63915675  0.86533255  0.85064185  1
  H+  H137  1  0.80777944  0.85473997  0.34523184  1
  H+  H138  1  0.89005109  0.53296204  0.17632228  1
  H+  H139  1  0.45665838  0.12196165  0.83779486  1
  H+  H140  1  0.83082713  0.91712354  0.73418475  1
  H+  H141  1  0.12012530  0.73248446  0.34035145  1
  H+  H142  1  0.12526163  0.24959886  0.50471714  1
  H+  H143  1  0.53786576  0.90107476  0.00748976  1
  H+  H144  1  0.13185813  0.41961460  0.35445955  1
  H+  H145  1  0.39980762  0.09466966  0.22117434  1
  H+  H146  1  0.13842622  0.14470517  0.34788314  1
  H+  H147  1  0.13597722  0.10786453  0.66102613  1
  H+  H148  1  -0.01868603  0.89951661  0.07613649  1
  H+  H149  1  0.40316260  0.78643907  0.99775201  1
  H+  H150  1  0.35806777  0.12825262  0.14356167  1
  H+  H151  1  0.18537255  0.63450284  0.82658968  1
  H+  H152  1  0.54329467  0.65738871  0.00054527  1
  H+  H153  1  0.09656030  0.38951285  0.61047622  1
  H+  H154  1  0.71783183  0.86417297  0.16750290  1
  H+  H155  1  0.39919003  0.78271359  0.16562528  1
  H+  H156  1  0.37104850  0.25542647  0.16210266  1
  H+  H157  1  0.87205236  0.48631713  0.49687575  1
  H+  H158  1  0.20806720  0.57173433  0.24737890  1
  H+  H159  1  0.40035447  1.02396168  0.51448604  1
  H+  H160  1  0.62139159  -0.01056077  0.16299244  1
  H+  H161  1  0.12217505  1.01069784  0.17217750  1
  H+  H162  1  0.37660547  1.03248146  -0.00769375  1
  H+  H163  1  0.63421887  0.27652410  0.66194406  1
  H+  H164  1  0.36636374  0.72438533  0.49024233  1
  H+  H165  1  0.86521617  0.12623252  0.67839737  1
  H+  H166  1  0.36844067  0.38753442  0.66915500  1
  H+  H167  1  0.10139253  0.37902493  0.51208614  1
  H+  H168  1  0.11466225  -0.00658454  0.82738887  1
  H+  H169  1  0.58915800  0.93323332  0.10216372  1
  H+  H170  1  0.63496199  0.64699098  0.82652941  1
  H+  H171  1  0.77584250  0.30626601  0.82195506  1
  H+  H172  1  0.14916586  0.62310354  0.99363026  1
  H+  H173  1  0.09079750  0.21632972  -0.00042063  1
  H+  H174  1  0.64387687  0.61420796  0.65976734  1
  H+  H175  1  0.72769627  0.12228379  0.66973586  1
  H+  H176  1  0.37364068  1.02902329  0.83742734  1
  H+  H177  1  0.12363424  0.51482748  0.63611565  1
  H+  H178  1  0.37487830  0.84083373  0.66422198  1
  H+  H179  1  0.83239460  0.54025906  0.84605749  1
  H+  H180  1  0.13943961  0.34113140  0.67318846  1
  H+  H181  1  0.21115169  0.39302910  0.53760601  1
  H+  H182  1  0.63074277  0.73412388  0.83003709  1
  H+  H183  1  0.40591026  0.62289251  0.98927302  1
  H+  H184  1  0.69568521  0.36837497  0.82495975  1
  H+  H185  1  0.47490705  0.60508879  0.48888480  1
  H+  H186  1  0.59448686  0.23527985  0.82837970  1
  H+  H187  1  0.36876295  0.89698724  0.83785015  1
  H+  H188  1  0.11598630  0.11397058  0.98766377  1
  H+  H189  1  0.17976611  0.84189200  0.56128129  1
  H+  H190  1  0.90730942  0.33343612  0.83336380  1
  H+  H191  1  0.28069055  0.89096009  0.16418936  1
  H+  H192  1  0.28916743  0.89306462  0.49999293  1
  H+  H193  1  0.88667899  0.07935010  0.92604267  1
  H+  H194  1  0.61596598  0.64167575  0.49043347  1
  H+  H195  1  0.50312293  0.01797472  0.90167537  1
  H+  H196  1  0.02007888  0.67083524  0.80156756  1
  H+  H197  1  0.85950819  0.87946004  0.67804843  1
  H+  H198  1  1.03965899  0.64597519  1.01557659  1
  H+  H199  1  0.51589858  0.37036307  0.16144202  1
  H+  H200  1  0.88361699  0.24047777  0.15863870  1
  H+  H201  1  0.85225813  0.22770662  0.49294309  1
  H+  H202  1  0.12169754  0.94177086  0.05219047  1
  H+  H203  1  0.93092729  0.89445919  0.30482937  1
  H+  H204  1  0.86605397  0.48975892  0.34560517  1
  H+  H205  1  0.07586104  0.31807693  0.36284988  1
  H+  H206  1  0.77006319  0.47366817  0.89394256  1
  H+  H207  1  0.14385073  0.28303575  0.82978655  1
  H+  H208  1  0.35381134  0.23362516  0.82034734  1
  H+  H209  1  0.48264021  0.12511004  0.66017936  1
  H+  H210  1  0.59438504  0.71342570  0.16173284  1
  H+  H211  1  0.68125294  0.84314080  0.90696759  1
  H+  H212  1  0.86064259  0.44176842  0.93795547  1
  H+  H213  1  0.16533305  0.92275183  0.20262933  1
  H+  H214  1  -0.03569655  0.07353564  0.19615543  1
  H+  H215  1  0.87070149  0.92702968  0.83698668  1
  H+  H216  1  0.61322345  0.72945029  0.48888273  1
  H+  H217  1  0.61040918  0.37062498  0.83625182  1
  H+  H218  1  0.67886488  0.85708990  0.33081819  1
  H+  H219  1  0.40129425  0.36262273  0.49460729  1
  H+  H220  1  0.37733722  0.34746333  0.16397948  1
  H+  H221  1  0.77198852  0.90021913  0.83107741  1
  H+  H222  1  0.97635873  0.86005058  0.66613933  1
  H+  H223  1  0.90205504  0.53216641  0.99683370  1
  H+  H224  1  0.37993695  0.52469451  0.68671700  1
  H+  H225  1  0.11210956  0.48026402  0.16063718  1
  H+  H226  1  0.52665484  0.89516820  0.84157517  1
  H+  H227  1  0.01716244  0.39566675  0.15781570  1
  H+  H228  1  -0.06648829  0.26020451  0.83719976  1
  H+  H229  1  0.90737942  0.36473689  -0.02274891  1
  H+  H230  1  0.13720252  0.87973068  0.84191013  1
  H+  H231  1  0.38768865  0.12519714  0.65728844  1
  H+  H232  1  0.88932445  0.76827361  0.66256553  1
  H+  H233  1  0.65739392  0.79136957  1.00210024  1
  H+  H234  1  0.86942497  0.73928124  0.49405791  1
  H+  H235  1  0.28312362  0.39575297  0.82503631  1
  H+  H236  1  0.37431866  0.63643106  0.15154074  1
  H+  H237  1  0.52894586  0.05495355  0.92264137  1
  H+  H238  1  0.34774161  0.40100578  0.37923030  1
  H+  H239  1  0.15175249  0.77788028  -0.00685191  1
  H+  H240  1  0.11696031  0.63617404  0.48930631  1
  H+  H241  1  0.64061711  0.87459178  0.50882172  1
  H+  H242  1  0.88267253  0.81740973  0.86290099  1
  H+  H243  1  0.47073195  0.59988458  0.15947633  1
  H+  H244  1  0.71027463  0.59919445  0.16824387  1
  H+  H245  1  0.60455560  0.62878640  0.15627986  1
  H+  H246  1  0.49012831  0.36286645  0.50250655  1
  H+  H247  1  0.37231591  0.21175694  0.33450187  1
  H+  H248  1  0.61145649  0.38895506  0.67432231  1
  H+  H249  1  0.84125389  0.99075434  0.34756934  1
  H+  H250  1  0.25380699  0.85586917  0.68523502  1
  H+  H251  1  0.13218149  0.86270654  0.66079668  1
  H+  H252  1  0.28976362  0.64685792  0.00187631  1
  H+  H253  1  0.54395042  0.14486486  0.16071867  1
  H+  H254  1  0.18692842  0.38289519  0.29366427  1
  H+  H255  1  0.14665721  0.90033154  -0.00275286  1
  H+  H256  1  0.30652934  0.65271061  0.84333497  1
  H+  H257  1  0.41469066  0.33332024  0.89674949  1
  H+  H258  1  0.39219130  1.02529669  0.17268007  1
  H+  H259  1  0.48214674  0.87753362  0.17013862  1
  H+  H260  1  0.40341172  0.11554876  0.50873665  1
  H+  H261  1  0.64829521  0.01053046  0.84380775  1
  H+  H262  1  0.84834941  0.13867387  0.47788585  1
  H+  H263  1  0.39396014  0.85984422  0.51224313  1
  H+  H264  1  0.85233810  0.18230429  0.09868215  1
  H+  H265  1  0.84546582  1.03598230  0.82902273  1
  H+  H266  1  0.29042662  0.38082668  0.46927749  1
  H+  H267  1  0.04096718  0.15558565  0.05671561  1
  H+  H268  1  0.21446033  0.12787794  0.83073377  1
  H+  H269  1  0.82858892  0.40743153  0.83562927  1
  H+  H270  1  0.99290175  0.38176381  0.32315708  1
  H+  H271  1  1.01784192  0.90808802  0.51209247  1
  H+  H272  1  0.83426906  0.71715358  0.15950762  1
  H+  H273  1  0.58106226  0.61178536  0.33543687  1
  H+  H274  1  0.87714251  -0.01173821  0.20156723  1
  H+  H275  1  0.50966576  0.39164321  0.82602147  1
  H+  H276  1  0.23648543  0.66775534  0.73481940  1
  H+  H277  1  0.87582440  0.23005320  1.00088901  1
  H+  H278  1  0.49707475  0.61773756  0.83757692  1
  H+  H279  1  0.91104288  0.05007720  0.29956172  1
  H+  H280  1  0.57474164  0.39976976  1.06790469  1
  H+  H281  1  0.40262894  0.87641673  1.00090484  1
  H+  H282  1  0.24073507  0.09870444  0.33163982  1
  H+  H283  1  0.28769597  0.52645745  0.31060593  1
  H+  H284  1  0.74847532  0.64174821  0.98488639  1
  H+  H285  1  0.13131525  0.35872825  0.15924866  1
  H+  H286  1  0.37904294  0.51110469  0.15744815  1
  H+  H287  1  0.09687817  0.63367179  0.33164960  1
  H+  H288  1  0.74239948  0.12110261  0.98946983  1
  H+  H289  1  0.52847326  0.37554933  0.34084587  1
  H+  H290  1  0.40275017  0.56031375  0.25203052  1
  H+  H291  1  0.66654947  0.83629078  0.56505353  1
  H+  H292  1  0.98005115  0.61898995  0.50560584  1
  H+  H293  1  0.33382961  0.17205074  0.72739214  1
  H+  H294  1  0.34732721  0.67392095  0.06178859  1
  H+  H295  1  -0.01869524  0.60481901  0.67238867  1
  H+  H296  1  0.17469562  0.05599221  0.27619571  1
  H+  H297  1  0.17812858  0.85072272  0.28698879  1
  H+  H298  1  0.83482268  0.18193282  0.38921207  1
  H+  H299  1  0.42995567  0.85117282  0.90845887  1
  H+  H300  1  0.57334888  0.17017891  0.73302228  1
  H+  H301  1  0.37270641  0.47892689  0.00077453  1
  H+  H302  1  0.61156052  0.37766652  1.00963218  1
  H+  H303  1  0.59725002  0.66873724  0.73197803  1
  H+  H304  1  0.13062186  0.97820514  0.35790744  1
  H+  H305  1  0.16471348  0.58059497  0.55133119  1
  H+  H306  1  0.34204987  0.42057526  0.76546451  1
  H+  H307  1  0.88167551  0.36398040  0.51118029  1
  H+  H308  1  0.59615884  0.67983418  0.06234146  1
  H+  H309  1  0.66965148  0.33727222  0.60291717  1
  H+  H310  1  0.31812715  0.88971244  0.74414344  1
  H+  H311  1  0.17579249  0.59144728  0.93208615  1
  H+  H312  1  0.59221484  0.93935741  0.44163488  1
  H+  H313  1  0.11845699  0.20015507  0.44078519  1
  H+  H314  1  0.94791771  0.32973037  0.92730586  1
  H+  H315  1  0.77149626  0.89602220  0.10458885  1
  H+  H316  1  0.38160017  0.88774025  0.34391678  1
  H+  H317  1  0.06740432  0.39169677  0.44706440  1
  H+  H318  1  0.90101255  0.31605718  0.60099295  1
  H+  H319  1  0.17739000  0.83513944  0.93139746  1
  H+  H320  1  -0.04055409  0.17031575  0.13711825  1
  H+  H321  1  0.01655283  0.16266814  0.81019712  1
  H+  H322  1  0.41504112  0.83284430  0.26423512  1
  H+  H323  1  0.57805183  0.90401097  0.78025778  1
  H+  H324  1  0.11186928  0.66562869  0.71278580  1
  H+  H325  1  0.59361002  0.14644043  0.83459473  1
  H+  H326  1  0.61291298  0.88983266  0.32631957  1
  H+  H327  1  0.30508129  0.67524620  0.40288649  1
  H+  H328  1  0.82889178  0.64593391  0.73044441  1
  H+  H329  1  0.10445220  0.43279428  0.75770079  1
  H+  H330  1  0.83428765  0.68116475  0.43426270  1
  H+  H331  1  0.68746723  0.07703139  0.91072125  1
  H+  H332  1  0.93898905  0.36434224  0.23136668  1
  H+  H333  1  0.91145563  0.59521663  0.26996480  1
  H+  H334  1  0.21230017  0.60474444  0.64435993  1
  H+  H335  1  0.79552670  0.88622821  0.41042428  1
  H+  H336  1  0.55392980  0.64600068  0.39262858  1
  H+  H337  1  0.17315113  0.08723736  0.60164386  1
  H+  H338  1  0.65937311  0.64095568  0.98395237  1
  H+  H339  1  0.66503382  0.33322906  0.93353306  1
  H+  H340  1  0.68649838  0.09399183  0.22988263  1
  H+  H341  1  0.61025532  0.18287922  0.06717711  1
  H+  H342  1  0.65493432  0.57560932  0.26520127  1
  H+  H343  1  0.67491531  0.10915328  0.60861928  1
  H+  H344  1  0.41931053  0.30753272  0.25688142  1
  H+  H345  1  0.22493194  0.06826409  0.17032837  1
  H+  H346  1  0.67010553  0.58447043  0.56286470  1
  H+  H347  1  0.83866949  0.67699552  0.06666110  1
  H+  H348  1  0.08438473  0.67027781  0.43482962  1
  H+  H349  1  0.80562179  0.95180032  -0.00192596  1
  H+  H350  1  0.87040385  0.82794694  0.25581253  1
  H+  H351  1  0.23546337  0.56537871  0.33963685  1
  H+  H352  1  0.42412151  0.09253450  0.59289165  1
  H+  H353  1  0.71561787  0.13285377  0.50258490  1
  H+  H354  1  0.93363663  0.59761863  0.94382724  1
  H+  H355  1  0.07519291  0.15478532  0.72492834  1
  H+  H356  1  0.15515229  0.14021158  0.50894160  1
  H+  H357  1  0.39610995  0.65637341  0.83951638  1
  H+  H358  1  0.61639848  0.15894822  0.41169269  1
  H+  H359  1  0.31179367  0.15292612  0.09084849  1
  H+  H360  1  0.33686638  0.62472192  0.68716190  1
  H+  H361  1  0.68110655  0.33409944  0.23847949  1
  H+  H362  1  0.35648169  0.92494348  0.44427300  1
  H+  H363  1  0.47703505  0.35646276  0.99101227  1
  H+  H364  1  0.73013265  0.61829637  0.50458179  1
  H+  H365  1  0.39183877  0.08711901  0.93148047  1
  H+  H366  1  0.34220832  0.92519826  0.06701030  1
  H+  H367  1  0.27536823  0.63498479  0.48766683  1
  H+  H368  1  0.16540102  0.31972901  0.21016928  1
  H+  H369  1  0.43709702  0.59134273  0.93173196  1
  H+  H370  1  0.82549960  0.39221089  0.73313344  1
  H+  H371  1  0.08387456  0.92215404  0.73467301  1
  H+  H372  1  0.92298160  0.84494814  0.57254341  1
  H+  H373  1  0.65390913  0.10707057  0.32203159  1
  H+  H374  1  0.58901904  0.41328446  0.43450354  1
  H+  H375  1  0.68256673  0.59545426  0.89799802  1
  H+  H376  1  0.77542968  0.89489953  0.50243900  1
  H+  H377  1  0.41558358  0.82492656  0.60195002  1
  H+  H378  1  0.57225742  0.42210761  0.76623997  1
  H+  H379  1  0.09346244  0.93264915  0.45552588  1
  H+  H380  1  0.08599370  0.43565141  0.06913755  1
  H+  H381  1  0.84763986  0.42854826  0.40341361  1
  H+  H382  1  0.16582896  0.32476695  0.93110595  1
  H+  H383  1  0.15658980  0.09975525  0.89164098  1
  O2-  O384  1  0.00940610  0.16061241  0.13427426  1
  O2-  O385  1  0.10632100  0.19200623  0.48541869  1
  O2-  O386  1  0.07683815  0.18061419  0.80059308  1
  O2-  O387  1  0.07940775  0.42546549  0.13957230  1
  O2-  O388  1  0.06931407  0.40665984  0.49062079  1
  O2-  O389  1  0.10607490  0.43374753  0.80210137  1
  O2-  O390  1  0.10267273  0.67807335  0.15691608  1
  O2-  O391  1  0.09001671  0.67212060  0.47951878  1
  O2-  O392  1  0.20264932  0.69002911  0.75677905  1
  O2-  O393  1  0.01074078  0.90395656  0.11546713  1
  O2-  O394  1  0.08477830  0.94289976  0.49940995  1
  O2-  O395  1  0.08548833  0.92996368  0.81709052  1
  O2-  O396  1  0.31380062  0.14487441  0.13673602  1
  O2-  O397  1  0.34494564  0.16362492  0.48044868  1
  O2-  O398  1  0.31949269  0.17394454  0.80313943  1
  O2-  O399  1  0.32940735  0.40556697  0.13484704  1
  O2-  O400  1  0.35040144  0.41220920  0.45658496  1
  O2-  O401  1  0.34447525  0.42570002  0.81102854  1
  O2-  O402  1  0.34928546  0.67398951  0.13944025  1
  O2-  O403  1  0.33398176  0.66736208  0.46890222  1
  O2-  O404  1  0.36705667  0.69046829  0.83156927  1
  O2-  O405  1  0.33914856  0.92158361  0.14809558  1
  O2-  O406  1  0.35309309  0.92610516  0.48950823  1
  O2-  O407  1  0.33681738  0.92432161  0.81976841  1
  O2-  O408  1  0.60393050  0.17748491  0.14656817  1
  O2-  O409  1  0.61873953  0.15669523  0.49774188  1
  O2-  O410  1  0.56712557  0.17461838  0.81275897  1
  O2-  O411  1  0.57740688  0.40642230  0.14933455  1
  O2-  O412  1  0.59255130  0.41214391  0.48096617  1
  O2-  O413  1  0.57225319  0.42368074  0.81189273  1
  O2-  O414  1  0.57490708  0.65868616  0.13859807  1
  O2-  O415  1  0.58333887  0.66888884  0.47454560  1
  O2-  O416  1  0.60315472  0.67582566  0.81148457  1
  O2-  O417  1  0.58222646  0.92938801  0.14707913  1
  O2-  O418  1  0.58404312  0.92550028  0.49156021  1
  O2-  O419  1  0.58768160  0.92004756  0.82441427  1
  O2-  O420  1  0.86328082  0.18151039  0.14289732  1
  O2-  O421  1  0.81530739  0.16919551  0.47484192  1
  O2-  O422  1  0.90959246  0.16201125  0.80783308  1
  O2-  O423  1  0.83425359  0.42716584  0.15254213  1
  O2-  O424  1  0.84289464  0.42437499  0.48206305  1
  O2-  O425  1  0.82729689  0.36001558  0.81073659  1
  O2-  O426  1  0.81911560  0.65966495  0.14189894  1
  O2-  O427  1  0.83788981  0.67922078  0.47963538  1
  O2-  O428  1  0.82637681  0.61923718  0.81007516  1
  O2-  O429  1  0.77788842  0.89429730  0.14902269  1
  O2-  O430  1  0.83513441  0.91723169  0.48528630  1
  O2-  O431  1  0.83119911  0.94118861  0.81463692  1
  O2-  O432  1  0.17439752  0.02110139  0.19356455  1
  O2-  O433  1  0.17908052  0.10198747  0.52233247  1
  O2-  O434  1  0.15367227  0.09605437  0.84599978  1
  O2-  O435  1  0.15406134  0.31931520  0.16569092  1
  O2-  O436  1  0.15311962  0.34502116  0.54419929  1
  O2-  O437  1  0.17869166  0.34093504  0.84891496  1
  O2-  O438  1  0.21102370  0.62006484  0.22305040  1
  O2-  O439  1  0.16723755  0.57953677  0.50557861  1
  O2-  O440  1  0.18701058  0.59432394  0.85711667  1
  O2-  O441  1  0.15128253  0.86163119  0.21076187  1
  O2-  O442  1  0.18829175  0.84249744  0.51680849  1
  O2-  O443  1  0.16588492  0.84585475  0.85463184  1
  O2-  O444  1  0.42289396  0.08842853  0.18264462  1
  O2-  O445  1  0.43211174  0.08642523  0.52910586  1
  O2-  O446  1  0.39556217  0.08999890  0.85050832  1
  O2-  O447  1  0.40550133  0.31471428  0.17863066  1
  O2-  O448  1  0.42746019  0.33159386  0.51510735  1
  O2-  O449  1  0.41384431  0.33447033  0.85081917  1
  O2-  O450  1  0.40915027  0.57160839  0.17355300  1
  O2-  O451  1  0.41165655  0.56655328  0.49487049  1
  O2-  O452  1  0.43772297  0.59034936  0.85463148  1
  O2-  O453  1  0.41984506  0.84112043  0.18295876  1
  O2-  O454  1  0.42030418  0.82485425  0.52539891  1
  O2-  O455  1  0.42865329  0.85104533  0.86282559  1
  O2-  O456  1  0.68383369  0.09302440  0.18249199  1
  O2-  O457  1  0.65780961  0.10844565  0.52436959  1
  O2-  O458  1  0.69292457  0.07154704  0.86032755  1
  O2-  O459  1  0.67795905  0.34122230  0.19219840  1
  O2-  O460  1  0.67616415  0.33522081  0.52688082  1
  O2-  O461  1  0.64373403  0.33980888  0.84966238  1
  O2-  O462  1  0.65099719  0.57247339  0.18494010  1
  O2-  O463  1  0.66879031  0.58395009  0.51760829  1
  O2-  O464  1  0.68057569  0.58743253  0.85125707  1
  O2-  O465  1  0.62173162  0.81220561  0.19415731  1
  O2-  O466  1  0.67095971  0.84212169  0.52001353  1
  O2-  O467  1  0.67532742  0.83947228  0.86190419  1
  O2-  O468  1  0.93135292  0.02388258  0.22353322  1
  O2-  O469  1  0.92154675  0.09101521  0.46117106  1
  O2-  O470  1  0.84803167  0.09030578  0.84674800  1
  O2-  O471  1  0.92874611  0.34977867  0.18588911  1
  O2-  O472  1  0.90477113  0.32659211  0.52670750  1
  O2-  O473  1  0.95063441  0.32036892  0.85046816  1
  O2-  O474  1  0.92009718  0.59450837  0.19008436  1
  O2-  O475  1  0.91901740  0.58651848  0.51865082  1
  O2-  O476  1  0.82414639  0.49054909  0.87265945  1
  O2-  O477  1  0.85844170  0.81636161  0.18233688  1
  O2-  O478  1  0.93005243  0.85459613  0.52738034  1
  O2-  O479  1  0.92342234  0.87663075  0.87420561  1
  O2-  O480  1  0.17747089  0.06579016  0.32061653  1
  O2-  O481  1  0.17092651  0.08082356  0.64667761  1
  O2-  O482  1  0.15565018  0.09642116  0.96844474  1
  O2-  O483  1  0.19180318  0.33169212  0.28677670  1
  O2-  O484  1  0.16889190  0.31390151  0.65358631  1
  O2-  O485  1  0.16003094  0.31707481  0.97579020  1
  O2-  O486  1  0.22687129  0.51504192  0.31494235  1
  O2-  O487  1  0.15296453  0.57725188  0.62501195  1
  O2-  O488  1  0.17449861  0.58824239  0.97798604  1
  O2-  O489  1  0.18260022  0.83824191  0.33052271  1
  O2-  O490  1  0.16277623  0.83337682  0.64445878  1
  O2-  O491  1  0.18362638  0.83763543  0.97660835  1
  O2-  O492  1  0.44016621  0.07832522  0.32511585  1
  O2-  O493  1  0.42182366  0.09669872  0.64168609  1
  O2-  O494  1  0.39045146  0.08949339  0.97647664  1
  O2-  O495  1  0.42256163  0.30635539  0.30213148  1
  O2-  O496  1  0.42173413  0.33676415  0.63865588  1
  O2-  O497  1  0.41752150  0.33238773  0.97262982  1
  O2-  O498  1  0.39097776  0.54931874  0.29647477  1
  O2-  O499  1  0.40388161  0.58733584  0.69272461  1
  O2-  O500  1  0.43769455  0.59305171  0.97740061  1
  O2-  O501  1  0.41057688  0.83051676  0.30921247  1
  O2-  O502  1  0.41143093  0.81836083  0.64758586  1
  O2-  O503  1  0.43517423  0.84836254  0.98514386  1
  O2-  O504  1  0.68957797  0.09085365  0.29748475  1
  O2-  O505  1  0.67010415  0.10464967  0.65332786  1
  O2-  O506  1  0.68289408  0.08756845  0.97029299  1
  O2-  O507  1  0.69035852  0.32254202  0.30693155  1
  O2-  O508  1  0.66821624  0.33799275  0.64881214  1
  O2-  O509  1  0.68544004  0.34020863  0.97593197  1
  O2-  O510  1  0.65271970  0.57579411  0.31049325  1
  O2-  O511  1  0.67497610  0.58415741  0.64432123  1
  O2-  O512  1  0.69058887  0.61358318  0.96608391  1
  O2-  O513  1  0.62565602  0.84587975  0.30969653  1
  O2-  O514  1  0.66455824  0.82517601  0.64473030  1
  O2-  O515  1  0.68751965  0.85474930  0.98722693  1
  O2-  O516  1  0.88734418  0.05149649  0.34012431  1
  O2-  O517  1  0.90540429  0.07820708  0.64484336  1
  O2-  O518  1  0.88930384  0.06805576  0.96967552  1
  O2-  O519  1  0.96598610  0.40552568  0.29641078  1
  O2-  O520  1  0.90759592  0.31761441  0.64690182  1
  O2-  O521  1  0.94295067  0.33640407  0.97231315  1
  O2-  O522  1  0.90872764  0.59751661  0.31514730  1
  O2-  O523  1  0.91514479  0.57077656  0.66374965  1
  O2-  O524  1  0.93394148  0.59536233  0.98826347  1
  O2-  O525  1  0.88324453  0.83577106  0.30096419  1
  O2-  O526  1  0.91610030  0.82927002  0.64959909  1
  O2-  O527  1  0.94555854  0.85875533  0.99421190  1
  O2-  O528  1  0.05248482  0.15435536  0.01237995  1
  O2-  O529  1  0.12212199  0.18591941  0.36357661  1
  O2-  O530  1  0.07644702  0.14889842  0.67988070  1
  O2-  O531  1  0.09075149  0.43767034  0.02245838  1
  O2-  O532  1  0.07646859  0.37210708  0.36969026  1
  O2-  O533  1  0.08054278  0.40723388  0.64853353  1
  O2-  O534  1  0.10169419  0.67607285  0.02725602  1
  O2-  O535  1  0.07937143  0.67067994  0.35192537  1
  O2-  O536  1  0.07713817  0.65619466  0.67478193  1
  O2-  O537  1  0.11828043  0.93503196  0.00802718  1
  O2-  O538  1  0.10312792  0.92091215  0.38143877  1
  O2-  O539  1  0.08146232  0.91689174  0.68957333  1
  O2-  O540  1  0.31643738  0.17034648  0.01947828  1
  O2-  O541  1  0.34247845  0.15283727  0.35454716  1
  O2-  O542  1  0.33682395  0.16855176  0.68169235  1
  O2-  O543  1  0.33910618  0.41791897  0.01407372  1
  O2-  O544  1  0.34594633  0.39469246  0.33392838  1
  O2-  O545  1  0.33546049  0.41205267  0.68882761  1
  O2-  O546  1  0.35006410  0.67799586  0.01632111  1
  O2-  O547  1  0.27724790  0.67444132  0.36168163  1
  O2-  O548  1  0.30101800  0.65318914  0.68165503  1
  O2-  O549  1  0.34699861  0.92554009  0.02201108  1
  O2-  O550  1  0.35656935  0.92141968  0.36489544  1
  O2-  O551  1  0.29945030  0.85103259  0.70806282  1
  O2-  O552  1  0.61253217  0.18781957  0.02198227  1
  O2-  O553  1  0.60908797  0.16247682  0.36758684  1
  O2-  O554  1  0.57578159  0.17052781  0.68780209  1
  O2-  O555  1  0.57221887  0.39767353  0.02279851  1
  O2-  O556  1  0.58082897  0.41556856  0.36349240  1
  O2-  O557  1  0.58117699  0.41965744  0.68843784  1
  O2-  O558  1  0.60333147  0.69095356  0.01736072  1
  O2-  O559  1  0.53999904  0.62987985  0.34948402  1
  O2-  O560  1  0.58954462  0.66130747  0.68706765  1
  O2-  O561  1  0.59913501  0.93539886  0.02226238  1
  O2-  O562  1  0.60223864  0.95640643  0.38190787  1
  O2-  O563  1  0.54482899  0.84326826  0.71407813  1
  O2-  O564  1  0.83793928  0.17178908  0.01814449  1
  O2-  O565  1  0.84684224  0.17940039  0.34577598  1
  O2-  O566  1  0.84305748  0.15938613  0.70398639  1
  O2-  O567  1  0.85336178  0.42172985  -0.01973522  1
  O2-  O568  1  0.84942065  0.43025994  0.35788059  1
  O2-  O569  1  0.82843277  0.40812759  0.68974133  1
  O2-  O570  1  0.85239139  0.68816744  0.02204797  1
  O2-  O571  1  0.82210548  0.67539556  0.35625933  1
  O2-  O572  1  0.83464287  0.65303088  0.68558979  1
  O2-  O573  1  0.77223705  0.89424384  0.01769804  1
  O2-  O574  1  0.77973528  0.88242744  0.36661776  1
  O2-  O575  1  0.82736009  0.90933154  0.68940941  1
