# generated using pymatgen
data_H2O
_symmetry_space_group_name_H-M   'P 1'
_cell_length_a   17.99202129
_cell_length_b   17.98716182
_cell_length_c   21.99672581
_cell_angle_alpha   89.99021693
_cell_angle_beta   89.98941028
_cell_angle_gamma   120.01124547
_symmetry_Int_Tables_number   1
_chemical_formula_structural   H2O
_chemical_formula_sum   'H384 O192'
_cell_volume   6164.27520678
_cell_formula_units_Z   192
loop_
 _symmetry_equiv_pos_site_id
 _symmetry_equiv_pos_as_xyz
  1  'x, y, z'
loop_
 _atom_type_symbol
 _atom_type_oxidation_number
  H+  1.0
  O2-  -2.0
loop_
 _atom_site_type_symbol
 _atom_site_label
 _atom_site_symmetry_multiplicity
 _atom_site_fract_x
 _atom_site_fract_y
 _atom_site_fract_z
 _atom_site_occupancy
  H+  H0  1  0.38924710  0.62139434  0.17177095  1
  H+  H1  1  0.34346960  0.94389350  0.09979696  1
  H+  H2  1  1.02167004  0.61876024  0.34423056  1
  H+  H3  1  0.90905072  0.97171728  0.48750494  1
  H+  H4  1  0.72373867  0.35230854  0.17402882  1
  H+  H5  1  0.12521865  0.26976042  0.50021903  1
  H+  H6  1  0.11449447  -0.00393289  0.82911082  1
  H+  H7  1  -0.00639482  0.84844721  -0.01870760  1
  H+  H8  1  0.23208948  0.10381681  0.33120557  1
  H+  H9  1  0.89699569  0.11104245  0.18299545  1
  H+  H10  1  0.15005977  0.94881096  0.00675191  1
  H+  H11  1  0.47520739  0.84732581  0.65612674  1
  H+  H12  1  0.88290298  0.88608553  0.34281420  1
  H+  H13  1  0.78383436  0.65031269  0.32091505  1
  H+  H14  1  0.27133839  0.63193517  0.16413257  1
  H+  H15  1  -0.01700388  0.62351477  0.66218456  1
  H+  H16  1  0.88736551  0.13561306  0.49863531  1
  H+  H17  1  0.41685287  0.21398249  0.16129150  1
  H+  H18  1  0.23182020  0.36675657  0.33023307  1
  H+  H19  1  0.63437033  0.11201036  0.33667731  1
  H+  H20  1  0.99190862  0.11954929  0.64908963  1
  H+  H21  1  0.38913714  0.53659566  0.83658862  1
  H+  H22  1  0.13796468  0.59053354  0.15896815  1
  H+  H23  1  0.66679731  0.75273462  0.48371739  1
  H+  H24  1  0.12053443  0.23176319  0.16167013  1
  H+  H25  1  0.38796273  0.52050576  0.66740891  1
  H+  H26  1  0.83085693  0.39976600  0.40340659  1
  H+  H27  1  0.21962875  0.12958679  0.51514260  1
  H+  H28  1  0.36443849  0.85560169  0.20123288  1
  H+  H29  1  0.59311090  0.74357595  0.97734752  1
  H+  H30  1  0.65146984  0.59386611  0.39912173  1
  H+  H31  1  0.60979840  0.63180671  1.00018821  1
  H+  H32  1  0.89324901  0.77873535  0.83290455  1
  H+  H33  1  0.86392817  -0.02003069  0.83172252  1
  H+  H34  1  0.62096263  0.76612236  0.31545472  1
  H+  H35  1  0.52685283  0.38185562  0.00354740  1
  H+  H36  1  0.13564306  0.13680804  0.34039166  1
  H+  H37  1  0.11043186  0.73086992  0.67087471  1
  H+  H38  1  0.38142463  0.17265798  0.09669430  1
  H+  H39  1  1.01358800  0.89348999  0.15258731  1
  H+  H40  1  0.13528036  0.87336720  0.65717940  1
  H+  H41  1  0.91218368  0.26127378  0.65389826  1
  H+  H42  1  0.39528873  0.64899587  0.32053799  1
  H+  H43  1  0.18712261  0.17098235  0.88219748  1
  H+  H44  1  1.00444392  0.37819934  0.99151634  1
  H+  H45  1  0.20083010  0.88104006  0.49860612  1
  H+  H46  1  0.10707328  0.02677723  0.98856068  1
  H+  H47  1  0.66352030  0.87373415  0.50568830  1
  H+  H48  1  0.36094619  0.49370013  0.34172072  1
  H+  H49  1  0.23207220  0.62402306  0.00343969  1
  H+  H50  1  0.10199047  0.91510964  0.39864766  1
  H+  H51  1  0.63577778  0.27657462  0.50746526  1
  H+  H52  1  0.36267845  0.23280996  0.49626034  1
  H+  H53  1  0.91032398  0.85950888  0.50941270  1
  H+  H54  1  0.37025429  1.00939903  0.83502319  1
  H+  H55  1  0.38141331  0.12302146  0.51464700  1
  H+  H56  1  0.41885822  1.07600931  0.27145715  1
  H+  H57  1  0.38977446  0.26767471  0.99493419  1
  H+  H58  1  0.78265356  0.12711039  0.67029834  1
  H+  H59  1  0.36983856  0.48592691  0.16755347  1
  H+  H60  1  0.41798189  0.12297352  0.66604644  1
  H+  H61  1  0.88294042  0.25364766  0.48894039  1
  H+  H62  1  0.12693707  0.88402542  0.33858449  1
  H+  H63  1  0.14183098  0.02198285  0.32694544  1
  H+  H64  1  0.64239742  0.36949912  1.00206505  1
  H+  H65  1  0.12676259  0.48707496  0.48545598  1
  H+  H66  1  0.37549269  0.27262403  0.84080403  1
  H+  H67  1  0.75179024  0.41176262  0.68586559  1
  H+  H68  1  0.33463511  0.42954094  0.39955025  1
  H+  H69  1  0.60224255  0.84301252  -0.01642771  1
  H+  H70  1  0.81882423  0.47037652  0.14466942  1
  H+  H71  1  0.44034466  0.08281142  0.99103111  1
  H+  H72  1  0.89350210  0.62617742  0.65617862  1
  H+  H73  1  0.60718824  0.47589810  0.82270558  1
  H+  H74  1  0.51887852  0.62504265  0.66808604  1
  H+  H75  1  0.93613931  0.99973405  0.02246932  1
  H+  H76  1  0.36919609  0.38595384  0.67594005  1
  H+  H77  1  0.52368846  0.38861096  0.49659164  1
  H+  H78  1  0.36640080  0.97090014  0.66555205  1
  H+  H79  1  0.12337464  0.48386718  0.01671535  1
  H+  H80  1  0.36976587  0.65324733  0.01298263  1
  H+  H81  1  0.91016743  0.31102236  0.25286782  1
  H+  H82  1  0.77732608  0.38309065  0.49329996  1
  H+  H83  1  0.64382421  0.60756802  0.14140151  1
  H+  H84  1  0.15638542  0.54116429  0.84510433  1
  H+  H85  1  0.47946988  0.62224838  0.17110833  1
  H+  H86  1  0.60231997  0.15446779  0.82035335  1
  H+  H87  1  0.70264450  0.20470411  0.87312248  1
  H+  H88  1  0.79291856  0.38517877  0.83711639  1
  H+  H89  1  0.60996431  0.96442922  0.00319276  1
  H+  H90  1  0.27604262  0.62889381  0.67206527  1
  H+  H91  1  0.38628732  0.67419716  0.84231767  1
  H+  H92  1  0.87828426  0.38577384  1.00513445  1
  H+  H93  1  0.13147325  0.75638055  0.32824616  1
  H+  H94  1  0.64425234  0.28349738  1.01453901  1
  H+  H95  1  0.24641076  0.84745826  1.00511895  1
  H+  H96  1  0.88024401  -0.01261865  0.67410839  1
  H+  H97  1  0.38776395  0.84693933  0.64925266  1
  H+  H98  1  0.60839022  0.14024937  0.49193635  1
  H+  H99  1  0.63749337  0.52604583  0.99512061  1
  H+  H100  1  0.58097523  0.67078154  0.09441687  1
  H+  H101  1  0.45967561  0.81779678  0.83171530  1
  H+  H102  1  0.35651439  0.87084232  -0.00857082  1
  H+  H103  1  0.33896124  0.53648053  0.97204148  1
  H+  H104  1  0.90753427  0.37854372  0.82804101  1
  H+  H105  1  0.51466428  0.62039381  0.00314113  1
  H+  H106  1  0.90938347  0.64318966  0.35286654  1
  H+  H107  1  0.94184868  0.35395764  0.88736976  1
  H+  H108  1  0.64441109  0.27389238  0.65309055  1
  H+  H109  1  0.35373829  0.72627467  0.16864244  1
  H+  H110  1  0.33817012  0.67805558  0.07454269  1
  H+  H111  1  0.74957404  0.85926251  0.01472116  1
  H+  H112  1  0.63902566  0.51720421  0.14256366  1
  H+  H113  1  0.75440609  0.86915170  0.17016813  1
  H+  H114  1  0.02566278  0.14048022  0.81385376  1
  H+  H115  1  0.38510349  0.77968761  0.99837837  1
  H+  H116  1  0.33986271  0.26694126  0.18851866  1
  H+  H117  1  0.58229002  -0.05701884  0.81966491  1
  H+  H118  1  0.88865236  0.35452901  0.19604279  1
  H+  H119  1  0.99086486  0.37545492  0.50206065  1
  H+  H120  1  0.78886782  0.38550077  0.00845062  1
  H+  H121  1  0.86612436  0.72503862  -0.00025802  1
  H+  H122  1  0.92658090  0.90667488  0.01749380  1
  H+  H123  1  0.13619064  0.40009893  0.67061550  1
  H+  H124  1  0.89457091  0.87739802  0.67686424  1
  H+  H125  1  0.36518524  0.71483609  0.67121293  1
  H+  H126  1  0.13616402  0.27141316  0.81733938  1
  H+  H127  1  0.35124713  0.12513966  1.00290893  1
  H+  H128  1  0.89336570  0.85308212  0.18396779  1
  H+  H129  1  0.72519379  0.61600003  -0.00506485  1
  H+  H130  1  0.89150472  0.53027603  0.83775643  1
  H+  H131  1  0.47192192  0.89537443  0.48530500  1
  H+  H132  1  0.38838126  0.37525165  0.32737179  1
  H+  H133  1  0.33565404  0.95437096  -0.01099949  1
  H+  H134  1  0.38883674  0.69479383  0.47514365  1
  H+  H135  1  0.89346258  0.12063346  0.83910966  1
  H+  H136  1  0.13820881  0.61654877  0.65419668  1
  H+  H137  1  0.52355228  0.87404750  0.34401685  1
  H+  H138  1  0.58057756  0.65453284  0.72632979  1
  H+  H139  1  0.03639193  0.91599482  0.67126723  1
  H+  H140  1  0.55210272  0.07507118  1.02784539  1
  H+  H141  1  0.04403853  0.39999809  0.82013558  1
  H+  H142  1  0.36487224  0.11642433  0.34451221  1
  H+  H143  1  0.31561113  0.57068101  0.52951453  1
  H+  H144  1  0.57411869  0.87951436  0.18290783  1
  H+  H145  1  0.61637404  0.72267202  0.82130991  1
  H+  H146  1  0.79875754  0.18142979  0.33195659  1
  H+  H147  1  0.67427269  0.87639619  0.15253585  1
  H+  H148  1  0.99878921  0.87034741  0.32582074  1
  H+  H149  1  0.35726064  0.38793335  0.83110705  1
  H+  H150  1  0.98904210  0.11711686  0.17626591  1
  H+  H151  1  0.82834954  0.18652672  0.02107355  1
  H+  H152  1  0.24349149  0.37867933  0.00610420  1
  H+  H153  1  0.37393948  0.02961541  0.52123717  1
  H+  H154  1  0.09259069  0.16655550  0.40063496  1
  H+  H155  1  0.93325385  0.09356672  0.89483408  1
  H+  H156  1  0.26492055  0.36971092  0.48576543  1
  H+  H157  1  0.47504445  0.04624645  0.07674801  1
  H+  H158  1  0.91963054  0.59030232  0.89652360  1
  H+  H159  1  1.00245823  0.35034521  0.65380880  1
  H+  H160  1  0.14598943  0.62506368  0.49908815  1
  H+  H161  1  0.62237811  0.22905222  0.17144153  1
  H+  H162  1  0.63383003  0.51539886  0.65532060  1
  H+  H163  1  0.16654435  0.59373882  0.94750229  1
  H+  H164  1  0.93481375  0.82597727  0.70953797  1
  H+  H165  1  0.47640086  0.35946952  0.66100606  1
  H+  H166  1  0.51653368  0.39039752  0.82322389  1
  H+  H167  1  0.59883409  0.45377146  0.34753237  1
  H+  H168  1  0.10030407  0.36620590  0.34094655  1
  H+  H169  1  0.48987339  0.13493016  0.31969458  1
  H+  H170  1  0.17746401  0.33997901  0.59378807  1
  H+  H171  1  0.85437731  0.03746167  0.50720051  1
  H+  H172  1  0.62845097  -0.02111631  0.48699585  1
  H+  H173  1  0.13402800  0.77980734  0.83062110  1
  H+  H174  1  0.27181584  0.13561363  1.01719649  1
  H+  H175  1  0.04753682  0.66904042  0.12869164  1
  H+  H176  1  0.61555938  0.63354361  0.82479880  1
  H+  H177  1  0.57027942  0.14785138  0.11695539  1
  H+  H178  1  0.87624340  0.23677270  0.82202715  1
  H+  H179  1  0.64933225  0.09710985  0.63506852  1
  H+  H180  1  0.30259111  0.90216093  0.56586833  1
  H+  H181  1  0.59918178  0.36802950  0.16335772  1
  H+  H182  1  0.87772767  0.72436845  0.50588142  1
  H+  H183  1  0.21675412  0.86324522  0.65378016  1
  H+  H184  1  0.04885648  -0.12876397  0.49707293  1
  H+  H185  1  0.59267156  0.64599558  0.33858640  1
  H+  H186  1  0.63306389  0.86837822  0.31786697  1
  H+  H187  1  0.13199523  0.82235948  1.00767178  1
  H+  H188  1  0.14924562  0.87059328  0.17835229  1
  H+  H189  1  1.00530888  0.13050363  0.99084556  1
  H+  H190  1  0.55390833  0.53318532  0.39793639  1
  H+  H191  1  1.01329939  0.13384924  0.48171070  1
  H+  H192  1  0.63955073  0.36691580  0.50584468  1
  H+  H193  1  0.37505147  0.07186790  0.15655907  1
  H+  H194  1  0.46674181  0.59223935  0.50485383  1
  H+  H195  1  0.62676774  0.75876902  0.65653680  1
  H+  H196  1  0.88803216  0.11807160  0.32708435  1
  H+  H197  1  0.89670287  0.52847629  -0.01062161  1
  H+  H198  1  0.98075379  0.87202326  0.83307853  1
  H+  H199  1  0.72809217  0.10825807  0.18353348  1
  H+  H200  1  0.46518055  0.35407348  0.32939578  1
  H+  H201  1  0.39442686  0.35842264  0.99971935  1
  H+  H202  1  0.15478343  0.29344897  -0.00006766  1
  H+  H203  1  0.85678641  0.36319263  0.67120477  1
  H+  H204  1  0.86654443  0.64079146  0.82346104  1
  H+  H205  1  0.13899476  0.03692914  0.16824663  1
  H+  H206  1  0.15137207  0.28055475  0.65215190  1
  H+  H207  1  0.63264094  0.60378258  0.65443170  1
  H+  H208  1  0.85404152  0.35690354  0.34657003  1
  H+  H209  1  0.66275050  0.62466076  0.50035131  1
  H+  H210  1  0.26897471  0.85761677  0.33589973  1
  H+  H211  1  0.13300178  0.15378351  1.00777728  1
  H+  H212  1  0.36750804  0.39469278  0.17099097  1
  H+  H213  1  0.53768551  0.12590972  0.65441977  1
  H+  H214  1  0.11632761  0.50213577  0.32600188  1
  H+  H215  1  0.86296034  0.22040608  0.18098505  1
  H+  H216  1  0.23601143  0.63515916  0.85297204  1
  H+  H217  1  0.29074928  0.04726828  0.38592489  1
  H+  H218  1  0.13693027  0.23521385  0.33901967  1
  H+  H219  1  0.33772097  0.46051825  0.49956887  1
  H+  H220  1  0.34191362  0.12959768  0.82731039  1
  H+  H221  1  0.73636523  0.14806024  0.84125112  1
  H+  H222  1  0.51106473  0.36911000  0.16170974  1
  H+  H223  1  0.99476215  0.62487776  0.50789244  1
  H+  H224  1  0.25605087  0.14026906  0.83493489  1
  H+  H225  1  0.41532977  0.60074455  0.26517511  1
  H+  H226  1  0.23801481  0.63511673  0.49292136  1
  H+  H227  1  0.67167528  0.09117102  0.43494237  1
  H+  H228  1  0.66782209  0.33840919  0.59771636  1
  H+  H229  1  0.26607689  0.87889810  0.82090823  1
  H+  H230  1  0.63144388  1.02253667  0.18174043  1
  H+  H231  1  0.62483507  0.13243476  0.17439464  1
  H+  H232  1  0.73285443  0.35486399  0.32961977  1
  H+  H233  1  0.12424237  0.14472079  0.16107550  1
  H+  H234  1  0.91220918  0.62478933  0.16653435  1
  H+  H235  1  0.67203223  0.58109267  0.56219204  1
  H+  H236  1  0.11022549  0.59964194  0.05150732  1
  H+  H237  1  0.83674378  0.41390886  0.09945768  1
  H+  H238  1  0.62021982  0.22724532  0.34278006  1
  H+  H239  1  0.14084937  0.87191628  0.83006180  1
  H+  H240  1  0.59267582  0.90918648  0.43581304  1
  H+  H241  1  0.78234584  0.08819034  0.03524977  1
  H+  H242  1  0.60915581  0.86676482  0.67086146  1
  H+  H243  1  0.93960346  0.83577108  0.57120200  1
  H+  H244  1  0.02214401  0.37647980  0.17019120  1
  H+  H245  1  0.90902963  0.11042037  0.99601097  1
  H+  H246  1  0.78416979  0.63019924  0.14478291  1
  H+  H247  1  0.38655218  0.36612406  0.50525919  1
  H+  H248  1  0.88032113  0.39706086  0.64751972  1
  H+  H249  1  0.38476239  0.81103316  0.47108228  1
  H+  H250  1  0.72985355  0.61568538  0.83800445  1
  H+  H251  1  0.29490003  0.11668519  0.68284282  1
  H+  H252  1  0.12630749  0.48441000  0.66823196  1
  H+  H253  1  0.38795636  0.47788400  0.01682395  1
  H+  H254  1  0.64231802  0.35553635  0.32820004  1
  H+  H255  1  0.60882004  0.97026338  0.34184099  1
  H+  H256  1  0.14204036  0.50980725  0.17697413  1
  H+  H257  1  0.14331862  0.74926189  1.03892488  1
  H+  H258  1  0.88209933  -0.02102675  0.17162302  1
  H+  H259  1  0.13908966  0.37046437  0.82202883  1
  H+  H260  1  0.76666692  0.62987867  0.66584348  1
  H+  H261  1  0.62282372  0.72913065  0.15298204  1
  H+  H262  1  0.51442708  0.61008922  0.50213592  1
  H+  H263  1  0.93416913  0.28680820  0.96894857  1
  H+  H264  1  0.87267893  0.13227362  0.67601468  1
  H+  H265  1  0.74356582  0.65028622  0.31154593  1
  H+  H266  1  0.10529387  0.73078501  0.48144529  1
  H+  H267  1  0.11479073  0.13987079  0.81934973  1
  H+  H268  1  0.92865075  0.83466632  0.92695990  1
  H+  H269  1  0.64883590  0.28115830  0.85710841  1
  H+  H270  1  0.86030048  0.20165325  0.42496786  1
  H+  H271  1  0.75563095  0.87796905  0.50846953  1
  H+  H272  1  0.09508857  0.16357226  0.72226781  1
  H+  H273  1  0.02333864  0.63939752  0.82461641  1
  H+  H274  1  0.75725057  0.90394800  1.00991211  1
  H+  H275  1  0.88555640  0.61068953  0.98856509  1
  H+  H276  1  0.10557454  0.13863879  0.49234771  1
  H+  H277  1  0.45295539  0.10398527  0.83731706  1
  H+  H278  1  0.23454882  0.36643653  0.82452395  1
  H+  H279  1  0.92110102  0.77776013  0.33354948  1
  H+  H280  1  0.88724324  0.49748639  0.32853987  1
  H+  H281  1  0.63970262  0.08425030  0.92741825  1
  H+  H282  1  0.61445300  0.95893457  0.67145470  1
  H+  H283  1  0.67746461  0.11184345  0.99159966  1
  H+  H284  1  0.86285838  0.89026563  0.83005286  1
  H+  H285  1  0.89841016  0.62222885  0.51202044  1
  H+  H286  1  0.13822224  0.36077518  0.17912628  1
  H+  H287  1  0.60673319  0.38169057  0.67241780  1
  H+  H288  1  0.35104266  0.87123146  0.82418352  1
  H+  H289  1  0.83683875  0.16809852  0.76801503  1
  H+  H290  1  0.42410153  0.09234207  0.59821369  1
  H+  H291  1  0.93200747  0.82412151  0.23829051  1
  H+  H292  1  0.63428621  0.85598496  0.83115331  1
  H+  H293  1  0.50823806  0.65590731  0.32899072  1
  H+  H294  1  0.66739425  0.08208328  0.28019621  1
  H+  H295  1  0.56859619  0.20189756  0.77513829  1
  H+  H296  1  0.57739060  0.41496034  0.73127967  1
  H+  H297  1  0.16415586  0.08291166  0.93147159  1
  H+  H298  1  0.00482029  0.35382915  0.34440560  1
  H+  H299  1  0.49767988  0.89209025  0.17132336  1
  H+  H300  1  0.13716455  0.36461275  0.50198814  1
  H+  H301  1  0.17186674  0.32846290  0.27067941  1
  H+  H302  1  0.16936250  0.82393590  0.27151090  1
  H+  H303  1  0.48389438  0.61877269  0.83710552  1
  H+  H304  1  0.57663467  0.39314746  0.40245002  1
  H+  H305  1  0.38464495  0.60906112  0.66642624  1
  H+  H306  1  0.15935993  0.11799854  0.57182793  1
  H+  H307  1  0.61575472  0.69731091  0.42673402  1
  H+  H308  1  0.33014582  0.90541524  0.72042500  1
  H+  H309  1  0.84057464  0.66827231  0.06029447  1
  H+  H310  1  0.88514613  0.67903787  0.41132167  1
  H+  H311  1  0.11414760  0.64315360  0.82754114  1
  H+  H312  1  0.20348298  0.15562221  0.67456946  1
  H+  H313  1  0.69280581  0.31925595  0.92052377  1
  H+  H314  1  0.41645018  0.33664804  0.56556651  1
  H+  H315  1  0.67009164  0.58560685  0.89747744  1
  H+  H316  1  0.61590850  0.47592245  0.49252793  1
  H+  H317  1  0.66862242  0.84025513  0.25456709  1
  H+  H318  1  0.40277323  0.81597488  0.24815465  1
  H+  H319  1  0.57880054  0.16910773  0.40256255  1
  H+  H320  1  0.72838192  0.86532435  0.84335210  1
  H+  H321  1  0.23113228  0.36838946  0.17822506  1
  H+  H322  1  0.60507578  0.54050112  0.24880680  1
  H+  H323  1  0.84171171  0.49826731  0.68611734  1
  H+  H324  1  0.35341720  0.70963883  0.41140333  1
  H+  H325  1  0.24773308  0.92256220  0.19213195  1
  H+  H326  1  0.15356491  0.56789585  0.27063353  1
  H+  H327  1  0.35088598  0.42266565  0.07772035  1
  H+  H328  1  0.65265102  0.55758294  0.24975799  1
  H+  H329  1  0.34172205  0.90212041  0.38627741  1
  H+  H330  1  0.60749409  0.14352391  0.70486784  1
  H+  H331  1  0.57989237  0.90657469  0.06266679  1
  H+  H332  1  0.08694352  0.90732619  0.06282482  1
  H+  H333  1  0.08559910  0.66976586  0.72992488  1
  H+  H334  1  0.07898342  0.65992238  0.42918194  1
  H+  H335  1  0.51697551  0.13733588  0.49902207  1
  H+  H336  1  0.66860971  0.82749596  0.60268910  1
  H+  H337  1  0.94088505  0.55377160  0.16694036  1
  H+  H338  1  0.66984804  0.32457631  0.23735226  1
  H+  H339  1  0.37957788  0.83042934  0.33480824  1
  H+  H340  1  0.39131727  0.06502009  0.92575069  1
  H+  H341  1  0.83208564  0.66571869  0.76402640  1
  H+  H342  1  0.82670434  0.43108152  0.77249363  1
  H+  H343  1  0.28100996  0.38730859  0.67239150  1
  H+  H344  1  0.40259071  0.32363803  0.24239043  1
  H+  H345  1  0.36421748  0.55130816  0.58261363  1
  H+  H346  1  0.91780083  0.07879751  0.27502905  1
  H+  H347  1  0.41382843  0.58721076  0.92593101  1
  H+  H348  1  0.85124984  0.72326052  0.66718215  1
  H+  H349  1  0.02010998  0.95658561  0.10093531  1
  H+  H350  1  0.86777963  0.38638843  0.49402457  1
  H+  H351  1  0.41016218  0.33126613  0.90022354  1
  H+  H352  1  0.07872857  0.40780144  0.10806007  1
  H+  H353  1  0.17200446  0.59086516  0.59469334  1
  H+  H354  1  0.57992408  0.40968793  0.06537877  1
  H+  H355  1  0.83905117  0.16167785  0.12141201  1
  H+  H356  1  0.32844551  0.15934854  0.44361605  1
  H+  H357  1  0.12914160  0.39753368  0.01544668  1
  H+  H358  1  0.86992242  0.96855709  0.34611086  1
  H+  H359  1  0.87148068  0.71927252  0.16001451  1
  H+  H360  1  0.38271123  0.27351511  0.66200046  1
  H+  H361  1  0.78667166  0.63399655  0.50072987  1
  H+  H362  1  0.40570947  0.81960700  0.93196299  1
  H+  H363  1  0.63008487  0.81296652  0.91418902  1
  H+  H364  1  0.87280052  0.92486527  0.11223101  1
  H+  H365  1  0.17443439  0.08840086  0.23003705  1
  H+  H366  1  0.57152803  0.89271455  0.75725169  1
  H+  H367  1  0.33478263  0.41785576  0.76783200  1
  H+  H368  1  0.10707051  0.43260431  0.76204057  1
  H+  H369  1  0.84252790  0.93055410  0.73507586  1
  H+  H370  1  0.08724721  0.41810946  0.43040333  1
  H+  H371  1  0.74598190  0.13640084  0.48084868  1
  H+  H372  1  0.68602005  0.05658131  0.58828858  1
  H+  H373  1  0.92345593  0.56513286  0.27215262  1
  H+  H374  1  0.93729158  0.33149212  0.56240322  1
  H+  H375  1  0.09989036  0.17927630  0.06781540  1
  H+  H376  1  0.30841066  0.16812073  0.74521827  1
  H+  H377  1  0.34956697  0.90096586  0.50522088  1
  H+  H378  1  0.11069076  0.61984168  0.34360445  1
  H+  H379  1  0.92283171  0.09269238  0.59565735  1
  H+  H380  1  0.09446262  0.94809559  0.76554159  1
  H+  H381  1  0.11335557  1.01119954  0.67150989  1
  H+  H382  1  0.93436371  0.59673675  0.57595912  1
  H+  H383  1  0.85886529  0.91111745  0.43069495  1
  O2-  O384  1  0.09105431  0.17217950  0.14461134  1
  O2-  O385  1  0.07416880  0.16411845  0.46876232  1
  O2-  O386  1  0.08577425  0.16903424  0.79728284  1
  O2-  O387  1  0.08138770  0.40518340  0.15341991  1
  O2-  O388  1  0.09431400  0.42471387  0.47570392  1
  O2-  O389  1  0.10634800  0.42836807  0.80820623  1
  O2-  O390  1  0.09680220  0.68230636  0.10115074  1
  O2-  O391  1  0.08088933  0.66824572  0.47567185  1
  O2-  O392  1  0.08348829  0.66995975  0.80811824  1
  O2-  O393  1  0.05611403  0.93903350  0.12408247  1
  O2-  O394  1  0.10637524  0.90162821  0.47697779  1
  O2-  O395  1  0.08741099  0.93873730  0.81040695  1
  O2-  O396  1  0.41413332  0.17113399  0.13266322  1
  O2-  O397  1  0.32875552  0.16940494  0.48814138  1
  O2-  O398  1  0.31702889  0.16544795  0.81435036  1
  O2-  O399  1  0.33912251  0.42473132  0.15285679  1
  O2-  O400  1  0.32689960  0.40837097  0.47529098  1
  O2-  O401  1  0.32783400  0.41848626  0.81351739  1
  O2-  O402  1  0.33231406  0.66902219  0.14935146  1
  O2-  O403  1  0.34355689  0.70400661  0.45918164  1
  O2-  O404  1  0.35234780  0.70314654  0.83360916  1
  O2-  O405  1  0.39275238  0.97738275  0.12710095  1
  O2-  O406  1  0.31058763  0.92131260  0.52358503  1
  O2-  O407  1  0.32858458  0.90621637  0.80638341  1
  O2-  O408  1  0.59166171  0.16329890  0.16031960  1
  O2-  O409  1  0.57638906  0.17029683  0.48209232  1
  O2-  O410  1  0.56031016  0.17482364  0.81482451  1
  O2-  O411  1  0.56948142  0.39606743  0.14452676  1
  O2-  O412  1  0.58313390  0.41459811  0.47920358  1
  O2-  O413  1  0.57500673  0.41699878  0.80577641  1
  O2-  O414  1  0.58333562  0.66952860  0.13957140  1
  O2-  O415  1  0.65506345  0.70111873  0.45901904  1
  O2-  O416  1  0.58300318  0.66157294  0.80877735  1
  O2-  O417  1  0.55952167  0.91613301  0.15896122  1
  O2-  O418  1  0.59586123  0.91602358  0.48076438  1
  O2-  O419  1  0.56487963  0.88577529  0.80421760  1
  O2-  O420  1  0.83246815  0.15889838  0.16599724  1
  O2-  O421  1  0.85132164  0.19298391  0.46974658  1
  O2-  O422  1  0.83824852  0.17421044  0.81356883  1
  O2-  O423  1  0.82611409  0.42014178  0.14384146  1
  O2-  O424  1  0.83469710  0.41020996  0.47401593  1
  O2-  O425  1  0.84614291  0.42296938  0.81429085  1
  O2-  O426  1  0.84830556  0.66203843  0.13995817  1
  O2-  O427  1  0.84940771  0.66397658  0.49027732  1
  O2-  O428  1  0.83608388  0.67179384  0.80903035  1
  O2-  O429  1  0.85304192  0.91818897  0.15541273  1
  O2-  O430  1  0.86334300  0.91350113  0.47861920  1
  O2-  O431  1  0.82964350  0.91899931  0.81810852  1
  O2-  O432  1  0.17509314  0.09507001  0.18528064  1
  O2-  O433  1  0.15909271  0.10636861  0.52806189  1
  O2-  O434  1  0.17182759  0.11547943  0.86411492  1
  O2-  O435  1  0.17145160  0.33303708  0.19401796  1
  O2-  O436  1  0.16214673  0.32872996  0.51635558  1
  O2-  O437  1  0.16776836  0.33295544  0.83311817  1
  O2-  O438  1  0.16958319  0.57247663  0.18647731  1
  O2-  O439  1  0.18053526  0.59820378  0.51138886  1
  O2-  O440  1  0.17487323  0.59762496  0.86418452  1
  O2-  O441  1  0.19558627  0.86590217  0.19739807  1
  O2-  O442  1  0.13948577  0.84284749  0.48724876  1
  O2-  O443  1  0.17006706  0.84078750  0.84353148  1
  O2-  O444  1  0.35711437  0.01189872  0.17248393  1
  O2-  O445  1  0.41310032  0.09272222  0.52874691  1
  O2-  O446  1  0.39292204  0.06894883  0.85176145  1
  O2-  O447  1  0.39719385  0.31582586  0.19553605  1
  O2-  O448  1  0.41880886  0.33740476  0.52010000  1
  O2-  O449  1  0.40513304  0.33350144  0.85513781  1
  O2-  O450  1  0.41978976  0.59144621  0.18769845  1
  O2-  O451  1  0.32671526  0.52696491  0.54555569  1
  O2-  O452  1  0.42378166  0.59529470  0.85367305  1
  O2-  O453  1  0.39947504  0.82820192  0.20352071  1
  O2-  O454  1  0.41218802  0.87506548  0.47320872  1
  O2-  O455  1  0.40443597  0.79264730  0.85520982  1
  O2-  O456  1  0.66607464  0.08309080  0.19646595  1
  O2-  O457  1  0.68139699  0.09725745  0.47888524  1
  O2-  O458  1  0.68386086  0.14433079  0.86056219  1
  O2-  O459  1  0.66433414  0.31955384  0.19114283  1
  O2-  O460  1  0.66933387  0.33688131  0.52229560  1
  O2-  O461  1  0.70308727  0.30246135  0.87943875  1
  O2-  O462  1  0.67648381  0.57825306  0.13239079  1
  O2-  O463  1  0.67897288  0.58270548  0.51664542  1
  O2-  O464  1  0.66892311  0.58581571  0.85224076  1
  O2-  O465  1  0.68987866  0.84271365  0.17892531  1
  O2-  O466  1  0.69474375  0.84510083  0.52155643  1
  O2-  O467  1  0.66487657  0.82999479  0.85303367  1
  O2-  O468  1  0.92954164  0.08141179  0.19301706  1
  O2-  O469  1  0.90469775  0.09342223  0.51540604  1
  O2-  O470  1  0.92642775  0.09120944  0.84977964  1
  O2-  O471  1  0.91588365  0.32064332  0.20592052  1
  O2-  O472  1  0.93073095  0.34233262  0.51797921  1
  O2-  O473  1  0.93926682  0.34862373  0.84238864  1
  O2-  O474  1  0.95651226  0.61079907  0.18202905  1
  O2-  O475  1  0.93468867  0.59621248  0.52830704  1
  O2-  O476  1  0.91971382  0.59176028  0.85043609  1
  O2-  O477  1  0.92594125  0.82290746  0.19237485  1
  O2-  O478  1  0.93973553  0.82925660  0.52697616  1
  O2-  O479  1  0.92071578  0.83888413  0.84907337  1
  O2-  O480  1  0.17355002  0.08414584  0.31409903  1
  O2-  O481  1  0.14413565  0.12394185  0.65618345  1
  O2-  O482  1  0.16304215  0.07574441  0.97845430  1
  O2-  O483  1  0.17151618  0.32556830  0.31645411  1
  O2-  O484  1  0.18168896  0.34151946  0.63934928  1
  O2-  O485  1  0.18455564  0.35572640  0.99031230  1
  O2-  O486  1  0.14784947  0.56390144  0.31530367  1
  O2-  O487  1  0.16729356  0.58502663  0.63963681  1
  O2-  O488  1  0.17014987  0.58928648  0.99240045  1
  O2-  O489  1  0.16560119  0.81858723  0.31662824  1
  O2-  O490  1  0.15526739  0.83458844  0.64271067  1
  O2-  O491  1  0.16390766  0.79036830  1.00414865  1
  O2-  O492  1  0.43700592  0.12553472  0.29805971  1
  O2-  O493  1  0.43394225  0.08618346  0.64378968  1
  O2-  O494  1  0.38335961  0.05718961  0.97151620  1
  O2-  O495  1  0.40803015  0.33614742  0.31179569  1
  O2-  O496  1  0.41567969  0.33188287  0.64462086  1
  O2-  O497  1  0.42168877  0.32815024  0.97977832  1
  O2-  O498  1  0.41598949  0.60649644  0.31047221  1
  O2-  O499  1  0.41538526  0.57872599  0.64871055  1
  O2-  O500  1  0.40043349  0.57826859  0.97152816  1
  O2-  O501  1  0.41774192  0.80588309  0.32187654  1
  O2-  O502  1  0.41670348  0.81463982  0.63851351  1
  O2-  O503  1  0.40842433  0.83546194  0.97561101  1
  O2-  O504  1  0.66653568  0.08153718  0.32527258  1
  O2-  O505  1  0.68007763  0.06407291  0.63159259  1
  O2-  O506  1  0.62738036  0.06593350  0.97122600  1
  O2-  O507  1  0.67269712  0.32620399  0.31145818  1
  O2-  O508  1  0.66281101  0.33409817  0.64342921  1
  O2-  O509  1  0.67575533  0.33841069  0.99359364  1
  O2-  O510  1  0.60397630  0.55975721  0.37123989  1
  O2-  O511  1  0.66535094  0.57557098  0.63903149  1
  O2-  O512  1  0.66433379  0.58596129  0.97954387  1
  O2-  O513  1  0.65894202  0.83351983  0.29972616  1
  O2-  O514  1  0.65399905  0.82089075  0.64637298  1
  O2-  O515  1  0.59338214  0.79387914  0.95489509  1
  O2-  O516  1  0.90418292  0.07423058  0.31888162  1
  O2-  O517  1  0.92942712  0.09019228  0.64034359  1
  O2-  O518  1  0.94494800  0.09047938  0.97624114  1
  O2-  O519  1  0.90039629  0.29848926  0.32284293  1
  O2-  O520  1  0.95617146  0.30672754  0.62790548  1
  O2-  O521  1  0.94607733  0.34587137  0.96996045  1
  O2-  O522  1  0.92003554  0.55976909  0.31662403  1
  O2-  O523  1  0.92396189  0.59511911  0.64286409  1
  O2-  O524  1  0.91911281  0.58565721  0.97104297  1
  O2-  O525  1  0.93764928  0.83413253  0.31298210  1
  O2-  O526  1  0.92518122  0.84141272  0.66890309  1
  O2-  O527  1  0.93331837  0.83145112  0.97229888  1
  O2-  O528  1  0.10267600  0.18384024  0.02205580  1
  O2-  O529  1  0.10751020  0.17200626  0.35480767  1
  O2-  O530  1  0.10033361  0.17015263  0.67607820  1
  O2-  O531  1  0.09171957  0.42210420  0.02923085  1
  O2-  O532  1  0.06726461  0.39320071  0.35545551  1
  O2-  O533  1  0.10385514  0.42676170  0.68812072  1
  O2-  O534  1  0.07872746  0.59410395  0.09033346  1
  O2-  O535  1  0.08230937  0.65348511  0.35878247  1
  O2-  O536  1  0.08352627  0.66944069  0.68432324  1
  O2-  O537  1  0.09958913  0.89570191  0.02011106  1
  O2-  O538  1  0.10341640  0.92100151  0.35347542  1
  O2-  O539  1  0.09684298  0.95243342  0.68495939  1
  O2-  O540  1  0.33415475  0.16312098  0.02453973  1
  O2-  O541  1  0.31563362  0.10684236  0.37275331  1
  O2-  O542  1  0.30208659  0.17057969  0.69845956  1
  O2-  O543  1  0.35382812  0.41886496  0.03208356  1
  O2-  O544  1  0.33488016  0.43253201  0.35383074  1
  O2-  O545  1  0.33823810  0.41459909  0.69315473  1
  O2-  O546  1  0.33902319  0.68182997  0.02860139  1
  O2-  O547  1  0.36930856  0.71608719  0.34491900  1
  O2-  O548  1  0.33509352  0.65518295  0.68827711  1
  O2-  O549  1  0.31711515  0.89621211  0.00791659  1
  O2-  O550  1  0.33258379  0.88565377  0.34356844  1
  O2-  O551  1  0.33034652  0.90920953  0.67526706  1
  O2-  O552  1  0.52113760  0.09582096  0.05352199  1
  O2-  O553  1  0.58508673  0.16636231  0.35761487  1
  O2-  O554  1  0.60153265  0.15429127  0.66223998  1
  O2-  O555  1  0.58684137  0.41447860  0.02025372  1
  O2-  O556  1  0.57660141  0.39262945  0.35683066  1
  O2-  O557  1  0.57637138  0.41280162  0.68508845  1
  O2-  O558  1  0.57525913  0.66033979  0.01311362  1
  O2-  O559  1  0.57319086  0.68865106  0.34104575  1
  O2-  O560  1  0.58087391  0.65282447  0.68119251  1
  O2-  O561  1  0.61454933  0.91909646  0.02556191  1
  O2-  O562  1  0.58650008  0.90876688  0.35348054  1
  O2-  O563  1  0.58068877  0.90030488  0.68819020  1
  O2-  O564  1  0.83679040  0.14185576  0.03940605  1
  O2-  O565  1  0.85967748  0.20670942  0.34369894  1
  O2-  O566  1  0.83891342  0.15889081  0.69115290  1
  O2-  O567  1  0.84861803  0.41386240  0.02401297  1
  O2-  O568  1  0.82957443  0.39492505  0.35675422  1
  O2-  O569  1  0.79480788  0.45732083  0.71256907  1
  O2-  O570  1  0.83153734  0.66523974  0.01535343  1
  O2-  O571  1  0.91631458  0.69581266  0.37236473  1
  O2-  O572  1  0.82763269  0.66340868  0.68109018  1
  O2-  O573  1  0.93607064  0.95320850  0.04681675  1
  O2-  O574  1  0.85049908  0.91053444  0.36334282  1
  O2-  O575  1  0.85254853  0.92831532  0.69099057  1
