# generated using pymatgen
data_H2O
_symmetry_space_group_name_H-M   'P 1'
_cell_length_a   17.97597284
_cell_length_b   17.98319705
_cell_length_c   21.99184182
_cell_angle_alpha   90.01762303
_cell_angle_beta   89.96291260
_cell_angle_gamma   119.97021401
_symmetry_Int_Tables_number   1
_chemical_formula_structural   H2O
_chemical_formula_sum   'H384 O192'
_cell_volume   6158.59609560
_cell_formula_units_Z   192
loop_
 _symmetry_equiv_pos_site_id
 _symmetry_equiv_pos_as_xyz
  1  'x, y, z'
loop_
 _atom_type_symbol
 _atom_type_oxidation_number
  H+  1.0
  O2-  -2.0
loop_
 _atom_site_type_symbol
 _atom_site_label
 _atom_site_symmetry_multiplicity
 _atom_site_fract_x
 _atom_site_fract_y
 _atom_site_fract_z
 _atom_site_occupancy
  H+  H0  1  0.70145263  0.86149836  0.19076579  1
  H+  H1  1  0.38330368  0.61212844  0.00932811  1
  H+  H2  1  0.50365805  0.38946548  0.82340422  1
  H+  H3  1  0.53005928  0.40368722  0.66644736  1
  H+  H4  1  1.02374940  0.63606010  1.00974898  1
  H+  H5  1  0.13075729  0.35965562  0.16859577  1
  H+  H6  1  0.88684549  0.60736746  0.17554644  1
  H+  H7  1  0.58688991  0.09057811  0.64448693  1
  H+  H8  1  0.34889453  0.96548750  0.67704134  1
  H+  H9  1  0.13013758  0.01918164  0.84752417  1
  H+  H10  1  0.47012913  0.84999903  0.30802408  1
  H+  H11  1  0.57216720  0.16687694  0.73126496  1
  H+  H12  1  0.60159292  0.23040646  0.15766317  1
  H+  H13  1  0.65478250  0.41008366  0.48120248  1
  H+  H14  1  0.13099403  0.36523310  0.32318575  1
  H+  H15  1  0.24230765  0.73219803  0.55449914  1
  H+  H16  1  0.33693692  0.64538629  0.40082574  1
  H+  H17  1  0.36189986  0.63314437  0.84344692  1
  H+  H18  1  0.12564379  0.27293205  0.32673776  1
  H+  H19  1  0.47223571  0.35138568  0.16347148  1
  H+  H20  1  0.29628261  0.27245323  0.45746945  1
  H+  H21  1  0.37872375  0.20394618  0.15860861  1
  H+  H22  1  0.60901128  0.63887843  0.00646011  1
  H+  H23  1  0.23604180  0.11041712  0.17635782  1
  H+  H24  1  0.59769397  0.89155143  0.15607728  1
  H+  H25  1  0.64035905  0.14076396  0.48318137  1
  H+  H26  1  0.22120868  0.86975213  0.17483966  1
  H+  H27  1  0.87932169  0.35886858  0.16700547  1
  H+  H28  1  0.21689993  0.33307396  0.50980903  1
  H+  H29  1  0.11794502  0.76934925  0.50328572  1
  H+  H30  1  0.85790097  0.21946423  0.49747974  1
  H+  H31  1  0.29090656  0.66778212  0.49684920  1
  H+  H32  1  0.62650131  0.36262837  0.83927226  1
  H+  H33  1  1.02532884  0.38631131  1.01003570  1
  H+  H34  1  0.90515575  0.29047841  0.66684941  1
  H+  H35  1  0.63613726  0.27449828  0.99161677  1
  H+  H36  1  0.51367356  0.11450864  0.33136411  1
  H+  H37  1  0.65716625  0.52807035  0.85975648  1
  H+  H38  1  0.87304619  0.06433348  1.00452354  1
  H+  H39  1  0.82771749  0.90449543  -0.00996217  1
  H+  H40  1  0.60938451  0.22905370  0.82632545  1
  H+  H41  1  0.87656222  0.10416358  0.33437132  1
  H+  H42  1  0.12195010  0.76506035  0.66190642  1
  H+  H43  1  0.62449237  0.59301495  0.22694089  1
  H+  H44  1  0.38823614  0.10803868  0.32705700  1
  H+  H45  1  0.46054486  0.10162189  0.51165826  1
  H+  H46  1  0.74630742  0.06580939  0.62458730  1
  H+  H47  1  0.63412712  0.65719650  0.69321788  1
  H+  H48  1  0.72375826  0.62231747  0.52284969  1
  H+  H49  1  0.36318097  0.89359100  0.48542302  1
  H+  H50  1  0.97580000  0.60494913  0.32528196  1
  H+  H51  1  0.66723358  0.06861716  0.77881277  1
  H+  H52  1  0.16544282  0.58173108  0.91387226  1
  H+  H53  1  0.12984637  0.33886167  0.50664991  1
  H+  H54  1  0.60645941  0.62129605  0.50992342  1
  H+  H55  1  0.36224149  0.22362283  0.32964563  1
  H+  H56  1  0.63977690  0.87127212  -0.00708841  1
  H+  H57  1  0.85785787  0.61898272  0.30916627  1
  H+  H58  1  0.35980025  0.72248163  0.84477835  1
  H+  H59  1  0.89145786  0.52618182  0.99927038  1
  H+  H60  1  0.81672008  0.65047314  0.22519225  1
  H+  H61  1  0.74903949  0.61472058  0.65142320  1
  H+  H62  1  0.04318147  0.43824043  0.35289542  1
  H+  H63  1  0.02098906  0.13293399  0.84527304  1
  H+  H64  1  0.63761080  0.52320754  1.00541930  1
  H+  H65  1  0.56632862  0.90065741  0.77382207  1
  H+  H66  1  0.36576611  0.47999525  0.00764968  1
  H+  H67  1  0.22692037  0.10017556  1.00103905  1
  H+  H68  1  0.87646388  0.75892112  0.31438744  1
  H+  H69  1  0.90358194  0.27411375  0.85683934  1
  H+  H70  1  0.70334884  0.61314690  0.18262387  1
  H+  H71  1  0.66265810  0.79414066  0.66769081  1
  H+  H72  1  0.13264092  0.36509685  0.83820587  1
  H+  H73  1  0.97872523  0.61265218  0.16936428  1
  H+  H74  1  0.68212326  0.84473193  0.60493396  1
  H+  H75  1  0.69362219  0.21997862  0.44046085  1
  H+  H76  1  0.76834194  0.38408259  0.15933895  1
  H+  H77  1  0.65248219  0.27826818  0.50381710  1
  H+  H78  1  0.89209409  0.61492207  0.00255423  1
  H+  H79  1  0.88412445  0.90588307  0.66693473  1
  H+  H80  1  0.86247258  0.71019734  0.49419299  1
  H+  H81  1  0.13731015  0.61590411  1.00624724  1
  H+  H82  1  0.78599360  0.14164131  0.83223451  1
  H+  H83  1  0.52230891  0.38394982  0.00698832  1
  H+  H84  1  0.45853137  0.60807790  0.15529203  1
  H+  H85  1  0.81115021  0.90901427  0.24876439  1
  H+  H86  1  0.50687905  0.58639598  0.83040674  1
  H+  H87  1  0.63661620  0.11815301  0.82049994  1
  H+  H88  1  0.14510599  0.40069650  0.99058771  1
  H+  H89  1  0.16047667  0.83155440  0.90675191  1
  H+  H90  1  0.22087729  0.85940280  0.33029368  1
  H+  H91  1  0.17754885  0.59982474  0.26198415  1
  H+  H92  1  0.51093444  0.61256947  0.28984392  1
  H+  H93  1  0.11812844  0.65903837  0.49824331  1
  H+  H94  1  0.10844902  0.88560539  0.83765071  1
  H+  H95  1  0.35656850  0.87924673  0.83564419  1
  H+  H96  1  0.87158799  0.34654493  0.32744887  1
  H+  H97  1  0.38295728  0.35618342  -0.00623543  1
  H+  H98  1  0.60387452  -0.04813493  0.83436749  1
  H+  H99  1  0.32712191  0.66340224  0.75354597  1
  H+  H100  1  0.52238779  0.13646016  0.82814587  1
  H+  H101  1  -0.01637152  0.11847483  0.66726216  1
  H+  H102  1  0.77941921  0.64624181  0.84402158  1
  H+  H103  1  0.10529329  0.13423200  0.68625080  1
  H+  H104  1  0.35511907  0.90749633  0.15750803  1
  H+  H105  1  0.94740240  0.03983523  1.00950126  1
  H+  H106  1  0.11655238  0.01641368  0.67473746  1
  H+  H107  1  0.89167829  0.10577223  0.85914517  1
  H+  H108  1  0.37587513  0.34715346  0.31006922  1
  H+  H109  1  0.22702682  0.61215948  0.85572967  1
  H+  H110  1  0.07019475  0.91786457  0.24385336  1
  H+  H111  1  0.38828028  0.01833977  0.99460510  1
  H+  H112  1  0.37853780  0.34048857  0.15916902  1
  H+  H113  1  0.13736662  0.50240533  0.33690918  1
  H+  H114  1  0.37425232  0.50083906  0.48849900  1
  H+  H115  1  0.58303564  0.00025784  0.64764887  1
  H+  H116  1  0.35846858  0.14545959  0.48652361  1
  H+  H117  1  0.62515971  0.26989433  0.66028314  1
  H+  H118  1  0.26357609  0.37796200  0.32507962  1
  H+  H119  1  0.60849164  0.89117099  0.67932588  1
  H+  H120  1  -0.02508623  0.11248711  0.51325215  1
  H+  H121  1  0.13223377  0.11310951  0.33190942  1
  H+  H122  1  0.38123060  1.01599050  0.32648170  1
  H+  H123  1  0.36782478  0.64394931  0.69533275  1
  H+  H124  1  0.13700761  0.52643806  0.16849777  1
  H+  H125  1  0.91459151  0.80016307  0.65420314  1
  H+  H126  1  0.07992786  0.85617575  1.02736586  1
  H+  H127  1  0.10404750  0.21552074  0.49912959  1
  H+  H128  1  0.36682106  0.09556293  0.66698202  1
  H+  H129  1  0.72267629  0.34126470  0.32422331  1
  H+  H130  1  0.89240128  0.35572052  1.00240585  1
  H+  H131  1  0.50671899  0.13619816  0.67477580  1
  H+  H132  1  0.35849511  0.36493281  0.47819558  1
  H+  H133  1  0.72635734  0.61468018  1.00946279  1
  H+  H134  1  0.38135322  0.76855207  0.68021746  1
  H+  H135  1  0.98560221  0.38273592  0.66086308  1
  H+  H136  1  0.21639020  0.35823939  0.66536373  1
  H+  H137  1  0.37150763  0.34823185  0.84333578  1
  H+  H138  1  0.11744206  0.63844205  0.83530200  1
  H+  H139  1  0.21825058  0.86311236  0.99688359  1
  H+  H140  1  0.76935002  0.38518623  0.66486292  1
  H+  H141  1  0.63657738  0.25128107  0.31679864  1
  H+  H142  1  0.88314395  0.47861452  0.49776262  1
  H+  H143  1  0.15400923  0.50966355  0.50650005  1
  H+  H144  1  0.61065371  0.60839932  0.34839613  1
  H+  H145  1  0.76620875  0.61034416  0.32127892  1
  H+  H146  1  0.89173672  0.15422624  0.68407122  1
  H+  H147  1  0.35310669  0.46554187  0.14895940  1
  H+  H148  1  0.27346128  0.13476506  0.34144678  1
  H+  H149  1  0.26814345  0.88480237  0.49189359  1
  H+  H150  1  0.77693924  0.38407890  0.00320321  1
  H+  H151  1  0.16224409  0.83120015  0.27076907  1
  H+  H152  1  0.37170332  0.13445295  0.00304266  1
  H+  H153  1  0.10637870  0.12924354  0.49803975  1
  H+  H154  1  0.39817380  0.07248979  0.60454385  1
  H+  H155  1  0.39223500  0.30401653  0.63376000  1
  H+  H156  1  0.02460991  0.91625854  0.50376788  1
  H+  H157  1  0.89220408  0.61966824  0.82216941  1
  H+  H158  1  0.72116843  0.10096027  0.51101326  1
  H+  H159  1  1.11226983  0.73079226  0.16395462  1
  H+  H160  1  0.51105617  0.87576372  0.68258471  1
  H+  H161  1  0.27955693  0.62425620  0.34088574  1
  H+  H162  1  0.10685003  0.72553961  0.34104044  1
  H+  H163  1  0.35388783  0.63321658  0.12492340  1
  H+  H164  1  0.10671653  0.22485863  0.68557963  1
  H+  H165  1  0.63678372  0.11858677  0.99403068  1
  H+  H166  1  0.62628281  0.81848999  0.80777967  1
  H+  H167  1  0.98895792  0.36508360  0.85323906  1
  H+  H168  1  0.01266959  0.34598002  0.48480264  1
  H+  H169  1  0.43111816  0.27047307  0.49419036  1
  H+  H170  1  0.11030738  0.88591924  0.34067446  1
  H+  H171  1  0.15062389  1.03794806  0.51469538  1
  H+  H172  1  0.11694237  0.72772103  0.83319045  1
  H+  H173  1  0.85821846  0.97202237  0.33587348  1
  H+  H174  1  0.59647805  0.64178141  0.15373863  1
  H+  H175  1  0.94538783  0.32087871  0.32185664  1
  H+  H176  1  0.97618343  0.61119012  0.82009927  1
  H+  H177  1  0.50240460  0.64246536  0.68570002  1
  H+  H178  1  0.59994444  0.47393993  0.16163944  1
  H+  H179  1  0.16817829  1.08717023  0.27369026  1
  H+  H180  1  0.86508710  0.46480325  0.33894323  1
  H+  H181  1  0.11357856  0.51165006  0.50193875  1
  H+  H182  1  0.14974552  0.11916070  0.17666839  1
  H+  H183  1  0.85717940  0.73349072  0.01848189  1
  H+  H184  1  0.14031877  0.62119151  0.67020169  1
  H+  H185  1  0.23059213  0.62138705  0.67456947  1
  H+  H186  1  0.09243254  0.23001425  1.00265310  1
  H+  H187  1  0.78960489  0.39095684  0.49623759  1
  H+  H188  1  0.86130573  0.39068881  0.66799574  1
  H+  H189  1  0.85896015  0.88139109  0.83541239  1
  H+  H190  1  0.13326828  0.77126640  -0.00334859  1
  H+  H191  1  0.88454308  0.52606979  0.65635562  1
  H+  H192  1  0.78383582  0.89924438  0.66441680  1
  H+  H193  1  0.14468412  0.62635149  0.32239874  1
  H+  H194  1  0.12005043  0.48263255  0.83475154  1
  H+  H195  1  0.11490089  0.98309099  0.19125067  1
  H+  H196  1  0.38830904  0.01722453  0.84133636  1
  H+  H197  1  0.24576944  0.39915945  0.98775686  1
  H+  H198  1  0.35740090  0.88060350  0.33508254  1
  H+  H199  1  0.12077960  0.49056320  0.67492917  1
  H+  H200  1  0.63591438  0.76458376  0.51834083  1
  H+  H201  1  0.44386866  0.64553934  0.59245292  1
  H+  H202  1  0.11239467  0.48372502  0.01280623  1
  H+  H203  1  0.56661730  0.40416229  0.47455971  1
  H+  H204  1  0.83343732  0.20232495  0.33952926  1
  H+  H205  1  0.34614792  0.20156578  0.69629528  1
  H+  H206  1  0.88106921  0.00125431  0.66371092  1
  H+  H207  1  0.59116622  0.72825454  0.15875465  1
  H+  H208  1  0.40519195  0.82368685  0.91298882  1
  H+  H209  1  0.71536153  0.11692910  0.16539727  1
  H+  H210  1  1.01516390  0.62673810  0.49673310  1
  H+  H211  1  0.46369920  0.85350970  0.00254087  1
  H+  H212  1  0.41544657  0.55224317  0.67581082  1
  H+  H213  1  0.89204126  0.58882876  0.50785466  1
  H+  H214  1  0.52443485  0.13494065  0.00411954  1
  H+  H215  1  0.05187958  0.09203630  0.08044489  1
  H+  H216  1  0.11711169  0.85143066  0.66122796  1
  H+  H217  1  0.77588570  0.12953900  0.00601709  1
  H+  H218  1  0.60051858  0.97510573  0.00247601  1
  H+  H219  1  0.92514230  0.09474583  0.60299392  1
  H+  H220  1  0.84219630  0.88344611  0.18942158  1
  H+  H221  1  0.86822148  0.21321128  0.00944686  1
  H+  H222  1  0.13388383  0.11109956  0.84998244  1
  H+  H223  1  0.60303262  0.60613565  0.83535843  1
  H+  H224  1  0.49272273  0.65416331  0.53019115  1
  H+  H225  1  0.64562678  0.85768736  0.51021243  1
  H+  H226  1  -0.02079550  0.87023206  0.85800068  1
  H+  H227  1  0.22198260  0.86259499  0.84779899  1
  H+  H228  1  0.81687482  0.76439718  0.50316673  1
  H+  H229  1  0.66723244  0.33236330  0.56638798  1
  H+  H230  1  0.63565177  0.36487108  0.17477906  1
  H+  H231  1  0.72890921  0.06876643  0.65516055  1
  H+  H232  1  0.96383397  0.84876508  0.32799651  1
  H+  H233  1  0.00396921  0.88587700  0.66975920  1
  H+  H234  1  0.62531744  0.11776394  0.16798230  1
  H+  H235  1  0.11497057  0.64254194  0.16077297  1
  H+  H236  1  0.84193094  0.68911159  0.59838298  1
  H+  H237  1  0.38333580  0.59771102  0.31691527  1
  H+  H238  1  0.32446379  0.92072189  0.06584907  1
  H+  H239  1  0.57820941  0.64671325  0.44986052  1
  H+  H240  1  0.10907721  0.88240601  0.49340331  1
  H+  H241  1  0.95944314  0.86214551  0.17049782  1
  H+  H242  1  0.46251391  0.86762180  0.15779131  1
  H+  H243  1  0.91398850  0.90185101  0.51284413  1
  H+  H244  1  0.46598180  0.85216967  0.85296690  1
  H+  H245  1  0.85499121  0.22173928  0.15560604  1
  H+  H246  1  0.89309837  0.35972826  0.50601554  1
  H+  H247  1  0.08421538  0.67075620  0.06875565  1
  H+  H248  1  0.14830001  0.82751613  0.56440411  1
  H+  H249  1  0.32468757  0.45790560  0.61976436  1
  H+  H250  1  0.35364087  0.88004895  1.01185828  1
  H+  H251  1  0.39510883  0.79100623  0.48395088  1
  H+  H252  1  0.38363735  0.51099553  0.30576681  1
  H+  H253  1  0.22619679  0.61287815  1.01430545  1
  H+  H254  1  0.38089305  0.67115055  0.50384009  1
  H+  H255  1  0.65231727  0.52208874  0.50950591  1
  H+  H256  1  0.89070282  0.78124878  0.85785770  1
  H+  H257  1  0.60085977  0.98268699  0.15493444  1
  H+  H258  1  0.08275103  0.05901410  0.02419830  1
  H+  H259  1  0.15141630  0.94359220  0.70761300  1
  H+  H260  1  0.62662521  0.96910642  0.48484968  1
  H+  H261  1  0.50609436  0.14862856  0.15030533  1
  H+  H262  1  0.20573810  0.10363236  0.67311840  1
  H+  H263  1  0.84534733  0.47302176  0.81666930  1
  H+  H264  1  0.76423209  0.85027160  0.49642815  1
  H+  H265  1  0.64766391  0.51927300  0.66777956  1
  H+  H266  1  0.61940787  0.07876034  0.31892101  1
  H+  H267  1  0.34715384  -0.00518538  0.15239055  1
  H+  H268  1  0.26281321  0.12343528  0.83953151  1
  H+  H269  1  0.13050310  0.86338587  0.18744624  1
  H+  H270  1  0.01994925  0.63329132  0.67767746  1
  H+  H271  1  0.38387134  0.10395473  0.84424156  1
  H+  H272  1  0.34479482  0.15748738  1.06542950  1
  H+  H273  1  1.01912346  0.38684932  0.16016811  1
  H+  H274  1  0.37544663  0.76209164  1.01163700  1
  H+  H275  1  0.75166193  0.10908329  0.33931102  1
  H+  H276  1  0.61206288  0.38468646  0.00652249  1
  H+  H277  1  0.86024648  0.47170486  0.15803900  1
  H+  H278  1  0.26014717  0.87706860  0.67742240  1
  H+  H279  1  1.02231373  0.13035248  0.17019700  1
  H+  H280  1  0.13485927  0.23507936  0.01242066  1
  H+  H281  1  0.38684648  0.51675602  0.45642279  1
  H+  H282  1  0.38176159  0.85646345  0.67317758  1
  H+  H283  1  0.22332573  0.61395474  0.15452694  1
  H+  H284  1  0.63237785  0.36245461  0.66138916  1
  H+  H285  1  0.37426144  0.41131191  0.64074635  1
  H+  H286  1  0.35331451  0.21265339  0.83513303  1
  H+  H287  1  0.37488099  0.51524378  0.85217581  1
  H+  H288  1  0.88129370  0.11491600  0.17684696  1
  H+  H289  1  0.96080731  0.89531366  0.57579383  1
  H+  H290  1  0.37091949  0.01660599  0.50550439  1
  H+  H291  1  0.90253008  0.32253772  0.22576273  1
  H+  H292  1  0.68021666  0.58597247  0.91999302  1
  H+  H293  1  0.47508922  0.61644798  0.99954391  1
  H+  H294  1  0.17687183  0.36509420  0.92370174  1
  H+  H295  1  0.40690229  0.83425962  0.25381989  1
  H+  H296  1  0.08055910  0.66576760  0.73811399  1
  H+  H297  1  0.35059092  0.18319623  0.42187993  1
  H+  H298  1  0.84132243  0.41134206  0.40161861  1
  H+  H299  1  0.31446426  0.13974113  0.75190084  1
  H+  H300  1  0.40680029  0.31267530  0.25478902  1
  H+  H301  1  0.08053462  0.91612108  0.43066696  1
  H+  H302  1  0.45085652  0.35177175  0.57870211  1
  H+  H303  1  0.81097498  0.40854066  0.76261746  1
  H+  H304  1  0.26091039  0.37879845  0.82865883  1
  H+  H305  1  0.39495172  0.57489491  0.21140124  1
  H+  H306  1  0.58315434  0.14715347  0.38600187  1
  H+  H307  1  0.15509435  0.08410933  0.57699909  1
  H+  H308  1  0.19518479  0.63939097  0.58260200  1
  H+  H309  1  0.07819346  0.66399095  0.39930352  1
  H+  H310  1  0.62445320  0.84435364  0.23423947  1
  H+  H311  1  0.57283295  0.91957637  0.06300709  1
  H+  H312  1  0.15968888  0.32893924  0.22707864  1
  H+  H313  1  0.62708837  0.95218799  0.30622155  1
  H+  H314  1  0.11370869  0.39732068  0.67610696  1
  H+  H315  1  0.51901100  0.30054590  0.53119413  1
  H+  H316  1  0.92552995  0.57693777  0.59293373  1
  H+  H317  1  0.83105982  0.41073651  0.06446861  1
  H+  H318  1  0.66853110  0.57291118  0.60031616  1
  H+  H319  1  0.10865808  0.21843293  0.15937651  1
  H+  H320  1  0.91426119  0.08750499  0.27351370  1
  H+  H321  1  0.81008787  0.16276679  0.69291321  1
  H+  H322  1  0.32628649  0.41448765  0.77271514  1
  H+  H323  1  0.57329283  0.42555044  0.73346266  1
  H+  H324  1  0.58114834  0.16982237  0.06430631  1
  H+  H325  1  0.63547264  0.06180884  0.55613005  1
  H+  H326  1  0.90130588  0.84140734  0.94641193  1
  H+  H327  1  0.79591195  0.64829575  0.41681042  1
  H+  H328  1  0.85215277  0.96384585  0.83082463  1
  H+  H329  1  0.41098924  0.57715765  0.91044348  1
  H+  H330  1  0.26542050  0.37610016  0.15318699  1
  H+  H331  1  0.85036189  0.87783457  0.33174782  1
  H+  H332  1  0.32292920  0.39163323  0.38124091  1
  H+  H333  1  0.48328098  0.87855249  0.48490527  1
  H+  H334  1  0.82732048  0.15624405  0.09935070  1
  H+  H335  1  0.32735328  0.91024830  0.39566535  1
  H+  H336  1  0.60159976  0.69911525  0.28790469  1
  H+  H337  1  0.16658971  0.07106638  0.94341709  1
  H+  H338  1  0.08916559  0.42914034  0.77161328  1
  H+  H339  1  0.91368021  0.05868872  0.91311638  1
  H+  H340  1  0.92209117  0.33118976  0.56639316  1
  H+  H341  1  0.88582333  0.11243627  0.51587109  1
  H+  H342  1  0.66405138  0.33463357  0.93258766  1
  H+  H343  1  0.54837269  0.48785229  0.80437360  1
  H+  H344  1  0.37426322  0.78096245  0.14868474  1
  H+  H345  1  0.65214539  0.49906899  0.39300520  1
  H+  H346  1  0.70317775  0.88638203  0.34620185  1
  H+  H347  1  0.62749307  0.72257693  0.74083587  1
  H+  H348  1  0.61510054  0.90366928  0.43060457  1
  H+  H349  1  0.83704114  0.67309772  0.07521242  1
  H+  H350  1  0.32359970  0.40928094  0.06136073  1
  H+  H351  1  0.38709236  0.26842931  0.99643504  1
  H+  H352  1  0.71886588  0.36760550  0.83340935  1
  H+  H353  1  0.42019112  0.07625573  0.93398445  1
  H+  H354  1  0.07661440  0.16562899  0.78363935  1
  H+  H355  1  0.82533638  0.69078247  0.78206177  1
  H+  H356  1  0.82230227  0.15488631  0.44013680  1
  H+  H357  1  0.08183546  0.41727620  0.10241824  1
  H+  H358  1  0.64706734  0.78890331  0.98829629  1
  H+  H359  1  0.84721818  0.72112342  0.17498414  1
  H+  H360  1  0.40860524  0.32354511  0.90150019  1
  H+  H361  1  0.12832114  0.27172999  0.84826684  1
  H+  H362  1  0.32666817  0.90753870  0.77467580  1
  H+  H363  1  0.90676964  0.83008430  0.23041212  1
  H+  H364  1  0.66527507  0.32725472  0.23101455  1
  H+  H365  1  0.86129208  0.17631623  0.78419311  1
  H+  H366  1  0.03284776  0.90592628  0.04313423  1
  H+  H367  1  0.87667995  0.02540581  0.19073009  1
  H+  H368  1  0.07574192  0.91581593  0.77916430  1
  H+  H369  1  0.57765731  0.67491596  0.06071967  1
  H+  H370  1  0.65756308  0.06855969  0.25669542  1
  H+  H371  1  0.80688777  0.61364204  0.42275322  1
  H+  H372  1  0.58218596  0.41639298  0.10179840  1
  H+  H373  1  0.72102093  0.83429063  0.80360437  1
  H+  H374  1  0.15658152  0.32465815  0.60780581  1
  H+  H375  1  0.08295325  0.39098928  0.43176438  1
  H+  H376  1  0.92915895  0.32902220  0.94524510  1
  H+  H377  1  0.87293784  0.63705005  0.64244921  1
  H+  H378  1  0.81737514  0.86870580  0.43404935  1
  H+  H379  1  0.66542206  0.08803274  0.93498970  1
  H+  H380  1  0.08023286  0.16751096  0.40238381  1
  H+  H381  1  0.92187253  0.56931941  0.26311047  1
  H+  H382  1  0.01978867  0.13758116  0.34383007  1
  H+  H383  1  0.10743956  0.97528298  0.34162615  1
  O2-  O384  1  0.08146602  0.15518718  0.15353499  1
  O2-  O385  1  0.07499402  0.15754679  0.48002595  1
  O2-  O386  1  0.08171954  0.16887241  0.82878533  1
  O2-  O387  1  0.08101707  0.41786904  0.14787808  1
  O2-  O388  1  0.06331323  0.34825711  0.46449985  1
  O2-  O389  1  0.09208050  0.42343560  0.81653843  1
  O2-  O390  1  0.08141676  0.67044921  0.14795661  1
  O2-  O391  1  0.07533949  0.67010506  0.47793699  1
  O2-  O392  1  0.09062486  0.66883255  0.81512002  1
  O2-  O393  1  0.07642109  0.92014677  0.19973263  1
  O2-  O394  1  0.08515843  0.92015324  0.47667695  1
  O2-  O395  1  0.07753774  0.91668373  0.82521936  1
  O2-  O396  1  0.34475359  0.14327704  0.14322279  1
  O2-  O397  1  0.35623108  0.19438253  0.46782354  1
  O2-  O398  1  0.32364956  0.15087797  0.82257868  1
  O2-  O399  1  0.32490008  0.40390129  0.13596989  1
  O2-  O400  1  0.30202444  0.32961725  0.46001608  1
  O2-  O401  1  0.32364381  0.40807187  0.81681656  1
  O2-  O402  1  0.32614310  0.66648508  0.11067528  1
  O2-  O403  1  0.34482447  0.68313027  0.47493649  1
  O2-  O404  1  0.32917812  0.66156191  0.82943895  1
  O2-  O405  1  0.31886710  0.93105644  0.14277139  1
  O2-  O406  1  0.32667152  0.92135296  0.47559726  1
  O2-  O407  1  0.32978275  0.91268565  0.81993754  1
  O2-  O408  1  0.56846586  0.17035904  0.14133813  1
  O2-  O409  1  0.63860231  0.19046682  0.46169026  1
  O2-  O410  1  0.58165886  0.16871829  0.81017829  1
  O2-  O411  1  0.57840236  0.41419475  0.14728772  1
  O2-  O412  1  0.62846342  0.44415894  0.46591711  1
  O2-  O413  1  0.55727808  0.43619109  0.80415593  1
  O2-  O414  1  0.56536568  0.67119760  0.13862910  1
  O2-  O415  1  0.58221320  0.65641752  0.49372600  1
  O2-  O416  1  0.55211962  0.58063963  0.80854754  1
  O2-  O417  1  0.56905921  0.92232375  0.13922155  1
  O2-  O418  1  0.60212545  0.90714286  0.47378890  1
  O2-  O419  1  0.56704536  0.89332454  0.81910678  1
  O2-  O420  1  0.82305342  0.15935194  0.14493964  1
  O2-  O421  1  0.82516522  0.15733001  0.48533581  1
  O2-  O422  1  0.84908490  0.16803432  0.82858734  1
  O2-  O423  1  0.82888931  0.41108013  0.14344803  1
  O2-  O424  1  0.84811751  0.41592577  0.47930250  1
  O2-  O425  1  0.80642051  0.41067095  0.80737583  1
  O2-  O426  1  0.81571163  0.65711620  0.17974851  1
  O2-  O427  1  0.82274401  0.71615732  0.52125318  1
  O2-  O428  1  0.83731574  0.68295357  0.82395385  1
  O2-  O429  1  0.81080611  0.91313419  0.20403115  1
  O2-  O430  1  0.81755341  0.85405651  0.47717222  1
  O2-  O431  1  0.82806181  0.90587255  0.81320567  1
  O2-  O432  1  0.17909850  0.08984767  0.19545125  1
  O2-  O433  1  0.16402374  0.09318042  0.53231724  1
  O2-  O434  1  0.16501331  0.08042300  0.86193572  1
  O2-  O435  1  0.16081223  0.32814990  0.18174463  1
  O2-  O436  1  0.16383799  0.31888257  0.53219854  1
  O2-  O437  1  0.16283128  0.33561103  0.85699419  1
  O2-  O438  1  0.17027415  0.58870833  0.17956683  1
  O2-  O439  1  0.20910354  0.67197501  0.54292506  1
  O2-  O440  1  0.16511427  0.58100302  0.86839995  1
  O2-  O441  1  0.16289276  0.83223593  0.19341544  1
  O2-  O442  1  0.14993062  0.83081580  0.51886049  1
  O2-  O443  1  0.16066427  0.83154694  0.86062806  1
  O2-  O444  1  0.39373645  0.10153174  0.16268247  1
  O2-  O445  1  0.40058324  0.07674939  0.52382199  1
  O2-  O446  1  0.42018659  0.07851308  0.85567893  1
  O2-  O447  1  0.41021275  0.31200633  0.17389435  1
  O2-  O448  1  0.48149699  0.32224640  0.51759754  1
  O2-  O449  1  0.40482518  0.32013728  0.85579372  1
  O2-  O450  1  0.39594420  0.57425712  0.16591570  1
  O2-  O451  1  0.45036643  0.66567800  0.55000951  1
  O2-  O452  1  0.41102831  0.57587680  0.86484262  1
  O2-  O453  1  0.40075977  0.83627198  0.17060670  1
  O2-  O454  1  0.42180149  0.85342677  0.49414704  1
  O2-  O455  1  0.40508141  0.82489743  0.86727017  1
  O2-  O456  1  0.65497986  0.08606214  0.18107960  1
  O2-  O457  1  0.65688537  0.06942976  0.51256401  1
  O2-  O458  1  0.66805594  0.08449416  0.82136770  1
  O2-  O459  1  0.66583378  0.33271222  0.18510851  1
  O2-  O460  1  0.67051350  0.33632925  0.52087421  1
  O2-  O461  1  0.65683365  0.33305332  0.85235277  1
  O2-  O462  1  0.63932210  0.58351745  0.18552936  1
  O2-  O463  1  0.66571879  0.57503799  0.53517226  1
  O2-  O464  1  0.68605888  0.58764751  0.87392886  1
  O2-  O465  1  0.63736785  0.83255503  0.19257886  1
  O2-  O466  1  0.67355931  0.82626654  0.52909807  1
  O2-  O467  1  0.65912237  0.79032895  0.79688231  1
  O2-  O468  1  0.91336315  0.08857376  0.19599738  1
  O2-  O469  1  0.91848735  0.08731681  0.53490589  1
  O2-  O470  1  0.92190894  0.07361236  0.86846090  1
  O2-  O471  1  0.91041448  0.32829683  0.18104071  1
  O2-  O472  1  0.91755189  0.32360726  0.52129629  1
  O2-  O473  1  0.93301840  0.33273028  0.87427133  1
  O2-  O474  1  0.91824200  0.57669197  0.18526057  1
  O2-  O475  1  0.92801866  0.56700424  0.52369868  1
  O2-  O476  1  0.91331039  0.57972023  0.81357275  1
  O2-  O477  1  0.89943778  0.83037750  0.18537974  1
  O2-  O478  1  0.97047239  0.92091672  0.53359153  1
  O2-  O479  1  0.91882848  0.84107593  0.87388254  1
  O2-  O480  1  0.16060405  0.07992550  0.31879107  1
  O2-  O481  1  0.14625145  0.07830266  0.65757354  1
  O2-  O482  1  0.16690778  0.06268983  0.98786284  1
  O2-  O483  1  0.15593076  0.33107234  0.30709495  1
  O2-  O484  1  0.15543446  0.32842656  0.65352954  1
  O2-  O485  1  0.19218102  0.39435742  0.96559011  1
  O2-  O486  1  0.17789068  0.59913030  0.30716596  1
  O2-  O487  1  0.17393646  0.59530930  0.65261822  1
  O2-  O488  1  0.16741942  0.58327328  0.99414167  1
  O2-  O489  1  0.15907187  0.83209921  0.31644790  1
  O2-  O490  1  0.14890380  0.82428088  0.64350662  1
  O2-  O491  1  0.15805048  0.83157121  0.98151992  1
  O2-  O492  1  0.41791216  0.07679237  0.31404654  1
  O2-  O493  1  0.40130252  0.07115770  0.64981920  1
  O2-  O494  1  0.42163339  0.07922837  0.97937928  1
  O2-  O495  1  0.40533306  0.31460709  0.29988557  1
  O2-  O496  1  0.43359114  0.36202799  0.62062526  1
  O2-  O497  1  0.41544546  0.32837811  0.97904027  1
  O2-  O498  1  0.41022801  0.57073799  0.29006509  1
  O2-  O499  1  0.44125752  0.61474026  0.67167002  1
  O2-  O500  1  0.41154621  0.58257726  0.98905214  1
  O2-  O501  1  0.41170371  0.83705437  0.29876606  1
  O2-  O502  1  0.41433147  0.82726361  0.66267848  1
  O2-  O503  1  0.40131267  0.82002370  0.99097984  1
  O2-  O504  1  0.65448649  0.05423647  0.30113988  1
  O2-  O505  1  0.58344808  0.04340867  0.61933849  1
  O2-  O506  1  0.66582952  0.08605308  0.97924992  1
  O2-  O507  1  0.66552318  0.31279703  0.30506127  1
  O2-  O508  1  0.65831941  0.33007797  0.64356149  1
  O2-  O509  1  0.66624604  0.33576150  0.97799313  1
  O2-  O510  1  0.63560841  0.59602687  0.38539481  1
  O2-  O511  1  0.68040620  0.57976976  0.64803608  1
  O2-  O512  1  0.66707929  0.58444646  0.99178555  1
  O2-  O513  1  0.64354037  0.87044141  0.35796156  1
  O2-  O514  1  0.69036070  0.85359256  0.65004606  1
  O2-  O515  1  0.67805020  0.85047325  0.97854808  1
  O2-  O516  1  0.91231841  0.07983444  0.31889645  1
  O2-  O517  1  0.92297768  0.09067821  0.65044030  1
  O2-  O518  1  0.89392663  0.02817434  0.98629307  1
  O2-  O519  1  0.88855323  0.30594272  0.30709552  1
  O2-  O520  1  0.92531840  0.34610243  0.64567492  1
  O2-  O521  1  0.92613913  0.32702845  0.99179781  1
  O2-  O522  1  0.91627738  0.56913341  0.30849003  1
  O2-  O523  1  0.91941197  0.58545183  0.63934335  1
  O2-  O524  1  0.92488684  0.58784732  0.98830664  1
  O2-  O525  1  0.90534089  0.82276235  0.31006469  1
  O2-  O526  1  0.94582442  0.86279634  0.64786343  1
  O2-  O527  1  0.88676855  0.83841933  0.99147016  1
  O2-  O528  1  0.03067135  0.04992103  0.04713511  1
  O2-  O529  1  0.08129308  0.17010847  0.35670092  1
  O2-  O530  1  0.07530272  0.16530882  0.70212611  1
  O2-  O531  1  0.08818089  0.42056860  0.02354362  1
  O2-  O532  1  0.09921273  0.44225362  0.35352632  1
  O2-  O533  1  0.08668472  0.43039664  0.69120793  1
  O2-  O534  1  0.08616701  0.66744281  0.02355955  1
  O2-  O535  1  0.07929474  0.66385294  0.35364631  1
  O2-  O536  1  0.08064642  0.66590377  0.69234775  1
  O2-  O537  1  0.03585922  0.85508560  0.05460770  1
  O2-  O538  1  0.07581035  0.91320473  0.35481795  1
  O2-  O539  1  0.09069922  0.92524955  0.70298181  1
  O2-  O540  1  0.34339432  0.16557876  0.02059376  1
  O2-  O541  1  0.33540638  0.16578413  0.35203803  1
  O2-  O542  1  0.31287396  0.14056945  0.70513480  1
  O2-  O543  1  0.32848055  0.41615861  0.01548839  1
  O2-  O544  1  0.32516483  0.40423532  0.33753797  1
  O2-  O545  1  0.33896843  0.43603831  0.65600384  1
  O2-  O546  1  0.32669073  0.66055301  0.04245375  1
  O2-  O547  1  0.32901649  0.62261783  0.35869301  1
  O2-  O548  1  0.32768339  0.66427410  0.70780757  1
  O2-  O549  1  0.32740744  0.91666566  0.02053182  1
  O2-  O550  1  0.32346903  0.90717060  0.35048740  1
  O2-  O551  1  0.31886087  0.90655816  0.69485538  1
  O2-  O552  1  0.58553771  0.16864601  0.01877221  1
  O2-  O553  1  0.57763234  0.13876974  0.34161821  1
  O2-  O554  1  0.56896197  0.16841010  0.68588052  1
  O2-  O555  1  0.58213782  0.41479871  0.02332500  1
  O2-  O556  1  0.66117577  0.53703226  0.35758288  1
  O2-  O557  1  0.58588472  0.42689121  0.68796261  1
  O2-  O558  1  0.57677405  0.66924727  0.01555394  1
  O2-  O559  1  0.57608568  0.63693593  0.28781159  1
  O2-  O560  1  0.61048256  0.69526685  0.69867562  1
  O2-  O561  1  0.56965789  0.91512337  0.01755896  1
  O2-  O562  1  0.60735452  0.88820231  0.30354128  1
  O2-  O563  1  0.57348770  0.91422506  0.69659636  1
  O2-  O564  1  0.83445168  0.15209581  0.02297438  1
  O2-  O565  1  0.80981537  0.14449844  0.35823857  1
  O2-  O566  1  0.87055275  0.19052093  0.70450618  1
  O2-  O567  1  0.83664906  0.41155575  0.01926345  1
  O2-  O568  1  0.83719483  0.40541270  0.35607731  1
  O2-  O569  1  0.82884320  0.41977876  0.68059490  1
  O2-  O570  1  0.83228665  0.67198675  0.03103885  1
  O2-  O571  1  0.82251364  0.64725028  0.30128144  1
  O2-  O572  1  0.84036660  0.67172260  0.64133988  1
  O2-  O573  1  0.80660417  0.84153324  -0.00930733  1
  O2-  O574  1  0.81791162  0.90838679  0.34006168  1
  O2-  O575  1  0.84946106  0.93473424  0.67531309  1
