# generated using pymatgen
data_H2O
_symmetry_space_group_name_H-M   'P 1'
_cell_length_a   17.99327878
_cell_length_b   17.98940823
_cell_length_c   21.99738233
_cell_angle_alpha   90.02440078
_cell_angle_beta   89.99816544
_cell_angle_gamma   120.01729030
_symmetry_Int_Tables_number   1
_chemical_formula_structural   H2O
_chemical_formula_sum   'H384 O192'
_cell_volume   6165.28388932
_cell_formula_units_Z   192
loop_
 _symmetry_equiv_pos_site_id
 _symmetry_equiv_pos_as_xyz
  1  'x, y, z'
loop_
 _atom_type_symbol
 _atom_type_oxidation_number
  H+  1.0
  O2-  -2.0
loop_
 _atom_site_type_symbol
 _atom_site_label
 _atom_site_symmetry_multiplicity
 _atom_site_fract_x
 _atom_site_fract_y
 _atom_site_fract_z
 _atom_site_occupancy
  H+  H0  1  -0.02913222  0.86433664  -0.00975945  1
  H+  H1  1  0.31138332  0.61255699  0.16337899  1
  H+  H2  1  0.47535751  0.61594111  0.65664543  1
  H+  H3  1  0.70218093  0.35944385  0.60425920  1
  H+  H4  1  0.87489282  0.35712724  0.32045780  1
  H+  H5  1  0.17390920  0.78714202  0.32586144  1
  H+  H6  1  0.34895270  0.88687638  0.01084082  1
  H+  H7  1  0.35629425  0.23539158  0.00866175  1
  H+  H8  1  0.34971974  0.39180394  0.15490875  1
  H+  H9  1  0.10520698  -0.01716241  1.01663569  1
  H+  H10  1  0.60396564  0.38794014  0.33501074  1
  H+  H11  1  0.64582848  0.86160466  0.65141076  1
  H+  H12  1  0.37899281  0.48228696  0.84294936  1
  H+  H13  1  0.11445542  0.86688670  0.17696219  1
  H+  H14  1  0.31326090  0.92663812  0.69283548  1
  H+  H15  1  0.77921565  0.88514206  0.66448793  1
  H+  H16  1  0.13984701  0.68585783  0.13039180  1
  H+  H17  1  0.10149540  0.76984566  0.85242036  1
  H+  H18  1  0.76742974  0.38153615  0.15385507  1
  H+  H19  1  0.61714207  0.73071221  0.99631935  1
  H+  H20  1  0.39616475  0.12886260  0.48405375  1
  H+  H21  1  0.34934069  0.12864227  0.38492197  1
  H+  H22  1  0.42873238  0.67111339  0.64702300  1
  H+  H23  1  0.47111531  0.84182487  0.64612949  1
  H+  H24  1  0.65782915  0.75451117  0.15268083  1
  H+  H25  1  0.47243804  0.44139604  0.19497388  1
  H+  H26  1  0.63191611  0.27769580  0.00288390  1
  H+  H27  1  0.13160553  0.50119955  0.65697264  1
  H+  H28  1  0.02614129  0.61726289  0.67475003  1
  H+  H29  1  0.52148408  0.89283950  0.00557726  1
  H+  H30  1  0.38576880  0.38119501  0.32072476  1
  H+  H31  1  0.04760346  0.66394356  0.33867254  1
  H+  H32  1  0.96849140  0.11716427  0.17148457  1
  H+  H33  1  0.87857833  0.57722646  0.67429806  1
  H+  H34  1  0.74599381  0.88113989  0.17468528  1
  H+  H35  1  0.13204396  0.38336429  0.65805123  1
  H+  H36  1  0.15387228  0.86208286  0.66047870  1
  H+  H37  1  0.09301991  0.45409962  0.34870888  1
  H+  H38  1  0.10201435  0.12619872  0.83548819  1
  H+  H39  1  0.08443208  0.12870838  0.49760076  1
  H+  H40  1  0.63750815  0.36452565  0.15302806  1
  H+  H41  1  0.39841673  0.60962436  0.84990699  1
  H+  H42  1  0.06168354  0.15276569  0.07151431  1
  H+  H43  1  0.09748531  0.47320427  0.16812417  1
  H+  H44  1  0.52275636  0.63407734  0.84529651  1
  H+  H45  1  0.11548097  0.34528469  0.32777665  1
  H+  H46  1  0.85565640  0.48010322  0.83619982  1
  H+  H47  1  0.10337673  0.72871228  0.17314748  1
  H+  H48  1  0.60622077  0.87268416  0.49238100  1
  H+  H49  1  0.20118269  0.16322878  0.61934001  1
  H+  H50  1  0.60798886  0.26404168  0.30950314  1
  H+  H51  1  0.09936855  0.13121439  0.16731645  1
  H+  H52  1  0.29931160  0.22408060  0.67811664  1
  H+  H53  1  0.10576803  -0.01640964  0.16582243  1
  H+  H54  1  0.62148182  0.63881245  0.84106952  1
  H+  H55  1  0.86817376  -0.02530998  0.66804719  1
  H+  H56  1  0.13074476  0.88137250  0.49424532  1
  H+  H57  1  0.15405576  0.54712475  1.02922772  1
  H+  H58  1  0.67909670  0.39420918  0.66497844  1
  H+  H59  1  0.96705843  0.35727086  0.16729983  1
  H+  H60  1  0.65955216  0.50562927  0.67311695  1
  H+  H61  1  0.02953318  0.87520844  0.66297743  1
  H+  H62  1  0.76827644  0.88716072  0.34673240  1
  H+  H63  1  0.88653262  0.28121828  0.84555115  1
  H+  H64  1  0.52924618  0.13370683  0.81535620  1
  H+  H65  1  0.63089023  0.89344321  0.81689473  1
  H+  H66  1  0.63849262  0.61276984  0.31658029  1
  H+  H67  1  0.88146703  0.11189943  0.84173209  1
  H+  H68  1  0.40016057  0.62867261  0.99669910  1
  H+  H69  1  0.38570612  0.78817761  1.00005149  1
  H+  H70  1  0.62647758  0.24300356  0.48937784  1
  H+  H71  1  0.88534190  0.61968499  -0.01219084  1
  H+  H72  1  0.89337052  1.01615767  0.32258027  1
  H+  H73  1  0.05098600  0.66488064  0.07149767  1
  H+  H74  1  -0.03507150  0.10258347  0.84503350  1
  H+  H75  1  0.21012608  0.35768295  0.32316697  1
  H+  H76  1  0.47300366  0.36269487  0.66869159  1
  H+  H77  1  0.41666436  0.84374676  0.83267514  1
  H+  H78  1  0.12438729  0.64298497  0.49102689  1
  H+  H79  1  0.71908711  0.85859931  0.49968858  1
  H+  H80  1  0.10877931  0.44832987  -0.05026001  1
  H+  H81  1  0.38105891  0.76121446  0.15664246  1
  H+  H82  1  0.12033556  0.39258279  0.85545205  1
  H+  H83  1  0.85276242  -0.02745952  0.81973840  1
  H+  H84  1  0.03469309  0.39899281  0.86118432  1
  H+  H85  1  0.14307212  0.62860805  1.03917685  1
  H+  H86  1  0.29079365  0.89168202  0.50355479  1
  H+  H87  1  0.63784672  0.52395460  0.32181632  1
  H+  H88  1  0.85740388  0.23419332  0.50618435  1
  H+  H89  1  1.02696624  0.38188935  0.50261152  1
  H+  H90  1  0.52980438  0.52342708  0.67528084  1
  H+  H91  1  0.61698351  0.73163164  0.83451058  1
  H+  H92  1  0.62152352  0.48200317  0.49927515  1
  H+  H93  1  0.86622498  0.64271189  0.33660946  1
  H+  H94  1  0.47136462  0.13453034  0.16541696  1
  H+  H95  1  1.01782255  0.63409458  1.00538697  1
  H+  H96  1  0.38641715  0.79579723  0.35417297  1
  H+  H97  1  0.30643864  0.12514900  0.47641648  1
  H+  H98  1  1.00299750  0.11946784  1.01047931  1
  H+  H99  1  0.11740686  0.38442905  0.49381377  1
  H+  H100  1  0.48320028  0.35481748  0.50115908  1
  H+  H101  1  0.10452441  0.09058230  0.61090614  1
  H+  H102  1  1.01473187  0.89361984  0.16594563  1
  H+  H103  1  0.64462681  0.07911315  0.26940297  1
  H+  H104  1  0.48686429  0.62413311  0.99884422  1
  H+  H105  1  0.12096153  0.11154835  1.00351614  1
  H+  H106  1  0.71967104  0.10413947  0.51907863  1
  H+  H107  1  0.13573388  0.00666616  0.85416206  1
  H+  H108  1  0.36703776  0.75602111  0.47935114  1
  H+  H109  1  0.65302198  0.03507320  0.83273369  1
  H+  H110  1  0.21792477  0.87617932  -0.00266439  1
  H+  H111  1  0.58968059  0.91980110  0.06074217  1
  H+  H112  1  0.44426449  0.61482648  0.55927823  1
  H+  H113  1  -0.00401831  0.85873002  0.50056741  1
  H+  H114  1  0.03513065  0.42070988  -0.00410658  1
  H+  H115  1  0.87878412  0.85758990  0.98950446  1
  H+  H116  1  0.33649305  0.44488168  0.61905584  1
  H+  H117  1  0.14643929  0.27738821  0.50303102  1
  H+  H118  1  0.67219046  0.82640118  0.59531215  1
  H+  H119  1  0.87156221  0.72279641  0.48939725  1
  H+  H120  1  0.30970689  0.85216449  0.84961942  1
  H+  H121  1  0.84783936  0.19551042  -0.00529739  1
  H+  H122  1  0.92056296  0.58900743  0.26822979  1
  H+  H123  1  0.64220898  0.37141685  0.85170037  1
  H+  H124  1  0.11941758  0.63854317  0.34705193  1
  H+  H125  1  0.39641379  0.88732034  0.34231848  1
  H+  H126  1  0.57187880  0.16199557  0.09484984  1
  H+  H127  1  0.13458883  0.01999236  0.32723606  1
  H+  H128  1  0.64391029  0.53421718  1.00506720  1
  H+  H129  1  0.36738004  0.66424918  0.77111903  1
  H+  H130  1  0.62298027  0.02430945  0.33170533  1
  H+  H131  1  0.34271424  0.50670495  0.17588422  1
  H+  H132  1  0.78210732  0.14892461  0.82980737  1
  H+  H133  1  0.39980322  0.85447218  0.14579628  1
  H+  H134  1  0.29359743  0.91284704  0.31448791  1
  H+  H135  1  0.73247803  0.61178336  0.50826391  1
  H+  H136  1  0.91142638  0.86390624  0.49114838  1
  H+  H137  1  0.40116305  0.02532439  0.77152413  1
  H+  H138  1  0.52770711  0.89267050  0.34616437  1
  H+  H139  1  0.65752824  0.38011922  0.50872137  1
  H+  H140  1  0.12985595  -0.03214574  0.48166967  1
  H+  H141  1  0.36481835  0.34437184  0.99795563  1
  H+  H142  1  0.90359889  0.37535980  0.52296554  1
  H+  H143  1  0.62532770  0.63365888  0.49008700  1
  H+  H144  1  0.13063841  0.35337903  -0.00639240  1
  H+  H145  1  0.39049210  -0.02101088  0.50093910  1
  H+  H146  1  0.27694393  0.11945505  0.83821878  1
  H+  H147  1  0.86753124  0.13209563  0.16228874  1
  H+  H148  1  0.21711688  0.12005286  0.17730456  1
  H+  H149  1  0.22528335  0.36417395  0.83343765  1
  H+  H150  1  0.86571361  0.73118185  0.00089317  1
  H+  H151  1  0.00905376  0.90279170  0.82757698  1
  H+  H152  1  0.90460716  0.38700518  0.67130755  1
  H+  H153  1  0.61046508  0.22623797  0.83357573  1
  H+  H154  1  0.87633403  0.86078625  0.33023715  1
  H+  H155  1  0.22850995  0.61362020  0.48281150  1
  H+  H156  1  0.87022163  0.15097998  0.67771534  1
  H+  H157  1  0.38681627  0.08940259  0.81446889  1
  H+  H158  1  0.60633500  0.22491542  0.15157101  1
  H+  H159  1  0.53025270  0.59611502  0.20128488  1
  H+  H160  1  0.96584837  0.12899470  0.50275336  1
  H+  H161  1  0.85131750  0.96024308  0.00238344  1
  H+  H162  1  0.35820537  0.74537819  0.84501583  1
  H+  H163  1  0.28925187  0.30603296  0.65761270  1
  H+  H164  1  0.54208820  0.39908554  0.82617297  1
  H+  H165  1  0.12433398  0.88300656  0.00427289  1
  H+  H166  1  0.88859302  0.77767626  0.17363124  1
  H+  H167  1  0.69880828  0.34571519  0.31239293  1
  H+  H168  1  0.62984473  0.48535755  0.13462724  1
  H+  H169  1  0.77895832  0.62417189  0.66674015  1
  H+  H170  1  0.63688352  0.01026610  0.51903854  1
  H+  H171  1  0.51432612  0.55725194  0.22147731  1
  H+  H172  1  0.36022726  0.15692972  0.16443488  1
  H+  H173  1  0.42907866  0.32695067  0.77580659  1
  H+  H174  1  0.27589663  0.61630502  0.80410678  1
  H+  H175  1  0.25582766  0.35786472  0.00028531  1
  H+  H176  1  0.89979038  0.61900000  0.50407558  1
  H+  H177  1  0.89640733  0.29323392  0.67458016  1
  H+  H178  1  0.08891709  0.89100222  0.82676505  1
  H+  H179  1  0.85991838  0.50664299  0.17921242  1
  H+  H180  1  0.72052354  0.36912404  1.00309706  1
  H+  H181  1  0.25211492  0.37442503  0.15884020  1
  H+  H182  1  0.28685694  0.65834601  1.02794996  1
  H+  H183  1  0.04134837  0.41870631  0.67599808  1
  H+  H184  1  0.72015345  0.86100725  0.98742105  1
  H+  H185  1  0.63151759  0.89649717  0.15519159  1
  H+  H186  1  0.63250024  0.86499684  0.98471669  1
  H+  H187  1  0.12141420  0.35550373  0.17284023  1
  H+  H188  1  0.14498169  0.51801909  0.82451356  1
  H+  H189  1  0.42397907  0.59891569  0.18146815  1
  H+  H190  1  0.73155117  0.62210276  0.84153795  1
  H+  H191  1  0.39467459  0.36396460  0.82547523  1
  H+  H192  1  0.38757803  0.02182822  0.98556194  1
  H+  H193  1  0.85783754  0.38313178  0.15589988  1
  H+  H194  1  0.77190042  0.63313883  0.33454048  1
  H+  H195  1  0.96193348  0.35386060  0.32476316  1
  H+  H196  1  0.84359003  0.91051870  0.53261909  1
  H+  H197  1  0.90947199  0.08264063  0.23142809  1
  H+  H198  1  0.53607733  0.87896306  0.14573900  1
  H+  H199  1  0.85887220  0.72343051  0.81882585  1
  H+  H200  1  0.25456341  0.39356200  0.65916092  1
  H+  H201  1  0.86316034  0.22832841  0.15689902  1
  H+  H202  1  0.23288999  0.09521931  0.32462394  1
  H+  H203  1  0.60657140  0.97030377  0.66358220  1
  H+  H204  1  0.91969503  0.55058065  0.33250312  1
  H+  H205  1  0.11735631  0.25917708  0.99825887  1
  H+  H206  1  0.67343750  0.07775671  0.61030512  1
  H+  H207  1  0.26479981  0.71710322  0.39332880  1
  H+  H208  1  0.51448365  0.14739495  0.65534036  1
  H+  H209  1  0.14504921  0.19168312  0.69374135  1
  H+  H210  1  0.86672445  0.08818957  0.99420009  1
  H+  H211  1  0.33438824  0.94963613  0.83573321  1
  H+  H212  1  0.25589571  0.13753518  1.01753764  1
  H+  H213  1  0.99338539  0.62798701  0.50694371  1
  H+  H214  1  0.89307128  0.50038116  0.50424385  1
  H+  H215  1  0.84306140  0.67651132  0.09426224  1
  H+  H216  1  0.34143242  0.47838175  0.34178245  1
  H+  H217  1  0.88592625  0.38991382  -0.00089047  1
  H+  H218  1  0.35193566  0.24185982  0.16156942  1
  H+  H219  1  0.64439373  0.11976653  0.83719612  1
  H+  H220  1  0.23778606  0.36293172  0.50278201  1
  H+  H221  1  0.49051470  0.38852435  0.14862817  1
  H+  H222  1  0.63803822  0.86839763  0.32825823  1
  H+  H223  1  0.63791145  0.76268537  0.49729705  1
  H+  H224  1  0.33470668  0.05480222  0.33954079  1
  H+  H225  1  0.19097937  0.85640482  0.85473278  1
  H+  H226  1  0.77624203  0.64230252  1.00610705  1
  H+  H227  1  0.28724808  0.09939245  0.67916725  1
  H+  H228  1  0.16187657  0.78197042  0.51164094  1
  H+  H229  1  0.15905791  0.77729007  0.66352717  1
  H+  H230  1  0.11630622  0.21966682  0.34118141  1
  H+  H231  1  0.10713147  0.64011728  0.82357951  1
  H+  H232  1  0.28859119  0.82844425  0.19309917  1
  H+  H233  1  0.72596795  0.85975258  0.83081030  1
  H+  H234  1  0.09918327  0.22039469  0.16292335  1
  H+  H235  1  0.52365451  0.13690817  0.99703940  1
  H+  H236  1  0.55080490  0.90588696  0.81573505  1
  H+  H237  1  0.64971938  0.11938154  0.66590562  1
  H+  H238  1  0.86489180  0.64128557  0.15541139  1
  H+  H239  1  0.90868934  0.32018772  1.02122379  1
  H+  H240  1  0.42261861  0.14157284  0.65491431  1
  H+  H241  1  0.37680242  0.87119083  0.49586089  1
  H+  H242  1  0.19608014  0.59884039  0.19642150  1
  H+  H243  1  0.10015020  0.24353980  0.68812184  1
  H+  H244  1  0.87218956  0.85784182  0.83287393  1
  H+  H245  1  0.65088131  0.25611024  0.67283089  1
  H+  H246  1  0.21018918  0.59540650  0.34840638  1
  H+  H247  1  0.78231651  0.41145626  0.39147117  1
  H+  H248  1  -0.03475460  0.60720913  0.83187300  1
  H+  H249  1  0.25063139  0.64346565  0.63267368  1
  H+  H250  1  0.52141233  0.63948166  0.33792550  1
  H+  H251  1  0.90136672  0.06699133  0.93316073  1
  H+  H252  1  0.61867286  0.39497616  0.03566355  1
  H+  H253  1  0.75356191  0.11808780  1.00464825  1
  H+  H254  1  0.97955369  0.11995695  0.66138259  1
  H+  H255  1  0.64098637  0.62108758  -0.00427079  1
  H+  H256  1  0.15309025  0.54069222  0.75538416  1
  H+  H257  1  0.74848269  0.38256726  0.50932518  1
  H+  H258  1  0.13608698  0.27751948  0.83597235  1
  H+  H259  1  0.86260218  -0.00381235  0.50118915  1
  H+  H260  1  0.11512485  -0.03562306  0.65999403  1
  H+  H261  1  0.61407510  0.10375274  0.17509249  1
  H+  H262  1  0.18516698  0.11354327  0.45725014  1
  H+  H263  1  0.18220257  0.59713804  0.57988427  1
  H+  H264  1  0.74430098  0.14331938  0.34990807  1
  H+  H265  1  0.37398151  0.36360605  0.48038933  1
  H+  H266  1  0.36342682  0.21128537  0.82791128  1
  H+  H267  1  0.48858924  0.38316764  0.63799031  1
  H+  H268  1  0.89174139  0.85379638  0.65552029  1
  H+  H269  1  0.34291756  0.92645631  0.20409781  1
  H+  H270  1  0.12778374  0.13598526  0.34422579  1
  H+  H271  1  0.83853832  0.22445779  0.34397862  1
  H+  H272  1  0.87311433  0.89276901  0.15868464  1
  H+  H273  1  0.87620947  0.70565170  0.67241649  1
  H+  H274  1  0.85739279  0.38540823  0.84241160  1
  H+  H275  1  0.85861320  0.48986116  1.00336023  1
  H+  H276  1  0.62940220  1.01934651  -0.00979900  1
  H+  H277  1  0.59377675  0.13215618  0.33353791  1
  H+  H278  1  0.50588105  0.13457748  0.34125547  1
  H+  H279  1  0.61311209  0.14016559  1.00235471  1
  H+  H280  1  0.62410128  0.02047074  0.17495165  1
  H+  H281  1  0.39871972  1.01307226  0.67622881  1
  H+  H282  1  0.01420906  0.88995185  0.33835143  1
  H+  H283  1  0.52372659  0.40118391  0.34214941  1
  H+  H284  1  0.20104536  0.86281464  0.17553556  1
  H+  H285  1  0.37462769  0.62263528  0.34409158  1
  H+  H286  1  0.87604488  0.60886589  0.83164899  1
  H+  H287  1  0.39006509  0.53143207  0.51984855  1
  H+  H288  1  0.43146924  0.48452039  0.68650537  1
  H+  H289  1  0.80868812  0.43008414  0.67124670  1
  H+  H290  1  0.34703308  0.43874305  0.77920655  1
  H+  H291  1  0.67704956  0.59347198  0.90568272  1
  H+  H292  1  0.24961031  0.62653700  0.11532548  1
  H+  H293  1  0.67371371  0.57730336  0.22216038  1
  H+  H294  1  0.63427410  0.44745733  0.73531435  1
  H+  H295  1  0.18382668  0.09554355  0.52955898  1
  H+  H296  1  0.59439428  0.42560399  0.43810125  1
  H+  H297  1  0.10869172  0.59785041  0.19988016  1
  H+  H298  1  0.14845869  0.32379288  0.23305845  1
  H+  H299  1  0.65381353  0.33267722  0.21783003  1
  H+  H300  1  0.68297385  0.84951495  0.23348155  1
  H+  H301  1  0.44695145  0.09046048  0.56286375  1
  H+  H302  1  0.66503181  0.08217562  0.93135118  1
  H+  H303  1  0.15307905  0.33707556  0.60169499  1
  H+  H304  1  0.82594090  0.90365235  0.06246261  1
  H+  H305  1  0.81702361  0.17832264  0.44485104  1
  H+  H306  1  0.40266581  0.83945387  0.93919764  1
  H+  H307  1  0.87790166  0.77227722  0.32785089  1
  H+  H308  1  0.10032168  0.68529817  0.43661601  1
  H+  H309  1  0.08014792  0.90979956  0.39281327  1
  H+  H310  1  0.84358955  0.18043889  0.77152924  1
  H+  H311  1  0.40228996  0.80548516  0.54872896  1
  H+  H312  1  0.59100145  0.91991030  0.40227047  1
  H+  H313  1  0.50365404  0.11569493  0.50156225  1
  H+  H314  1  0.14439805  0.84064667  0.93788000  1
  H+  H315  1  0.58716462  0.66337568  0.39280201  1
  H+  H316  1  0.16289374  0.08488504  0.23863708  1
  H+  H317  1  0.32148700  0.17362223  0.07665019  1
  H+  H318  1  0.82929983  0.65748120  0.76126266  1
  H+  H319  1  0.42952980  0.59008893  0.91557363  1
  H+  H320  1  0.08478636  0.42915080  0.10269281  1
  H+  H321  1  0.90505913  0.83018118  0.89230744  1
  H+  H322  1  0.91122486  0.58567655  0.92806121  1
  H+  H323  1  0.42762431  0.05780749  0.92144707  1
  H+  H324  1  0.82944146  0.16047972  0.09686541  1
  H+  H325  1  0.91961649  0.09613123  0.60203951  1
  H+  H326  1  0.44965429  -0.01499843  0.26911510  1
  H+  H327  1  0.14010207  0.52125808  0.49384509  1
  H+  H328  1  0.67519627  0.62970652  0.65764482  1
  H+  H329  1  0.83435660  0.66157210  0.43175607  1
  H+  H330  1  0.58155287  0.90715364  0.71769649  1
  H+  H331  1  0.82892510  0.91468267  0.75826032  1
  H+  H332  1  0.22013407  0.61791065  0.91749695  1
  H+  H333  1  0.42236599  0.34761281  0.26853760  1
  H+  H334  1  0.68046626  0.58816351  0.57171211  1
  H+  H335  1  0.66255098  0.33720675  0.91397621  1
  H+  H336  1  0.88420856  0.43607728  0.45021617  1
  H+  H337  1  0.33169964  0.14800557  0.73995267  1
  H+  H338  1  0.17793056  0.61689120  0.91871996  1
  H+  H339  1  0.06096552  0.38998940  0.40367773  1
  H+  H340  1  0.61035883  0.19329250  0.73031261  1
  H+  H341  1  0.40329673  0.26139118  0.48887681  1
  H+  H342  1  0.91030875  0.83314113  0.23606374  1
  H+  H343  1  0.31750277  0.39847839  0.05759783  1
  H+  H344  1  0.73847773  0.61532102  0.16484251  1
  H+  H345  1  0.51907660  0.87573387  0.48803985  1
  H+  H346  1  0.37008471  0.70616510  0.06847698  1
  H+  H347  1  0.12126690  0.63484825  0.66708119  1
  H+  H348  1  0.80553837  0.53601667  0.21676204  1
  H+  H349  1  0.39834398  0.45860563  0.46364431  1
  H+  H350  1  0.31826965  0.91753255  0.06910045  1
  H+  H351  1  0.07634452  0.16336801  0.77880601  1
  H+  H352  1  0.75942829  0.38285419  0.84811068  1
  H+  H353  1  0.38082563  0.58785818  0.27907002  1
  H+  H354  1  0.82929705  0.91713676  0.40571522  1
  H+  H355  1  0.90778111  0.33700526  0.90748151  1
  H+  H356  1  0.58946609  0.18783289  0.42809899  1
  H+  H357  1  0.76414967  0.31748867  0.39184207  1
  H+  H358  1  0.34171135  0.74790487  0.69453492  1
  H+  H359  1  0.53550296  0.63186831  0.48659713  1
  H+  H360  1  0.40535809  0.08405517  0.21914233  1
  H+  H361  1  0.87239997  0.98215778  0.15380134  1
  H+  H362  1  0.87508191  0.12654242  0.50830144  1
  H+  H363  1  0.83281903  0.43128136  0.06508879  1
  H+  H364  1  0.92957711  0.34109067  0.58108782  1
  H+  H365  1  0.66747349  0.83690561  0.89253732  1
  H+  H366  1  0.07905109  0.66731670  0.76512940  1
  H+  H367  1  0.31950265  0.40463006  0.39102276  1
  H+  H368  1  0.90652164  0.32621310  0.22682055  1
  H+  H369  1  0.16139867  0.07963177  0.94881492  1
  H+  H370  1  0.07328375  0.91896172  0.07460627  1
  H+  H371  1  0.40891364  0.31310212  0.94450678  1
  H+  H372  1  -0.01503412  0.10033728  0.31878718  1
  H+  H373  1  0.17388327  0.83961808  0.26669296  1
  H+  H374  1  0.15159162  0.56474234  0.28749380  1
  H+  H375  1  0.19172471  0.84008223  0.57267170  1
  H+  H376  1  0.77933820  0.14559285  0.67963292  1
  H+  H377  1  0.65381887  0.66252571  0.14898519  1
  H+  H378  1  0.62767771  0.48934847  0.83755111  1
  H+  H379  1  0.61007304  0.68604406  0.06036778  1
  H+  H380  1  0.63698405  0.77834603  0.32472496  1
  H+  H381  1  0.08213813  0.16557533  0.43139495  1
  H+  H382  1  0.21228041  0.02026500  0.89733166  1
  H+  H383  1  0.92129030  0.82435776  0.59647144  1
  O2-  O384  1  0.06764091  0.15883826  0.14933243  1
  O2-  O385  1  0.07595213  0.17196197  0.47723680  1
  O2-  O386  1  0.07178727  0.15642500  0.82417481  1
  O2-  O387  1  0.07327357  0.41667572  0.14605312  1
  O2-  O388  1  0.08238745  0.40963653  0.47917638  1
  O2-  O389  1  0.09684028  0.43031578  0.87025549  1
  O2-  O390  1  0.09185690  0.67114366  0.15790349  1
  O2-  O391  1  0.10109822  0.68217533  0.48181801  1
  O2-  O392  1  0.07337978  0.66647452  0.81063053  1
  O2-  O393  1  0.07495275  0.92355841  0.14876074  1
  O2-  O394  1  0.09554332  0.90468258  0.47613868  1
  O2-  O395  1  0.07174284  0.93426067  0.81772639  1
  O2-  O396  1  0.32308192  0.18195622  0.14845558  1
  O2-  O397  1  0.36704838  0.15695941  0.46292679  1
  O2-  O398  1  0.33309927  0.14989427  0.81604105  1
  O2-  O399  1  0.31129745  0.41378857  0.14257946  1
  O2-  O400  1  0.34793731  0.40122300  0.46596400  1
  O2-  O401  1  0.34784533  0.42473732  0.82201395  1
  O2-  O402  1  0.28423421  0.64814010  0.15324203  1
  O2-  O403  1  0.32020684  0.67670767  0.44969564  1
  O2-  O404  1  0.34091320  0.65290508  0.81129781  1
  O2-  O405  1  0.31261169  0.88282076  0.17108559  1
  O2-  O406  1  0.35175038  0.91687319  0.48669941  1
  O2-  O407  1  0.28646417  0.89108686  0.84431658  1
  O2-  O408  1  0.56961198  0.16345895  0.14023193  1
  O2-  O409  1  0.59464971  0.18409286  0.47244888  1
  O2-  O410  1  0.59256106  0.17181733  0.81143172  1
  O2-  O411  1  0.59541574  0.42448253  0.11812662  1
  O2-  O412  1  0.59488224  0.42147846  0.48309205  1
  O2-  O413  1  0.60518955  0.42983504  0.82162059  1
  O2-  O414  1  0.64958235  0.70677296  0.12547925  1
  O2-  O415  1  0.59543451  0.66227208  0.47025869  1
  O2-  O416  1  0.58524554  0.66607153  0.82726369  1
  O2-  O417  1  0.59706557  0.92057784  0.13645396  1
  O2-  O418  1  0.58112366  0.90836968  0.47820053  1
  O2-  O419  1  0.60871889  0.93078425  0.79967043  1
  O2-  O420  1  0.83629445  0.16574440  0.14241908  1
  O2-  O421  1  0.82475973  0.17457182  0.48992798  1
  O2-  O422  1  0.84395323  0.17998900  0.81743093  1
  O2-  O423  1  0.83007039  0.41642647  0.14234760  1
  O2-  O424  1  0.86337024  0.43543219  0.49114375  1
  O2-  O425  1  0.82219639  0.41389819  0.83043084  1
  O2-  O426  1  0.84159010  0.67721718  0.14012292  1
  O2-  O427  1  0.83848118  0.66150008  0.47692873  1
  O2-  O428  1  0.82717666  0.66121210  0.80761815  1
  O2-  O429  1  0.84365529  0.92184014  0.13940586  1
  O2-  O430  1  0.83861631  0.93243745  0.49315439  1
  O2-  O431  1  0.82320509  0.91233516  0.80403140  1
  O2-  O432  1  0.15725119  0.08582254  0.19282330  1
  O2-  O433  1  0.19436669  0.07965369  0.48770908  1
  O2-  O434  1  0.18782949  0.05341723  0.88011047  1
  O2-  O435  1  0.14998698  0.32370875  0.18718853  1
  O2-  O436  1  0.17871803  0.33715640  0.51905563  1
  O2-  O437  1  0.16335555  0.33905907  0.82610935  1
  O2-  O438  1  0.13583341  0.56335257  0.21236765  1
  O2-  O439  1  0.17112747  0.58324598  0.50525837  1
  O2-  O440  1  0.17349318  0.56784007  0.79545379  1
  O2-  O441  1  0.14183992  0.83284020  0.19157608  1
  O2-  O442  1  0.19350298  0.84295241  0.52672021  1
  O2-  O443  1  0.12847685  0.82914694  0.86877150  1
  O2-  O444  1  0.41230405  0.11581893  0.18141181  1
  O2-  O445  1  0.44307639  0.07817014  0.51827713  1
  O2-  O446  1  0.41559712  0.05457369  0.81272259  1
  O2-  O447  1  0.44405350  0.38475366  0.17561963  1
  O2-  O448  1  0.41981759  0.31890373  0.50614531  1
  O2-  O449  1  0.42402293  0.32899453  0.81993665  1
  O2-  O450  1  0.36383156  0.56611674  0.19384491  1
  O2-  O451  1  0.43551040  0.59085279  0.51665255  1
  O2-  O452  1  0.43253814  0.58525945  0.86759670  1
  O2-  O453  1  0.42379583  0.81658753  0.13885537  1
  O2-  O454  1  0.40411986  0.81711264  0.50422240  1
  O2-  O455  1  0.37443967  0.80384004  0.86138447  1
  O2-  O456  1  0.64281991  0.07595151  0.19569110  1
  O2-  O457  1  0.66483761  0.06633642  0.54014117  1
  O2-  O458  1  0.67649884  0.09164272  0.85342288  1
  O2-  O459  1  0.66447817  0.33420020  0.17286883  1
  O2-  O460  1  0.68814658  0.34966109  0.52319692  1
  O2-  O461  1  0.66816567  0.33699889  0.86839225  1
  O2-  O462  1  0.67705392  0.57666180  0.17684168  1
  O2-  O463  1  0.67300473  0.58457702  0.52451336  1
  O2-  O464  1  0.67214293  0.59493973  0.86018454  1
  O2-  O465  1  0.68468184  0.85130980  0.18809404  1
  O2-  O466  1  0.65990243  0.82207815  0.51445061  1
  O2-  O467  1  0.66465258  0.83023490  0.84672545  1
  O2-  O468  1  0.90631790  0.08872110  0.18511695  1
  O2-  O469  1  0.90834509  0.09696088  0.52184722  1
  O2-  O470  1  0.90284870  0.07320784  0.85645000  1
  O2-  O471  1  0.90575095  0.32396001  0.18087499  1
  O2-  O472  1  0.92791182  0.33846505  0.53553287  1
  O2-  O473  1  0.91046383  0.34117119  0.86249895  1
  O2-  O474  1  0.86426569  0.55726065  0.20262644  1
  O2-  O475  1  0.93283183  0.59254725  0.52048263  1
  O2-  O476  1  0.90505101  0.57699866  0.84802145  1
  O2-  O477  1  0.91587360  0.83724683  0.19037278  1
  O2-  O478  1  0.93338601  0.83139782  0.51275496  1
  O2-  O479  1  0.90466011  0.82930519  0.84696451  1
  O2-  O480  1  0.17312028  0.08181730  0.31379252  1
  O2-  O481  1  0.16280647  0.10518338  0.60031792  1
  O2-  O482  1  0.15676198  0.08370746  0.99388923  1
  O2-  O483  1  0.14928480  0.32047295  0.30934556  1
  O2-  O484  1  0.15279784  0.34201072  0.64659183  1
  O2-  O485  1  0.15415384  0.31704975  0.98063528  1
  O2-  O486  1  0.15049625  0.56305813  0.33312061  1
  O2-  O487  1  0.18898016  0.60424594  0.62540667  1
  O2-  O488  1  0.18189201  0.60478310  1.04924818  1
  O2-  O489  1  0.20669334  0.84234416  0.30375177  1
  O2-  O490  1  0.19172339  0.83766023  0.64990096  1
  O2-  O491  1  0.15586419  0.85218980  0.98418923  1
  O2-  O492  1  0.39802432  -0.00991633  0.26408591  1
  O2-  O493  1  0.45407883  0.11387382  0.63911188  1
  O2-  O494  1  0.42556803  0.07513974  0.96315565  1
  O2-  O495  1  0.42556742  0.35922338  0.31212877  1
  O2-  O496  1  0.25848510  0.24305962  0.66495597  1
  O2-  O497  1  0.39962867  0.31159092  0.98819470  1
  O2-  O498  1  0.39561954  0.58912920  0.32260558  1
  O2-  O499  1  0.46638159  0.65326060  0.62800969  1
  O2-  O500  1  0.42741970  0.59637857  0.98154368  1
  O2-  O501  1  0.42141228  0.85076054  0.33274708  1
  O2-  O502  1  0.41187041  0.81133807  0.62689122  1
  O2-  O503  1  0.40976191  0.84822043  0.98375810  1
  O2-  O504  1  0.64370990  0.08354961  0.31542185  1
  O2-  O505  1  0.67519532  0.08269319  0.65679538  1
  O2-  O506  1  0.66275424  0.08149556  0.97691897  1
  O2-  O507  1  0.64158832  0.32509970  0.29435846  1
  O2-  O508  1  0.70975308  0.36268940  0.64925752  1
  O2-  O509  1  0.65844220  0.34008107  0.99179130  1
  O2-  O510  1  0.66961214  0.58284490  0.30289711  1
  O2-  O511  1  0.69490719  0.59265123  0.64075414  1
  O2-  O512  1  0.67223752  0.58955687  0.98303202  1
  O2-  O513  1  0.67063683  0.84003072  0.31302165  1
  O2-  O514  1  0.68141288  0.83633120  0.63972358  1
  O2-  O515  1  0.66233956  0.83536102  0.96743174  1
  O2-  O516  1  0.92742671  0.07065342  0.29999063  1
  O2-  O517  1  0.91941702  0.09025614  0.64724579  1
  O2-  O518  1  0.90129090  0.06303988  0.97890860  1
  O2-  O519  1  0.90544042  0.32991979  0.30273851  1
  O2-  O520  1  0.93158444  0.35289462  0.65853414  1
  O2-  O521  1  0.92035153  0.36030056  0.98798835  1
  O2-  O522  1  0.93904947  0.60501918  0.31167980  1
  O2-  O523  1  0.90985410  0.54654487  0.66026569  1
  O2-  O524  1  0.91297441  0.58609189  0.97337525  1
  O2-  O525  1  0.90669468  0.83228096  0.31197435  1
  O2-  O526  1  0.92191070  0.82324732  0.64144463  1
  O2-  O527  1  0.91266119  0.83164283  0.97230913  1
  O2-  O528  1  0.06326591  0.15232036  0.02598529  1
  O2-  O529  1  0.09284862  0.16155932  0.35994689  1
  O2-  O530  1  0.08820353  0.18571930  0.70195394  1
  O2-  O531  1  0.09838164  0.44572291  -0.00523124  1
  O2-  O532  1  0.05894692  0.39143968  0.35799218  1
  O2-  O533  1  0.10445148  0.44998155  0.68402644  1
  O2-  O534  1  0.07104142  0.66271974  0.03042460  1
  O2-  O535  1  0.10529213  0.68450602  0.35657055  1
  O2-  O536  1  0.08643760  0.65627969  0.68765717  1
  O2-  O537  1  0.07640170  0.92016104  0.02841480  1
  O2-  O538  1  0.07590847  0.92155233  0.34955843  1
  O2-  O539  1  0.09174533  0.90560636  0.67397960  1
  O2-  O540  1  0.31840781  0.16807937  0.03030142  1
  O2-  O541  1  0.33267180  0.10838622  0.34233270  1
  O2-  O542  1  0.33494216  0.15315798  0.69433156  1
  O2-  O543  1  0.31737162  0.38481923  0.01418149  1
  O2-  O544  1  0.31408512  0.41504798  0.34703526  1
  O2-  O545  1  0.31904798  0.41533484  0.65808997  1
  O2-  O546  1  0.35141470  0.69048282  0.02622071  1
  O2-  O547  1  0.30205031  0.69265491  0.38601613  1
  O2-  O548  1  0.36347491  0.72951485  0.66010556  1
  O2-  O549  1  0.31555225  0.91553642  0.02459906  1
  O2-  O550  1  0.35692466  0.96309010  0.32459672  1
  O2-  O551  1  0.37146405  0.96714638  0.70745075  1
  O2-  O552  1  0.58178189  0.16955776  0.01647689  1
  O2-  O553  1  0.56802031  0.16968064  0.34543892  1
  O2-  O554  1  0.61371270  0.19447047  0.68530143  1
  O2-  O555  1  0.59910839  0.43503220  0.05147436  1
  O2-  O556  1  0.58536497  0.42549240  0.35499204  1
  O2-  O557  1  0.63608057  0.44485430  0.69086922  1
  O2-  O558  1  0.59250428  0.67313804  0.01577580  1
  O2-  O559  1  0.58316366  0.66629107  0.34730034  1
  O2-  O560  1  0.48796900  0.53376217  0.69653959  1
  O2-  O561  1  0.58376404  0.91950245  0.01494360  1
  O2-  O562  1  0.59027494  0.92189217  0.35651818  1
  O2-  O563  1  0.57414170  0.90733881  0.67324430  1
  O2-  O564  1  0.81585809  0.14542133  0.02072712  1
  O2-  O565  1  0.79955437  0.17872614  0.37172605  1
  O2-  O566  1  0.84062844  0.18074243  0.69436571  1
  O2-  O567  1  0.82950622  0.42901347  0.01961797  1
  O2-  O568  1  0.78837930  0.36952807  0.36687030  1
  O2-  O569  1  0.86756409  0.46286072  0.69157277  1
  O2-  O570  1  0.83830214  0.67167244  0.01848258  1
  O2-  O571  1  0.83092684  0.66654033  0.35247917  1
  O2-  O572  1  0.84026492  0.64704180  0.68868412  1
  O2-  O573  1  0.82049014  0.89926880  0.01708329  1
  O2-  O574  1  0.82948618  0.91456472  0.36115269  1
  O2-  O575  1  0.83989433  0.91406578  0.68179135  1
