# generated using pymatgen
data_H2O
_symmetry_space_group_name_H-M   'P 1'
_cell_length_a   17.99043344
_cell_length_b   17.99112912
_cell_length_c   21.99254634
_cell_angle_alpha   89.99969479
_cell_angle_beta   89.99106085
_cell_angle_gamma   120.02370175
_symmetry_Int_Tables_number   1
_chemical_formula_structural   H2O
_chemical_formula_sum   'H384 O192'
_cell_volume   6163.14539584
_cell_formula_units_Z   192
loop_
 _symmetry_equiv_pos_site_id
 _symmetry_equiv_pos_as_xyz
  1  'x, y, z'
loop_
 _atom_type_symbol
 _atom_type_oxidation_number
  H+  1.0
  O2-  -2.0
loop_
 _atom_site_type_symbol
 _atom_site_label
 _atom_site_symmetry_multiplicity
 _atom_site_fract_x
 _atom_site_fract_y
 _atom_site_fract_z
 _atom_site_occupancy
  H+  H0  1  0.60885299  0.63028809  0.67507859  1
  H+  H1  1  0.16765510  0.58691409  0.23223067  1
  H+  H2  1  0.62626548  0.88656873  0.66304468  1
  H+  H3  1  0.61250654  0.62440380  0.82818258  1
  H+  H4  1  0.39892816  0.85712644  0.65406945  1
  H+  H5  1  0.66358758  0.89661090  0.47023168  1
  H+  H6  1  0.36992525  0.52808509  0.33216904  1
  H+  H7  1  0.14018241  0.02478999  0.65836940  1
  H+  H8  1  0.52220360  0.38625390  0.16150546  1
  H+  H9  1  0.36308095  0.72492054  0.16553286  1
  H+  H10  1  0.13702196  0.10961483  0.18070425  1
  H+  H11  1  0.10645730  0.38831919  0.01029359  1
  H+  H12  1  0.71021518  0.60681470  0.33504384  1
  H+  H13  1  0.36957449  0.72784061  0.65792434  1
  H+  H14  1  0.36850843  0.39106363  0.66624797  1
  H+  H15  1  0.26105268  0.10211868  0.01471830  1
  H+  H16  1  0.13602321  0.11210600  0.32717727  1
  H+  H17  1  0.22234116  0.35211976  0.83674378  1
  H+  H18  1  0.88542275  0.10686237  0.17136931  1
  H+  H19  1  0.60769232  0.39210720  0.68008084  1
  H+  H20  1  0.73848673  0.84928067  0.66195502  1
  H+  H21  1  0.02776185  0.89221987  0.67437478  1
  H+  H22  1  0.36254304  -0.02639555  0.82615630  1
  H+  H23  1  0.98058333  0.86120540  0.83980483  1
  H+  H24  1  0.73535500  0.12017389  0.50083787  1
  H+  H25  1  0.63150034  0.28773123  0.85030327  1
  H+  H26  1  0.11599543  0.64533411  0.50037362  1
  H+  H27  1  0.63220776  0.28089558  0.51076947  1
  H+  H28  1  -0.03471855  0.34986384  0.85460639  1
  H+  H29  1  0.63573753  0.27752028  0.32566652  1
  H+  H30  1  0.38073569  0.39894383  0.32706105  1
  H+  H31  1  0.11002513  0.12205165  0.48989430  1
  H+  H32  1  0.61189808  0.05810019  0.84247100  1
  H+  H33  1  0.38342936  0.27881827  0.50624851  1
  H+  H34  1  0.14539718  0.52472276  0.32587665  1
  H+  H35  1  0.61293357  0.15195005  0.66614822  1
  H+  H36  1  0.51918526  0.82698273  0.81152883  1
  H+  H37  1  0.87712758  0.11653051  0.99635705  1
  H+  H38  1  0.10827710  0.44376689  0.82307052  1
  H+  H39  1  0.88153096  0.35883392  1.02714495  1
  H+  H40  1  0.02314904  0.13217310  0.16679762  1
  H+  H41  1  0.77204653  0.12778584  0.15816865  1
  H+  H42  1  0.80352515  0.88451846  0.47993157  1
  H+  H43  1  0.11409274  0.97705578  0.82760092  1
  H+  H44  1  0.86949472  0.97159463  0.81760506  1
  H+  H45  1  0.11675547  0.72985128  0.66903121  1
  H+  H46  1  0.38687596  0.11138425  0.17824078  1
  H+  H47  1  0.78027276  0.12000821  0.34732908  1
  H+  H48  1  0.22353646  0.86328314  0.17309538  1
  H+  H49  1  0.10545249  0.20854874  0.49100037  1
  H+  H50  1  0.37476251  0.86231387  0.86148386  1
  H+  H51  1  0.57616939  0.65189186  0.76202567  1
  H+  H52  1  0.00962344  0.66439533  0.81725056  1
  H+  H53  1  0.38255975  0.54271293  0.84259071  1
  H+  H54  1  0.12735965  0.64527926  0.34136052  1
  H+  H55  1  0.87580038  0.60169153  0.16643437  1
  H+  H56  1  0.77954078  0.89075693  0.00746811  1
  H+  H57  1  0.16375700  0.66331049  0.83989341  1
  H+  H58  1  0.64146087  0.52780213  0.99779185  1
  H+  H59  1  0.38396912  0.12343652  0.33493720  1
  H+  H60  1  0.86043422  0.88092010  0.15906916  1
  H+  H61  1  0.37114383  0.65235381  0.49511282  1
  H+  H62  1  0.13786110  0.87446384  0.98625853  1
  H+  H63  1  0.64026984  0.76212357  0.33263053  1
  H+  H64  1  0.50145357  0.33001723  0.99103501  1
  H+  H65  1  0.39002685  0.03905507  0.34093418  1
  H+  H66  1  0.61217802  0.63669628  0.00886634  1
  H+  H67  1  0.34545270  0.02971598  0.64002279  1
  H+  H68  1  0.60324332  0.48106685  0.34099853  1
  H+  H69  1  1.00087642  0.38296632  0.66805498  1
  H+  H70  1  0.37063490  0.39845354  0.49659527  1
  H+  H71  1  0.47324341  0.36825395  0.50521916  1
  H+  H72  1  0.39235470  0.03193239  0.49748478  1
  H+  H73  1  0.33739702  0.90951440  0.10163616  1
  H+  H74  1  0.64032658  0.04070581  0.49708159  1
  H+  H75  1  0.18771453  0.19875767  0.03925692  1
  H+  H76  1  0.40576923  0.54819355  0.50490052  1
  H+  H77  1  0.52055874  0.88013876  0.15810258  1
  H+  H78  1  0.88564793  1.01773693  0.17186686  1
  H+  H79  1  0.58288114  -0.07298118  0.83330609  1
  H+  H80  1  0.09136128  0.52863275  0.85336261  1
  H+  H81  1  0.11470330  0.88656380  0.66969863  1
  H+  H82  1  0.36333831  -0.02598777  0.15965899  1
  H+  H83  1  0.63291825  0.01119220  0.16672825  1
  H+  H84  1  0.16927336  0.58670428  0.57149821  1
  H+  H85  1  0.65039429  0.77704898  -0.00132980  1
  H+  H86  1  0.89681436  0.87777825  0.99496638  1
  H+  H87  1  0.87704249  0.01801673  0.99775534  1
  H+  H88  1  0.76871522  0.38287623  0.83688918  1
  H+  H89  1  0.88150240  0.51607995  0.16347196  1
  H+  H90  1  0.37344837  0.64232786  0.34177018  1
  H+  H91  1  0.87274029  0.26025488  0.66387405  1
  H+  H92  1  0.48878313  0.86043801  0.64551766  1
  H+  H93  1  0.10662701  0.97170176  0.34696186  1
  H+  H94  1  0.77548631  0.87663605  0.33011497  1
  H+  H95  1  0.22063554  1.10367848  0.84598501  1
  H+  H96  1  0.38667203  0.85963638  0.17358548  1
  H+  H97  1  0.85294115  0.73607486  0.67961532  1
  H+  H98  1  0.87694910  0.61896176  0.67661165  1
  H+  H99  1  0.52407176  0.13280740  0.16392873  1
  H+  H100  1  0.99558354  0.36339495  0.50119887  1
  H+  H101  1  0.16756944  0.07734623  0.27177231  1
  H+  H102  1  0.19093467  0.70246273  0.85865396  1
  H+  H103  1  0.65771281  0.80865545  0.48684435  1
  H+  H104  1  0.54573430  0.66384951  0.49279361  1
  H+  H105  1  0.16430961  0.31687323  0.57116348  1
  H+  H106  1  0.84611399  0.38221298  0.67419433  1
  H+  H107  1  0.63317763  0.27027330  0.16532604  1
  H+  H108  1  0.64887561  0.85882876  0.32555563  1
  H+  H109  1  0.13010693  0.40340696  0.48608458  1
  H+  H110  1  0.13388037  0.86834544  0.50785214  1
  H+  H111  1  0.86645068  0.22603647  0.01290646  1
  H+  H112  1  0.37940439  0.54356448  0.99886715  1
  H+  H113  1  0.29082014  0.41069092  0.50780085  1
  H+  H114  1  0.47842045  0.37137507  0.66225284  1
  H+  H115  1  0.91640085  0.82604769  0.22819174  1
  H+  H116  1  0.35253867  0.10785154  0.01169137  1
  H+  H117  1  0.07421078  0.14676106  0.76864119  1
  H+  H118  1  -0.07693373  0.32284554  0.26763479  1
  H+  H119  1  0.34381724  -0.06767070  0.29802848  1
  H+  H120  1  0.14080266  0.53399989  0.00360424  1
  H+  H121  1  0.46563759  0.11205706  0.83734141  1
  H+  H122  1  0.86320203  0.50491820  0.32303159  1
  H+  H123  1  0.16333298  0.83979709  0.91801971  1
  H+  H124  1  0.63967752  1.01149979  -0.00846347  1
  H+  H125  1  0.88781841  0.49333343  0.50231073  1
  H+  H126  1  0.39232290  0.77197331  0.32533246  1
  H+  H127  1  0.04758537  0.52016923  0.84371635  1
  H+  H128  1  0.38396755  0.33983755  0.87852186  1
  H+  H129  1  0.76087037  0.38667951  0.67971556  1
  H+  H130  1  0.85082153  0.63604677  0.82038253  1
  H+  H131  1  0.99082169  0.63480893  0.99445063  1
  H+  H132  1  0.10566760  0.12567414  0.66762887  1
  H+  H133  1  0.63078011  0.51626748  0.16399938  1
  H+  H134  1  0.23230838  0.86144473  0.65972078  1
  H+  H135  1  0.76985492  0.37559740  0.13908121  1
  H+  H136  1  0.23475083  0.61318341  0.32561724  1
  H+  H137  1  0.87166006  0.88457446  0.82285444  1
  H+  H138  1  0.38526718  0.96392600  0.68332471  1
  H+  H139  1  0.36880365  0.41614856  0.81179864  1
  H+  H140  1  0.74408142  0.37944000  1.02190094  1
  H+  H141  1  0.97969346  0.10770772  0.32241318  1
  H+  H142  1  0.02213689  0.63677790  0.15632558  1
  H+  H143  1  0.11367284  0.88715073  0.15557229  1
  H+  H144  1  0.39191684  0.61988898  0.65719650  1
  H+  H145  1  0.59203189  0.98264130  0.41344646  1
  H+  H146  1  0.61633627  0.16829307  0.82371808  1
  H+  H147  1  0.36175138  0.14854207  0.66908435  1
  H+  H148  1  0.51479381  0.13215554  0.66855790  1
  H+  H149  1  0.11874806  0.25492016  0.66796248  1
  H+  H150  1  0.69632302  0.14708875  0.30462372  1
  H+  H151  1  0.35643507  0.21772609  0.83037727  1
  H+  H152  1  0.58396438  0.42221008  0.06490606  1
  H+  H153  1  0.88419073  0.10962811  0.84531434  1
  H+  H154  1  0.62245323  0.15379712  0.49490098  1
  H+  H155  1  0.87508464  0.51498490  0.82064238  1
  H+  H156  1  0.61236269  0.38629783  0.15903833  1
  H+  H157  1  0.36056052  0.47036560  0.16845166  1
  H+  H158  1  0.85543729  0.71917810  0.16017419  1
  H+  H159  1  0.36511147  0.89629981  0.48507079  1
  H+  H160  1  0.61229331  0.13220517  0.16122483  1
  H+  H161  1  0.12269139  0.73682002  0.49477868  1
  H+  H162  1  0.12939442  0.26666925  0.99579095  1
  H+  H163  1  0.27284003  0.13800179  0.49309975  1
  H+  H164  1  0.43681128  0.68615203  0.80852422  1
  H+  H165  1  0.36438655  0.14293425  0.49124992  1
  H+  H166  1  0.60562075  0.39508664  0.49582668  1
  H+  H167  1  0.62692288  0.61161517  0.16146313  1
  H+  H168  1  0.78008266  0.64994093  0.00629368  1
  H+  H169  1  0.47153546  0.57640248  0.31832504  1
  H+  H170  1  0.52480069  0.15605795  0.35068082  1
  H+  H171  1  0.87009908  0.12093986  0.34203985  1
  H+  H172  1  0.13404947  0.77543989  0.17228058  1
  H+  H173  1  0.64198355  0.37921912  0.85122277  1
  H+  H174  1  0.62589672  0.88863593  0.00557376  1
  H+  H175  1  0.46187223  0.09247807  0.99517192  1
  H+  H176  1  0.72531987  0.61333390  0.16076781  1
  H+  H177  1  0.88825700  -0.00894836  0.64506514  1
  H+  H178  1  -0.02202189  0.35609461  0.17081286  1
  H+  H179  1  0.63280251  0.40198924  0.01267964  1
  H+  H180  1  0.12995072  0.09912210  0.84686098  1
  H+  H181  1  0.27982877  0.64860563  0.49664633  1
  H+  H182  1  0.59868866  0.11328627  1.00308191  1
  H+  H183  1  0.90263676  0.16196092  0.70333640  1
  H+  H184  1  0.14371103  0.53422817  0.50871991  1
  H+  H185  1  0.36157150  0.23656599  0.67246886  1
  H+  H186  1  -0.01862632  0.10189110  0.49586515  1
  H+  H187  1  0.08169378  0.36950338  0.66705483  1
  H+  H188  1  0.11591489  0.38787431  0.16959476  1
  H+  H189  1  0.97209418  0.85615430  0.16692735  1
  H+  H190  1  0.45210067  0.84692802  0.87882446  1
  H+  H191  1  0.64432450  0.77116564  0.66906462  1
  H+  H192  1  0.01294638  0.11825490  0.66596577  1
  H+  H193  1  0.14312016  0.87995899  0.84250538  1
  H+  H194  1  0.24444990  0.41831953  0.35609131  1
  H+  H195  1  0.39908644  0.25522303  0.32042592  1
  H+  H196  1  0.38611642  0.61095250  0.17091875  1
  H+  H197  1  0.11176906  0.63879273  0.15931484  1
  H+  H198  1  0.11401762  0.22863576  0.33508618  1
  H+  H199  1  0.51997274  0.62967389  0.15988758  1
  H+  H200  1  0.27967306  0.38937760  0.65768989  1
  H+  H201  1  0.42889621  0.40265514  0.99310130  1
  H+  H202  1  -0.02700227  0.85543760  0.32401415  1
  H+  H203  1  0.62537958  0.61395118  0.34010830  1
  H+  H204  1  0.40856863  0.42767430  0.00477656  1
  H+  H205  1  0.85917092  0.72892706  0.83248596  1
  H+  H206  1  0.68564942  0.83506403  0.93791849  1
  H+  H207  1  0.12808047  0.33784059  0.83606376  1
  H+  H208  1  0.35720487  0.36230017  0.34896903  1
  H+  H209  1  0.62347809  0.27578492  0.66569745  1
  H+  H210  1  0.66219286  0.05873077  0.90225412  1
  H+  H211  1  0.27341934  0.13260204  0.16538463  1
  H+  H212  1  0.07688379  0.29184089  0.54391928  1
  H+  H213  1  0.51751999  0.62617920  0.83018522  1
  H+  H214  1  0.41657746  0.58125999  0.22990653  1
  H+  H215  1  0.66779434  0.58833257  0.93924855  1
  H+  H216  1  0.17090561  0.34111150  0.70341224  1
  H+  H217  1  0.63298717  0.36504806  0.32251607  1
  H+  H218  1  0.60482007  0.48379178  0.49328685  1
  H+  H219  1  0.13576721  0.52547409  0.17429693  1
  H+  H220  1  0.23095783  0.62265202  1.00636964  1
  H+  H221  1  0.60939629  0.87941386  0.15915942  1
  H+  H222  1  0.37355595  0.10395710  0.83623039  1
  H+  H223  1  0.32542559  0.43028362  0.75578300  1
  H+  H224  1  0.80193773  0.56723695  0.46547627  1
  H+  H225  1  0.94118066  0.88890309  0.49124914  1
  H+  H226  1  0.87544385  0.52719151  0.67309559  1
  H+  H227  1  0.13670611  1.02063519  0.17530379  1
  H+  H228  1  0.35704766  0.74055129  0.02042947  1
  H+  H229  1  0.25007857  0.40858976  1.01729401  1
  H+  H230  1  0.84465690  0.15236496  0.43029663  1
  H+  H231  1  0.13638576  0.27481455  0.18475975  1
  H+  H232  1  0.52178120  0.63595482  0.67544028  1
  H+  H233  1  0.22529812  0.11833786  0.65845985  1
  H+  H234  1  0.49883450  0.35300661  0.32052993  1
  H+  H235  1  0.73230539  0.86392885  0.84057458  1
  H+  H236  1  0.63663419  0.76925917  0.17322342  1
  H+  H237  1  0.41046039  0.23982393  0.99314733  1
  H+  H238  1  0.89989102  0.26449745  0.32630804  1
  H+  H239  1  0.84222225  0.48238651  0.49605137  1
  H+  H240  1  0.88453262  0.85523652  0.31830441  1
  H+  H241  1  0.90638014  0.57804272  0.76490699  1
  H+  H242  1  0.48230423  0.12224615  0.50277071  1
  H+  H243  1  0.76997310  0.28697457  0.43999998  1
  H+  H244  1  0.10467656  0.88213829  0.34726347  1
  H+  H245  1  0.88374275  0.21669248  0.48925308  1
  H+  H246  1  0.40783295  0.71168773  0.74803416  1
  H+  H247  1  0.26883808  0.14154621  0.33993410  1
  H+  H248  1  0.32951283  0.15381805  0.10451307  1
  H+  H249  1  0.12083402  0.38584353  0.34048440  1
  H+  H250  1  0.52483869  0.64228299  0.00758431  1
  H+  H251  1  0.64002939  0.62577098  0.50604303  1
  H+  H252  1  0.11098894  0.20990345  0.82596630  1
  H+  H253  1  0.38146504  0.35722066  0.17837419  1
  H+  H254  1  0.76704756  0.12732670  0.83609774  1
  H+  H255  1  0.72544455  0.10567099  -0.01164789  1
  H+  H256  1  0.60981677  0.48205756  0.67715909  1
  H+  H257  1  0.27260829  0.63602166  0.16367160  1
  H+  H258  1  0.39183300  0.53054578  0.65362242  1
  H+  H259  1  0.27008834  0.38231670  0.17415371  1
  H+  H260  1  0.72004825  0.60892698  0.50674822  1
  H+  H261  1  0.13061908  0.01964737  0.50562998  1
  H+  H262  1  0.66742407  0.82740995  0.23296495  1
  H+  H263  1  0.13380235  0.77020626  0.33081982  1
  H+  H264  1  0.29282845  0.65157346  0.86990286  1
  H+  H265  1  0.12879532  0.78667472  0.83888950  1
  H+  H266  1  0.53013220  0.91866403  0.46630453  1
  H+  H267  1  0.86593446  -0.03305892  0.33042256  1
  H+  H268  1  0.87034056  0.64734702  0.50157155  1
  H+  H269  1  0.53769081  0.67379546  0.35940281  1
  H+  H270  1  0.63741496  0.84701992  0.85470718  1
  H+  H271  1  0.99653070  0.66371620  0.52251300  1
  H+  H272  1  0.87128773  0.61014315  0.32223039  1
  H+  H273  1  0.25626764  0.88184754  0.33276505  1
  H+  H274  1  0.71758992  0.37126102  0.51347588  1
  H+  H275  1  0.59562744  0.12613968  0.35748834  1
  H+  H276  1  0.86349714  0.34038992  0.46504283  1
  H+  H277  1  0.39568027  0.63681862  0.99465930  1
  H+  H278  1  0.86096919  0.72362307  0.33672170  1
  H+  H279  1  0.85303255  0.22087557  0.84546280  1
  H+  H280  1  0.22486577  0.32381606  0.31742997  1
  H+  H281  1  0.97292451  0.10721361  0.84409087  1
  H+  H282  1  0.28023613  0.64150316  0.67387549  1
  H+  H283  1  0.88715881  0.11054717  0.49613067  1
  H+  H284  1  0.72161260  0.61723140  0.66063740  1
  H+  H285  1  0.72194576  0.12270368  0.65557032  1
  H+  H286  1  0.88793042  0.35212720  0.16426998  1
  H+  H287  1  0.66257926  0.58538823  0.60016026  1
  H+  H288  1  0.42321132  0.59773559  0.90396945  1
  H+  H289  1  0.58002840  0.66257499  0.09939644  1
  H+  H290  1  0.92351219  0.32452691  0.55591785  1
  H+  H291  1  0.17531560  0.83967767  0.59892667  1
  H+  H292  1  0.27393459  0.88572697  0.82831217  1
  H+  H293  1  0.09511594  0.67311985  0.40044107  1
  H+  H294  1  0.08877047  0.91792119  0.76693545  1
  H+  H295  1  0.32993140  0.17613525  0.40025652  1
  H+  H296  1  0.58751778  0.91503386  0.06124877  1
  H+  H297  1  0.15499284  0.83061347  0.27066713  1
  H+  H298  1  0.38636423  0.84873373  0.95845928  1
  H+  H299  1  0.33721712  0.67333730  0.07367478  1
  H+  H300  1  0.83302536  0.66224552  0.39649424  1
  H+  H301  1  0.15516824  0.32074375  0.93467659  1
  H+  H302  1  0.84228206  0.17001294  0.75113604  1
  H+  H303  1  0.02136773  0.39261775  0.01977078  1
  H+  H304  1  0.33853421  0.90319439  0.73878754  1
  H+  H305  1  0.72195838  0.61653011  0.84277551  1
  H+  H306  1  0.42779953  0.84927000  0.55147268  1
  H+  H307  1  0.57815312  0.42093660  0.77409937  1
  H+  H308  1  0.85077483  0.89365778  0.41865273  1
  H+  H309  1  0.63332914  0.52434011  0.84448331  1
  H+  H310  1  0.09427703  0.68358045  0.06350961  1
  H+  H311  1  0.03443658  0.91292608  -0.00330719  1
  H+  H312  1  0.42060287  0.34067291  0.60049707  1
  H+  H313  1  1.02597328  0.64306686  0.67721396  1
  H+  H314  1  0.40249370  0.07131953  0.93681206  1
  H+  H315  1  0.93767264  0.63495209  0.58161298  1
  H+  H316  1  0.90744080  0.07894862  0.93293341  1
  H+  H317  1  0.57274099  0.41463181  0.39796697  1
  H+  H318  1  0.57442037  0.17727342  0.76331590  1
  H+  H319  1  0.52095850  0.38674653  0.83510438  1
  H+  H320  1  0.14265347  0.02972182  0.94328926  1
  H+  H321  1  0.66364851  0.06512783  0.22801835  1
  H+  H322  1  0.03066126  0.38268489  0.33732610  1
  H+  H323  1  0.90616582  0.33886515  0.95970846  1
  H+  H324  1  0.69519651  0.35570502  0.95653487  1
  H+  H325  1  0.09083457  0.92489788  0.09674163  1
  H+  H326  1  0.33971694  0.67043869  0.39989447  1
  H+  H327  1  0.83986336  0.92492022  0.06734980  1
  H+  H328  1  0.08869835  0.41789016  0.10814805  1
  H+  H329  1  0.13658941  0.61388085  0.66778039  1
  H+  H330  1  0.90037684  0.57611930  0.26001979  1
  H+  H331  1  0.60473385  0.68634658  0.43270000  1
  H+  H332  1  0.86200743  0.21779874  0.15824398  1
  H+  H333  1  0.43239478  0.31581306  0.25330322  1
  H+  H334  1  0.16513903  0.33210573  0.24604920  1
  H+  H335  1  0.32368497  0.16532693  0.76776227  1
  H+  H336  1  0.59587358  0.92932297  0.71171529  1
  H+  H337  1  0.41069454  0.08592360  0.58887940  1
  H+  H338  1  0.87173594  0.65430856  0.00701374  1
  H+  H339  1  0.16535186  0.08202394  0.56341122  1
  H+  H340  1  0.13703495  0.78005252  0.99005209  1
  H+  H341  1  0.09079525  0.16441355  0.11186361  1
  H+  H342  1  0.66682451  0.33331074  0.22232586  1
  H+  H343  1  0.07662454  0.69788916  0.76234042  1
  H+  H344  1  0.88056119  0.35719382  0.85334902  1
  H+  H345  1  0.91612107  0.07715465  0.26475456  1
  H+  H346  1  0.09434302  0.42625341  0.42684694  1
  H+  H347  1  0.43208595  0.60511692  0.56418793  1
  H+  H348  1  0.82926493  0.66664565  0.09780281  1
  H+  H349  1  0.76358702  0.39119500  0.32601755  1
  H+  H350  1  0.31128174  0.45259813  0.41153560  1
  H+  H351  1  0.06165854  0.38777005  0.76572775  1
  H+  H352  1  0.11416548  0.11250259  0.01602827  1
  H+  H353  1  0.86169361  0.90057629  0.72482464  1
  H+  H354  1  0.43585710  0.29939912  0.90921404  1
  H+  H355  1  0.89839541  0.78958669  0.99704758  1
  H+  H356  1  0.91231654  0.06110643  0.55476935  1
  H+  H357  1  0.83427165  0.40495488  0.37710193  1
  H+  H358  1  0.38323447  0.26769943  0.17042862  1
  H+  H359  1  0.41798694  0.08495451  0.23811874  1
  H+  H360  1  0.30953716  0.43477257  0.07581325  1
  H+  H361  1  0.91918295  0.58194243  0.94524704  1
  H+  H362  1  0.12635943  0.65354425  1.00535523  1
  H+  H363  1  0.05428948  0.90695557  0.44006686  1
  H+  H364  1  0.13181459  0.52294774  0.66709358  1
  H+  H365  1  0.41836012  0.83157629  0.23323795  1
  H+  H366  1  0.77168593  0.88211076  0.15983336  1
  H+  H367  1  0.82113911  0.67658881  0.73843242  1
  H+  H368  1  0.22771653  0.87802468  0.50125562  1
  H+  H369  1  0.38693914  0.85607933  0.32730834  1
  H+  H370  1  0.65668821  0.33851007  0.60813780  1
  H+  H371  1  0.82276121  0.40091699  0.77500292  1
  H+  H372  1  0.83344237  0.15769091  0.06734883  1
  H+  H373  1  0.07994465  0.16079292  0.39148736  1
  H+  H374  1  0.58867330  0.18414472  0.43722810  1
  H+  H375  1  0.33305565  0.92487670  0.42685557  1
  H+  H376  1  0.92396009  0.83906625  0.90065625  1
  H+  H377  1  0.80657410  0.26128030  0.62222509  1
  H+  H378  1  0.68596613  0.12401199  0.58960236  1
  H+  H379  1  0.57260794  0.14643923  0.06156207  1
  H+  H380  1  0.85270438  0.05443790  0.64040116  1
  H+  H381  1  0.90576855  0.85516503  0.61613273  1
  H+  H382  1  0.22012010  0.58871622  0.91171961  1
  H+  H383  1  0.39278548  0.78919417  0.49412743  1
  O2-  O384  1  0.08598191  0.16375154  0.15669646  1
  O2-  O385  1  0.07606516  0.14948786  0.47450198  1
  O2-  O386  1  0.07557456  0.14807440  0.81370697  1
  O2-  O387  1  0.08493217  0.41718578  0.15356500  1
  O2-  O388  1  0.09560545  0.42903334  0.47344270  1
  O2-  O389  1  0.07051103  0.38417509  0.81012366  1
  O2-  O390  1  0.08298317  0.67030629  0.14323046  1
  O2-  O391  1  0.08694176  0.67536690  0.48308728  1
  O2-  O392  1  0.06253646  0.71450409  0.80202740  1
  O2-  O393  1  0.08311831  0.91792582  0.14121394  1
  O2-  O394  1  0.06617236  0.91737878  0.48517447  1
  O2-  O395  1  0.08562221  0.91608430  0.81220907  1
  O2-  O396  1  0.33391218  0.16336214  0.14993807  1
  O2-  O397  1  0.33314216  0.17311403  0.47801894  1
  O2-  O398  1  0.32158245  0.15881108  0.81281451  1
  O2-  O399  1  0.32966599  0.40842166  0.15657335  1
  O2-  O400  1  0.34481647  0.43513256  0.48566988  1
  O2-  O401  1  0.32465066  0.43031598  0.80135077  1
  O2-  O402  1  0.33389449  0.66418861  0.14994990  1
  O2-  O403  1  0.33832705  0.67922019  0.47827166  1
  O2-  O404  1  0.45479249  0.73204174  0.77805150  1
  O2-  O405  1  0.33143318  0.91279800  0.14685641  1
  O2-  O406  1  0.33430890  0.92771616  0.47154617  1
  O2-  O407  1  0.33384247  0.91168435  0.81291088  1
  O2-  O408  1  0.58353766  0.16413287  0.14734051  1
  O2-  O409  1  0.58947410  0.18304167  0.48365959  1
  O2-  O410  1  0.57375833  0.18218629  0.80880883  1
  O2-  O411  1  0.58312536  0.41988582  0.14766627  1
  O2-  O412  1  0.57451572  0.42266329  0.47804136  1
  O2-  O413  1  0.58083576  0.42251965  0.81957641  1
  O2-  O414  1  0.58151796  0.65847170  0.14529401  1
  O2-  O415  1  0.60612815  0.68809327  0.47960708  1
  O2-  O416  1  0.57689585  0.64980071  0.80967696  1
  O2-  O417  1  0.58107374  0.91058530  0.14254978  1
  O2-  O418  1  0.59066790  0.95646899  0.45392700  1
  O2-  O419  1  0.55170627  0.86670859  0.84592291  1
  O2-  O420  1  0.83253590  0.15700366  0.14275911  1
  O2-  O421  1  0.84763186  0.15470274  0.47751369  1
  O2-  O422  1  0.82928082  0.16307388  0.82557945  1
  O2-  O423  1  0.83246928  0.40518680  0.12893597  1
  O2-  O424  1  0.81596593  0.34568407  0.44666675  1
  O2-  O425  1  0.82858663  0.40646327  0.82005736  1
  O2-  O426  1  0.82233470  0.65908560  0.14343777  1
  O2-  O427  1  0.81812006  0.62674240  0.47356022  1
  O2-  O428  1  0.82130153  0.67020067  0.81484885  1
  O2-  O429  1  0.83236914  0.91354634  0.14431545  1
  O2-  O430  1  0.85658501  0.88855466  0.46319722  1
  O2-  O431  1  0.84532950  0.91358808  0.79962460  1
  O2-  O432  1  0.16872630  0.07941503  0.19334270  1
  O2-  O433  1  0.16597817  0.08171342  0.51793339  1
  O2-  O434  1  0.16085610  0.06997534  0.86254551  1
  O2-  O435  1  0.16604120  0.33525718  0.19897888  1
  O2-  O436  1  0.13534576  0.30795041  0.53183149  1
  O2-  O437  1  0.16328746  0.31330595  0.85198284  1
  O2-  O438  1  0.16569058  0.58738406  0.18664238  1
  O2-  O439  1  0.17254900  0.59293905  0.52635741  1
  O2-  O440  1  0.25099109  0.59048464  0.87402577  1
  O2-  O441  1  0.16274955  0.83586632  0.18767223  1
  O2-  O442  1  0.17033334  0.84440948  0.52105099  1
  O2-  O443  1  0.16954588  0.84559488  0.85909777  1
  O2-  O444  1  0.41674528  0.08056733  0.19319015  1
  O2-  O445  1  0.42032336  0.09124577  0.51539718  1
  O2-  O446  1  0.40534380  0.07481747  0.85029098  1
  O2-  O447  1  0.41500731  0.32726247  0.18857927  1
  O2-  O448  1  0.41324147  0.33892766  0.52229953  1
  O2-  O449  1  0.41957587  0.31564020  0.86643928  1
  O2-  O450  1  0.41784957  0.58100413  0.18446706  1
  O2-  O451  1  0.43246260  0.60860977  0.51877471  1
  O2-  O452  1  0.42995825  0.59712797  0.85827102  1
  O2-  O453  1  0.41732549  0.82928888  0.18728068  1
  O2-  O454  1  0.42244482  0.85108709  0.50637162  1
  O2-  O455  1  0.39266429  0.83150218  0.89021393  1
  O2-  O456  1  0.66516113  0.07175248  0.18337725  1
  O2-  O457  1  0.67647088  0.09989882  0.51607041  1
  O2-  O458  1  0.66132208  0.05377193  0.85530149  1
  O2-  O459  1  0.66423437  0.33279209  0.17719710  1
  O2-  O460  1  0.65819333  0.34123329  0.52807209  1
  O2-  O461  1  0.67018297  0.34656395  0.86508854  1
  O2-  O462  1  0.66161445  0.58108426  0.17411788  1
  O2-  O463  1  0.66050606  0.58584955  0.52238693  1
  O2-  O464  1  0.66106006  0.58590243  0.85825909  1
  O2-  O465  1  0.66733918  0.82988393  0.18708561  1
  O2-  O466  1  0.69547447  0.87167419  0.48922237  1
  O2-  O467  1  0.68128429  0.83134090  0.86621236  1
  O2-  O468  1  0.91705028  0.07823195  0.18728121  1
  O2-  O469  1  0.91827711  0.07426272  0.50986756  1
  O2-  O470  1  0.91270324  0.07736288  0.86008746  1
  O2-  O471  1  0.91579425  0.32198274  0.18282167  1
  O2-  O472  1  0.93497360  0.31944272  0.51262171  1
  O2-  O473  1  0.90712403  0.32531144  0.87221071  1
  O2-  O474  1  0.90716321  0.57356723  0.18307270  1
  O2-  O475  1  0.95051920  0.66875920  0.54424505  1
  O2-  O476  1  0.90115783  0.57741741  0.80953887  1
  O2-  O477  1  0.91206802  0.82463349  0.18244940  1
  O2-  O478  1  0.98321327  0.88078797  0.51790238  1
  O2-  O479  1  0.92023758  0.83277201  0.85542166  1
  O2-  O480  1  0.16792730  0.08082795  0.31730401  1
  O2-  O481  1  0.16510005  0.08487239  0.64255843  1
  O2-  O482  1  0.14065801  0.03055291  0.98890087  1
  O2-  O483  1  0.17140347  0.32529299  0.31709976  1
  O2-  O484  1  0.14978617  0.31985271  0.66243358  1
  O2-  O485  1  0.14845254  0.32428341  0.97916575  1
  O2-  O486  1  0.17441832  0.58494005  0.31048264  1
  O2-  O487  1  0.16628060  0.58270682  0.65281191  1
  O2-  O488  1  0.17193156  0.59403521  0.98812128  1
  O2-  O489  1  0.15797620  0.83255821  0.31592650  1
  O2-  O490  1  0.17262711  0.83648165  0.64450341  1
  O2-  O491  1  0.16164908  0.83914046  0.96941203  1
  O2-  O492  1  0.41947661  0.09708995  0.32308020  1
  O2-  O493  1  0.40180521  0.08089982  0.63489564  1
  O2-  O494  1  0.40064841  0.06802817  0.98147986  1
  O2-  O495  1  0.44911030  0.30210818  0.29560157  1
  O2-  O496  1  0.41784157  0.34052808  0.64609626  1
  O2-  O497  1  0.45870916  0.27949139  0.96696863  1
  O2-  O498  1  0.41872690  0.57636131  0.30764495  1
  O2-  O499  1  0.42540905  0.59209388  0.64221339  1
  O2-  O500  1  0.42021245  0.60069367  0.98014248  1
  O2-  O501  1  0.41914767  0.83140668  0.30853338  1
  O2-  O502  1  0.42737304  0.83087719  0.63108784  1
  O2-  O503  1  0.38652715  0.84935434  1.00578026  1
  O2-  O504  1  0.68469860  0.08838311  0.31134851  1
  O2-  O505  1  0.69883498  0.15185946  0.63105880  1
  O2-  O506  1  0.66678210  0.07159805  0.97178714  1
  O2-  O507  1  0.66258237  0.33542304  0.30565470  1
  O2-  O508  1  0.65720381  0.33752458  0.65356337  1
  O2-  O509  1  0.68836155  0.36104426  1.00020922  1
  O2-  O510  1  0.64812535  0.57559074  0.32604171  1
  O2-  O511  1  0.66110530  0.58312948  0.64596117  1
  O2-  O512  1  0.67091920  0.58987576  0.98442838  1
  O2-  O513  1  0.67377793  0.82574369  0.30922815  1
  O2-  O514  1  0.67805998  0.83107328  0.65456175  1
  O2-  O515  1  0.68503705  0.83746598  0.98428808  1
  O2-  O516  1  0.91739020  0.07488734  0.31030685  1
  O2-  O517  1  0.90306709  0.04987700  0.62978627  1
  O2-  O518  1  0.90489413  0.08017595  0.97950056  1
  O2-  O519  1  0.93103266  0.32452024  0.31227072  1
  O2-  O520  1  0.86710515  0.30003552  0.63464024  1
  O2-  O521  1  0.91144637  0.33172633  1.00378918  1
  O2-  O522  1  0.89712344  0.57453883  0.30585447  1
  O2-  O523  1  0.91265425  0.59080285  0.67258982  1
  O2-  O524  1  0.92870729  0.60964074  0.98456587  1
  O2-  O525  1  0.91496145  0.82311695  0.30506036  1
  O2-  O526  1  0.90870349  0.85382271  0.66099620  1
  O2-  O527  1  0.92941390  0.84960088  0.98026716  1
  O2-  O528  1  0.12568425  0.16849318  0.03285453  1
  O2-  O529  1  0.08183437  0.16362617  0.34658478  1
  O2-  O530  1  0.07125924  0.15237464  0.68323250  1
  O2-  O531  1  0.08402575  0.42305146  0.02955446  1
  O2-  O532  1  0.09109394  0.41705054  0.35410361  1
  O2-  O533  1  0.05758172  0.40295706  0.68596367  1
  O2-  O534  1  0.09752861  0.68713333  0.01807463  1
  O2-  O535  1  0.09957230  0.67790813  0.35553721  1
  O2-  O536  1  0.08784621  0.67155698  0.68810755  1
  O2-  O537  1  0.09736991  0.94000237  0.00944943  1
  O2-  O538  1  0.07333133  0.91154499  0.36229437  1
  O2-  O539  1  0.08882350  0.92032070  0.68644537  1
  O2-  O540  1  0.32050182  0.13788763  0.02897849  1
  O2-  O541  1  0.33059743  0.17487377  0.35459864  1
  O2-  O542  1  0.32978993  0.17521331  0.68636794  1
  O2-  O543  1  0.30021732  0.45666885  0.03709948  1
  O2-  O544  1  0.29254002  0.47108882  0.37528016  1
  O2-  O545  1  0.33547909  0.42126710  0.67805413  1
  O2-  O546  1  0.33700675  0.67894495  0.02818951  1
  O2-  O547  1  0.34047511  0.67000466  0.35436175  1
  O2-  O548  1  0.34332679  0.67156328  0.67998414  1
  O2-  O549  1  0.33584632  0.88023513  0.02520727  1
  O2-  O550  1  0.32177765  0.91628560  0.33941954  1
  O2-  O551  1  0.34252995  0.90449811  0.69260516  1
  O2-  O552  1  0.56335988  0.13765830  0.01735522  1
  O2-  O553  1  0.58555513  0.18043309  0.36392561  1
  O2-  O554  1  0.57253373  0.16766327  0.68616789  1
  O2-  O555  1  0.59040557  0.42367796  0.02014179  1
  O2-  O556  1  0.57565708  0.41610024  0.35255846  1
  O2-  O557  1  0.57714272  0.42250882  0.69452171  1
  O2-  O558  1  0.58445875  0.66924973  0.02469458  1
  O2-  O559  1  0.59617346  0.68408159  0.36105794  1
  O2-  O560  1  0.58021869  0.66004968  0.69468968  1
  O2-  O561  1  0.59481263  0.91937781  0.01641480  1
  O2-  O562  1  0.60714520  1.05363401  0.35074784  1
  O2-  O563  1  0.59293088  0.91730222  0.66841264  1
  O2-  O564  1  0.83752059  0.16221357  0.02141046  1
  O2-  O565  1  0.84113174  0.15099219  0.36171657  1
  O2-  O566  1  0.85409335  0.17157216  0.70602490  1
  O2-  O567  1  0.83510915  0.40579064  0.06168197  1
  O2-  O568  1  0.82647783  0.42534960  0.33688413  1
  O2-  O569  1  0.82202165  0.41483424  0.69410007  1
  O2-  O570  1  0.83997899  0.68332899  0.02255701  1
  O2-  O571  1  0.83022776  0.66233544  0.35128091  1
  O2-  O572  1  0.82410013  0.67538350  0.69271923  1
  O2-  O573  1  0.84205915  0.92863583  0.02160003  1
  O2-  O574  1  0.83795866  0.90523533  0.34223558  1
  O2-  O575  1  0.86038330  0.89751826  0.67840153  1
