# generated using pymatgen
data_H2O
_symmetry_space_group_name_H-M   'P 1'
_cell_length_a   17.97376197
_cell_length_b   17.96972690
_cell_length_c   21.99260338
_cell_angle_alpha   89.98448908
_cell_angle_beta   90.02732905
_cell_angle_gamma   120.05788600
_symmetry_Int_Tables_number   1
_chemical_formula_structural   H2O
_chemical_formula_sum   'H384 O192'
_cell_volume   6148.00296283
_cell_formula_units_Z   192
loop_
 _symmetry_equiv_pos_site_id
 _symmetry_equiv_pos_as_xyz
  1  'x, y, z'
loop_
 _atom_type_symbol
 _atom_type_oxidation_number
  H+  1.0
  O2-  -2.0
loop_
 _atom_site_type_symbol
 _atom_site_label
 _atom_site_symmetry_multiplicity
 _atom_site_fract_x
 _atom_site_fract_y
 _atom_site_fract_z
 _atom_site_occupancy
  H+  H0  1  0.01753233  0.63854306  0.17258296  1
  H+  H1  1  0.12179978  0.84541834  0.34959355  1
  H+  H2  1  0.35364343  0.46106740  0.81499528  1
  H+  H3  1  0.51923868  0.13669541  0.00033867  1
  H+  H4  1  0.46428551  0.11436744  0.67732319  1
  H+  H5  1  0.63102339  0.10524385  0.98633739  1
  H+  H6  1  0.61064775  0.73628831  -0.01023828  1
  H+  H7  1  0.82956917  0.90515808  0.76951419  1
  H+  H8  1  0.63884183  0.77415496  0.50831213  1
  H+  H9  1  0.91420584  0.90117532  0.98955021  1
  H+  H10  1  0.86376801  0.38690282  0.00953569  1
  H+  H11  1  0.52012953  0.64585598  0.34622359  1
  H+  H12  1  0.78934592  0.45707402  0.47465131  1
  H+  H13  1  0.30497234  0.84438401  0.79127720  1
  H+  H14  1  0.22937242  0.59525780  0.26137539  1
  H+  H15  1  0.21895528  0.84860440  0.97370975  1
  H+  H16  1  0.72994214  0.11716757  0.50932047  1
  H+  H17  1  0.36053664  0.38779564  0.32108070  1
  H+  H18  1  0.10436782  0.22127170  0.19024921  1
  H+  H19  1  0.58231853  0.90139320  0.76883364  1
  H+  H20  1  0.58558927  0.42597255  0.77073192  1
  H+  H21  1  0.08345482  -0.00143334  0.19019011  1
  H+  H22  1  0.31687691  0.89569761  0.13730325  1
  H+  H23  1  0.14639814  0.62046184  0.50371143  1
  H+  H24  1  0.64963737  0.31590872  0.60796457  1
  H+  H25  1  0.25567892  0.36758090  0.66510483  1
  H+  H26  1  0.74227370  0.61883357  0.83446073  1
  H+  H27  1  0.90564791  0.62451943  0.58891034  1
  H+  H28  1  0.86047780  0.21497999  0.65824231  1
  H+  H29  1  0.47484584  0.86570743  0.33931557  1
  H+  H30  1  0.84002961  0.08960648  0.65227470  1
  H+  H31  1  0.28510275  0.89814950  0.35096998  1
  H+  H32  1  0.27669286  0.62632059  0.81978731  1
  H+  H33  1  0.88722036  0.34551487  0.46144812  1
  H+  H34  1  0.38425235  0.34947960  -0.00273713  1
  H+  H35  1  0.72953566  0.86068065  0.50782388  1
  H+  H36  1  1.04777805  0.91318741  1.01442030  1
  H+  H37  1  0.63562934  0.89808814  0.15632447  1
  H+  H38  1  1.00688771  0.13584261  0.18260608  1
  H+  H39  1  0.15566073  0.83265014  0.25757634  1
  H+  H40  1  0.89004603  0.53536338  1.02552506  1
  H+  H41  1  0.98031875  0.86592593  0.66452591  1
  H+  H42  1  0.76897479  0.61188760  0.31229833  1
  H+  H43  1  0.86735760  0.87682702  0.49081811  1
  H+  H44  1  0.61908045  0.89191695  0.50177989  1
  H+  H45  1  0.35112500  0.37937649  0.66744862  1
  H+  H46  1  0.91266724  0.38470552  0.69994233  1
  H+  H47  1  0.27117432  0.64191675  0.66736946  1
  H+  H48  1  0.66688449  0.82277833  0.60268548  1
  H+  H49  1  0.22257255  0.10521786  0.13281547  1
  H+  H50  1  0.47762607  0.09036039  0.17521213  1
  H+  H51  1  0.35761202  0.81311571  0.83320362  1
  H+  H52  1  0.76863905  0.89709138  0.34655659  1
  H+  H53  1  0.52975898  0.87986742  0.00599652  1
  H+  H54  1  0.63258494  0.53400770  0.30353720  1
  H+  H55  1  0.63814096  0.26835061  0.98802475  1
  H+  H56  1  0.48518874  0.61941753  0.50930686  1
  H+  H57  1  0.36297728  0.61432710  -0.01112961  1
  H+  H58  1  0.51372409  0.62549917  0.67314210  1
  H+  H59  1  0.37027759  0.62228027  0.08299330  1
  H+  H60  1  0.13711982  0.03471519  0.84730337  1
  H+  H61  1  0.85156509  0.62473656  0.17192299  1
  H+  H62  1  0.61825111  0.14804408  0.51199350  1
  H+  H63  1  0.96781447  0.36493144  0.17977042  1
  H+  H64  1  0.96452520  0.35598770  0.83630749  1
  H+  H65  1  0.61587784  0.45925187  0.01698515  1
  H+  H66  1  0.39508669  0.51609204  0.13635667  1
  H+  H67  1  0.63555136  1.01726902  -0.01422529  1
  H+  H68  1  0.39349869  0.32903169  0.84081252  1
  H+  H69  1  0.14173641  0.86409535  0.48424454  1
  H+  H70  1  0.86601230  0.96715562  0.49156431  1
  H+  H71  1  0.18698300  0.04819143  1.00688076  1
  H+  H72  1  0.89038914  0.86544546  0.66313471  1
  H+  H73  1  0.87765478  0.43265772  0.33103576  1
  H+  H74  1  0.73518946  0.11898553  0.83518422  1
  H+  H75  1  0.08549593  0.10512515  0.19583518  1
  H+  H76  1  0.37747176  0.58359277  0.82468136  1
  H+  H77  1  0.13401039  0.63261262  0.83627435  1
  H+  H78  1  0.88217034  0.85768695  0.84393511  1
  H+  H79  1  0.53388294  0.15382852  0.33510558  1
  H+  H80  1  0.63762449  0.52597025  0.66455368  1
  H+  H81  1  0.75109889  0.60828319  -0.00588938  1
  H+  H82  1  0.49595415  0.83949613  0.83722554  1
  H+  H83  1  -0.03116719  0.10199664  0.02327959  1
  H+  H84  1  0.63646433  0.10912090  0.18070511  1
  H+  H85  1  0.42397195  0.28624819  0.15968950  1
  H+  H86  1  0.11140153  0.46883836  0.16983573  1
  H+  H87  1  1.07687633  0.44511432  0.89658735  1
  H+  H88  1  0.68987245  0.57315392  0.90154482  1
  H+  H89  1  0.39626239  0.78512354  0.51521330  1
  H+  H90  1  0.24840864  0.09406519  0.32090500  1
  H+  H91  1  0.86295968  0.74092200  1.02126960  1
  H+  H92  1  0.78337227  0.00545605  0.61505027  1
  H+  H93  1  0.60705024  0.62157673  0.82523750  1
  H+  H94  1  0.38546977  0.77699876  0.66471996  1
  H+  H95  1  0.61697587  0.87386013  0.82713329  1
  H+  H96  1  0.39025273  0.83460550  0.97476113  1
  H+  H97  1  0.77042154  0.14100599  0.16886193  1
  H+  H98  1  0.22808652  0.69799948  0.85165189  1
  H+  H99  1  0.63550500  0.12833437  0.66229491  1
  H+  H100  1  0.76505902  0.86536420  0.67795525  1
  H+  H101  1  0.14480994  0.37302500  0.85826851  1
  H+  H102  1  0.35984359  0.64197140  0.35230500  1
  H+  H103  1  0.55983888  0.37321512  0.17129996  1
  H+  H104  1  0.84722097  0.37953588  0.16495560  1
  H+  H105  1  0.49852127  0.66032094  0.12795875  1
  H+  H106  1  1.00154359  0.61885673  0.80122913  1
  H+  H107  1  0.86356757  0.70476215  0.32794851  1
  H+  H108  1  -0.02601346  0.86577131  0.84138688  1
  H+  H109  1  0.10817869  0.13303601  0.49249891  1
  H+  H110  1  0.60466737  0.62697584  0.67277626  1
  H+  H111  1  0.36105158  0.73176967  0.35470702  1
  H+  H112  1  0.73037528  0.12837695  0.34064253  1
  H+  H113  1  -0.02837166  0.37677725  0.33385667  1
  H+  H114  1  0.52773382  0.11736164  0.83898079  1
  H+  H115  1  0.08773696  0.92211588  0.11261134  1
  H+  H116  1  0.64114155  0.12291894  0.83987914  1
  H+  H117  1  0.28646652  0.89878332  0.49044338  1
  H+  H118  1  0.12529663  0.75682113  0.34609345  1
  H+  H119  1  0.62184613  0.24231272  0.14845150  1
  H+  H120  1  0.95816125  0.84938247  0.18307105  1
  H+  H121  1  0.27122144  0.38753016  0.32472288  1
  H+  H122  1  0.63904730  0.87821370  0.33368478  1
  H+  H123  1  0.37960466  0.14511165  0.34108011  1
  H+  H124  1  0.89585294  1.03541875  -0.06898249  1
  H+  H125  1  0.36842080  0.22266993  0.49243502  1
  H+  H126  1  0.32691773  0.08514028  0.85360839  1
  H+  H127  1  0.37527862  0.64843508  0.50343451  1
  H+  H128  1  0.36237140  0.88505375  0.69190963  1
  H+  H129  1  0.96197263  0.82600520  0.33472310  1
  H+  H130  1  0.87527425  0.51521827  0.17409243  1
  H+  H131  1  0.39781849  0.87563243  0.51371174  1
  H+  H132  1  0.22019205  0.14482890  0.12555538  1
  H+  H133  1  0.25662225  0.17315915  0.82481472  1
  H+  H134  1  0.32476543  0.71898508  0.20312092  1
  H+  H135  1  0.87493041  0.10168965  0.84014875  1
  H+  H136  1  0.85985168  0.64940832  0.67266807  1
  H+  H137  1  0.85872933  0.72832648  0.82832544  1
  H+  H138  1  0.35567228  0.14236917  0.68218970  1
  H+  H139  1  0.85676800  -0.03387485  0.82849013  1
  H+  H140  1  0.22443368  0.11281224  0.50423310  1
  H+  H141  1  0.85594897  0.59841949  0.32687551  1
  H+  H142  1  0.60214731  0.23017451  0.68372050  1
  H+  H143  1  0.39757490  0.14826112  0.14600089  1
  H+  H144  1  0.11143076  -0.02272138  0.67794305  1
  H+  H145  1  0.60828363  -0.12714029  0.67737715  1
  H+  H146  1  0.35808216  0.39475082  0.47591327  1
  H+  H147  1  0.89424207  0.42951872  0.48750173  1
  H+  H148  1  1.02706541  0.38799698  1.01338808  1
  H+  H149  1  0.11378438  0.32357055  0.66227389  1
  H+  H150  1  0.17614646  0.83229265  0.43070999  1
  H+  H151  1  0.87177326  0.21103987  0.52064084  1
  H+  H152  1  0.10806559  0.65511233  0.65990080  1
  H+  H153  1  0.88101166  0.59607097  0.48806762  1
  H+  H154  1  0.12884925  0.54816568  0.64880871  1
  H+  H155  1  0.13825292  0.79079166  0.66142671  1
  H+  H156  1  0.59399499  0.39729066  0.07441083  1
  H+  H157  1  0.41798469  0.84310342  0.60944481  1
  H+  H158  1  0.11231187  0.35293736  0.51345512  1
  H+  H159  1  0.43359605  0.37985687  0.16605517  1
  H+  H160  1  0.62180596  0.64428430  0.49683198  1
  H+  H161  1  0.17090938  0.32938858  0.95038601  1
  H+  H162  1  0.38594501  0.03404327  1.00835817  1
  H+  H163  1  0.11804416  0.72047636  0.48792417  1
  H+  H164  1  0.10240288  0.72945826  0.17957378  1
  H+  H165  1  0.38583138  0.27472824  0.32130175  1
  H+  H166  1  0.85452501  0.12735555  0.01749255  1
  H+  H167  1  0.63910359  0.02914653  0.50976417  1
  H+  H168  1  0.40469358  0.82804158  0.28296656  1
  H+  H169  1  0.50415055  0.36613666  0.51024940  1
  H+  H170  1  0.02421196  0.41645468  0.49168174  1
  H+  H171  1  0.72520799  0.61851901  0.66436273  1
  H+  H172  1  0.09295942  0.14189175  0.34040070  1
  H+  H173  1  0.30527285  0.84897136  -0.10179941  1
  H+  H174  1  0.41048612  0.74030541  0.83849664  1
  H+  H175  1  0.38337137  0.27837525  0.66199982  1
  H+  H176  1  0.23971332  0.62419629  0.50913104  1
  H+  H177  1  0.60866806  0.73288131  0.34820358  1
  H+  H178  1  0.60390753  0.21858996  0.83612570  1
  H+  H179  1  0.71271085  0.37234076  0.16601906  1
  H+  H180  1  0.10746248  0.89073294  0.17659277  1
  H+  H181  1  0.53018092  0.89351598  0.50387259  1
  H+  H182  1  0.36158247  0.93416877  -0.06781095  1
  H+  H183  1  0.46824916  0.58452939  0.82635439  1
  H+  H184  1  0.65353436  0.02952252  0.17867569  1
  H+  H185  1  0.10673459  -0.04618251  0.34293839  1
  H+  H186  1  0.39329363  0.01433453  0.84313304  1
  H+  H187  1  0.60231539  0.38725989  0.67725068  1
  H+  H188  1  0.22051620  0.86545136  0.20196472  1
  H+  H189  1  0.39450363  0.53364844  0.49911166  1
  H+  H190  1  0.12266168  0.48906234  0.49716878  1
  H+  H191  1  0.37249647  0.70607519  0.00213365  1
  H+  H192  1  0.10053874  0.22298053  0.02561393  1
  H+  H193  1  0.09673022  0.88898608  0.83624707  1
  H+  H194  1  0.71213553  0.37635717  0.66114888  1
  H+  H195  1  0.39154331  0.03187854  0.51953134  1
  H+  H196  1  0.63408636  0.35443921  0.99582111  1
  H+  H197  1  0.76967595  0.13323662  0.00796201  1
  H+  H198  1  0.39034572  0.50612243  -0.01851654  1
  H+  H199  1  0.62740541  0.15437302  0.34037633  1
  H+  H200  1  0.33567556  0.10683143  0.88429676  1
  H+  H201  1  0.43382702  0.82916017  0.19354051  1
  H+  H202  1  0.62299961  0.50121883  0.49261654  1
  H+  H203  1  0.62819497  0.35894567  0.84120952  1
  H+  H204  1  0.40544593  0.03465171  0.33221593  1
  H+  H205  1  0.87201166  0.75941770  0.18497112  1
  H+  H206  1  0.63095876  0.25188445  0.32860066  1
  H+  H207  1  0.84294066  -0.04082640  0.67544117  1
  H+  H208  1  0.97390828  0.10177531  0.50586516  1
  H+  H209  1  -0.03356206  0.10815078  0.84453906  1
  H+  H210  1  0.84428631  0.50241126  0.65616675  1
  H+  H211  1  0.96770946  0.11931062  0.33768244  1
  H+  H212  1  0.38138857  0.52882095  0.32005157  1
  H+  H213  1  0.87095249  0.65624640  1.03078123  1
  H+  H214  1  0.17800537  0.34204579  0.37872667  1
  H+  H215  1  0.97065783  0.63548449  0.64420842  1
  H+  H216  1  0.97995737  0.62354241  1.03020548  1
  H+  H217  1  0.14542883  0.51053387  0.85310500  1
  H+  H218  1  0.18025945  0.09652352  0.90515509  1
  H+  H219  1  0.01210766  0.11456122  0.68435653  1
  H+  H220  1  0.82644801  0.16685290  0.10690236  1
  H+  H221  1  0.88680860  0.76954709  0.50874538  1
  H+  H222  1  0.09812602  0.20438797  0.67556330  1
  H+  H223  1  0.43311076  0.35101816  0.90693061  1
  H+  H224  1  0.62767982  0.42142178  0.46577174  1
  H+  H225  1  0.13565831  0.77254040  0.00764109  1
  H+  H226  1  0.07477085  0.71026817  0.82429607  1
  H+  H227  1  0.53103427  0.40522487  0.83508964  1
  H+  H228  1  0.81708539  0.65926339  0.11737210  1
  H+  H229  1  0.86342130  0.12583738  0.49501367  1
  H+  H230  1  0.73336233  0.38292977  0.31469013  1
  H+  H231  1  0.00674303  0.61232217  0.34309725  1
  H+  H232  1  0.14309043  0.36504312  1.00694686  1
  H+  H233  1  0.87822416  0.12077968  0.33933031  1
  H+  H234  1  0.60114889  0.71752595  0.14156066  1
  H+  H235  1  0.88846455  0.27118520  0.99915747  1
  H+  H236  1  0.13441063  0.43670127  0.62253608  1
  H+  H237  1  0.57763693  0.16582585  0.74034926  1
  H+  H238  1  0.46665903  0.33852395  0.00210483  1
  H+  H239  1  0.35044860  0.86459359  0.19691056  1
  H+  H240  1  0.75120431  0.36167085  0.82788055  1
  H+  H241  1  0.10166198  0.62309581  0.34268788  1
  H+  H242  1  0.35782131  -0.03076614  0.70529005  1
  H+  H243  1  0.13014310  0.27627881  0.84839627  1
  H+  H244  1  0.07961300  0.41755168  0.68313085  1
  H+  H245  1  0.77381652  0.38479851  0.00618993  1
  H+  H246  1  0.76248981  0.14266049  0.67022355  1
  H+  H247  1  0.74129785  0.52466762  0.96517428  1
  H+  H248  1  0.02073091  0.88362501  0.49839749  1
  H+  H249  1  0.61447360  0.98584906  0.35257952  1
  H+  H250  1  0.12518864  0.34886135  0.19377655  1
  H+  H251  1  0.85844063  0.22051556  0.82297006  1
  H+  H252  1  0.37249952  0.89555266  0.34792068  1
  H+  H253  1  0.13059967  0.10451235  0.66085892  1
  H+  H254  1  0.11712396  0.89204292  0.68310024  1
  H+  H255  1  0.10454756  0.14122178  0.84107949  1
  H+  H256  1  0.38510894  1.00863287  0.18729278  1
  H+  H257  1  0.52397117  0.88111293  0.67963179  1
  H+  H258  1  0.91888669  0.83805611  0.56535931  1
  H+  H259  1  0.64338891  0.51309870  0.83722493  1
  H+  H260  1  0.51675919  0.62865802  -0.01314541  1
  H+  H261  1  0.31999643  0.18537195  0.73097405  1
  H+  H262  1  0.25324778  0.37299434  0.82195265  1
  H+  H263  1  0.97544099  0.32221349  0.60064392  1
  H+  H264  1  0.34314522  0.67837192  0.44541602  1
  H+  H265  1  0.63525482  0.75765125  0.83812255  1
  H+  H266  1  0.86405703  0.50431020  0.81284677  1
  H+  H267  1  0.72705045  0.84664227  0.83934644  1
  H+  H268  1  0.72064017  0.59450004  0.19880051  1
  H+  H269  1  0.51698894  0.39346993  0.68045219  1
  H+  H270  1  0.23174191  0.60931372  0.99853960  1
  H+  H271  1  0.11031661  0.97453814  0.49625984  1
  H+  H272  1  0.85180179  1.00204121  0.15125355  1
  H+  H273  1  0.86019837  0.99289445  0.35040104  1
  H+  H274  1  0.86544509  0.59483088  0.80680737  1
  H+  H275  1  0.63202915  0.85207286  0.98757538  1
  H+  H276  1  0.28085272  0.38228708  1.01707416  1
  H+  H277  1  0.22757905  0.87166357  0.67961110  1
  H+  H278  1  0.63108886  0.75991883  0.66114567  1
  H+  H279  1  0.10382493  0.24387092  0.34776332  1
  H+  H280  1  0.11965989  0.64430365  0.02869222  1
  H+  H281  1  0.37402461  0.51718790  0.65549924  1
  H+  H282  1  0.88125575  0.12296370  0.18546948  1
  H+  H283  1  0.72039575  0.96398858  0.12475055  1
  H+  H284  1  0.87576515  0.33990588  0.70471692  1
  H+  H285  1  0.86116485  0.73806248  0.67545187  1
  H+  H286  1  0.09907853  0.38097531  0.34789509  1
  H+  H287  1  0.74034922  0.85782511  0.15122772  1
  H+  H288  1  0.33598988  0.20721565  -0.00452993  1
  H+  H289  1  0.22362528  0.11449792  0.65824259  1
  H+  H290  1  0.57634972  0.65031311  0.76505196  1
  H+  H291  1  0.12676418  0.89749619  0.01664910  1
  H+  H292  1  0.91804976  0.60615378  0.90856065  1
  H+  H293  1  0.57456319  0.45452672  0.38870297  1
  H+  H294  1  0.30803887  0.39827013  0.75166407  1
  H+  H295  1  0.43721364  0.80459869  0.93065587  1
  H+  H296  1  0.08269141  0.41408178  0.10953475  1
  H+  H297  1  0.90469709  0.80501017  0.27349049  1
  H+  H298  1  0.07776370  0.42167123  0.40498151  1
  H+  H299  1  0.11495821  0.47900687  0.01409181  1
  H+  H300  1  0.42706078  0.33851036  0.60462946  1
  H+  H301  1  0.65812135  0.32907421  0.90150186  1
  H+  H302  1  0.02847207  0.36583794  0.75689556  1
  H+  H303  1  0.58675931  0.16701011  0.05550062  1
  H+  H304  1  0.13463662  0.05854222  0.24861856  1
  H+  H305  1  0.38154442  0.94937306  0.05869293  1
  H+  H306  1  0.90109079  0.56159581  0.23838396  1
  H+  H307  1  0.84342789  0.98732467  0.08028593  1
  H+  H308  1  0.80862849  0.38088407  0.76800550  1
  H+  H309  1  0.37235100  0.10946628  0.98686373  1
  H+  H310  1  0.08421792  0.92711341  0.77307761  1
  H+  H311  1  0.90429812  0.32545010  0.56316847  1
  H+  H312  1  0.92799110  0.84705525  0.94028852  1
  H+  H313  1  0.13727232  0.52286382  0.33751908  1
  H+  H314  1  0.48815179  0.28453764  0.54635070  1
  H+  H315  1  0.43187238  0.08912958  0.27007228  1
  H+  H316  1  0.39672633  0.60129350  0.27280118  1
  H+  H317  1  0.36463548  0.42934681  0.06234085  1
  H+  H318  1  0.82285713  0.40865267  0.10217677  1
  H+  H319  1  0.35151292  0.19583408  0.82489299  1
  H+  H320  1  0.35711046  0.63384588  0.66540614  1
  H+  H321  1  0.07331582  0.16760643  0.08648028  1
  H+  H322  1  0.82541416  0.67585642  0.76314854  1
  H+  H323  1  0.56834094  0.66446389  0.05250032  1
  H+  H324  1  0.91480093  0.64596391  0.91270275  1
  H+  H325  1  0.51519816  0.40864288  0.33132725  1
  H+  H326  1  0.82713139  0.16360083  0.76142119  1
  H+  H327  1  0.72894066  0.78724409  0.19702402  1
  H+  H328  1  0.88023521  0.27565368  0.18000696  1
  H+  H329  1  0.35340770  0.62943400  0.15138075  1
  H+  H330  1  0.68638615  0.21894605  0.12070292  1
  H+  H331  1  0.33016432  0.64809819  0.75759464  1
  H+  H332  1  0.83322425  0.91788985  0.41058082  1
  H+  H333  1  0.17446464  0.60643490  0.59212688  1
  H+  H334  1  0.58537253  0.67182031  0.43860944  1
  H+  H335  1  0.73977245  0.62203246  0.51309858  1
  H+  H336  1  0.81909092  0.48985420  0.72267932  1
  H+  H337  1  0.22341264  0.61473997  0.34873505  1
  H+  H338  1  0.86214435  0.24401381  0.35054356  1
  H+  H339  1  0.67179944  0.58787346  0.56896484  1
  H+  H340  1  0.42169264  0.33047106  0.25988355  1
  H+  H341  1  0.14143103  0.30563968  0.59694361  1
  H+  H342  1  0.90984627  0.34402404  0.27557423  1
  H+  H343  1  0.87264375  0.34860274  0.84054618  1
  H+  H344  1  0.83828190  0.18397143  0.41055566  1
  H+  H345  1  0.16517826  0.08327313  0.56391215  1
  H+  H346  1  0.11051199  0.26156658  0.50857022  1
  H+  H347  1  0.84726506  0.48172835  0.41604222  1
  H+  H348  1  0.41250696  0.55691509  0.91734178  1
  H+  H349  1  0.07226621  0.67432451  0.72028723  1
  H+  H350  1  0.66192587  0.81864717  0.92819146  1
  H+  H351  1  0.34394055  0.43393724  0.41540803  1
  H+  H352  1  0.33795694  0.16635480  0.39803707  1
  H+  H353  1  0.90092553  0.06458420  0.56030490  1
  H+  H354  1  0.42462005  0.05873226  0.90787869  1
  H+  H355  1  0.67058900  0.84620872  0.27515333  1
  H+  H356  1  0.66473985  0.34477657  0.26009024  1
  H+  H357  1  0.04754759  0.33668601  0.75605894  1
  H+  H358  1  0.11155705  0.80403351  0.91552975  1
  H+  H359  1  0.67036445  0.09154614  0.28086117  1
  H+  H360  1  0.58754806  0.92279062  0.40994720  1
  H+  H361  1  0.01998948  0.76577714  0.88684844  1
  H+  H362  1  0.07519819  0.64856667  0.43843159  1
  H+  H363  1  0.90220533  0.08502292  0.24594578  1
  H+  H364  1  0.47580336  0.12364708  0.52871469  1
  H+  H365  1  0.48048962  0.51952959  0.12510060  1
  H+  H366  1  0.41324717  0.57921720  0.59754347  1
  H+  H367  1  0.66657383  0.09948290  0.60244542  1
  H+  H368  1  0.33648756  0.94335546  0.05759597  1
  H+  H369  1  0.70419945  0.27249826  0.52633208  1
  H+  H370  1  0.07503508  0.16475027  0.77935012  1
  H+  H371  1  0.17041354  0.60280291  0.94483123  1
  H+  H372  1  0.07155173  0.90739421  0.40767873  1
  H+  H373  1  0.40136464  0.07845828  0.62103627  1
  H+  H374  1  0.07083774  0.16057431  0.43455532  1
  H+  H375  1  0.35550157  0.17029351  0.09031428  1
  H+  H376  1  0.60482736  0.92277226  0.05819151  1
  H+  H377  1  0.91656172  0.32768274  0.93900062  1
  H+  H378  1  0.67318540  0.08680452  0.90113762  1
  H+  H379  1  0.22199409  0.01572431  0.27659438  1
  H+  H380  1  0.15065643  0.32274056  0.25618430  1
  H+  H381  1  0.09144229  0.67723736  0.08876964  1
  H+  H382  1  0.36041410  0.13240533  0.49674483  1
  H+  H383  1  0.35789549  0.93878132  0.44125007  1
  O2-  O384  1  0.07040562  0.15917603  0.17283320  1
  O2-  O385  1  0.07213125  0.15878541  0.48046245  1
  O2-  O386  1  0.07432598  0.17093973  0.82426863  1
  O2-  O387  1  0.07730645  0.40995286  0.15493753  1
  O2-  O388  1  0.08334031  0.42775679  0.48391191  1
  O2-  O389  1  0.10693933  0.44838018  0.85866585  1
  O2-  O390  1  0.07876532  0.67239076  0.16029220  1
  O2-  O391  1  0.08869281  0.65727354  0.48264975  1
  O2-  O392  1  0.06523009  0.65878622  0.80090040  1
  O2-  O393  1  0.07557741  0.91689874  0.15720449  1
  O2-  O394  1  0.08094617  0.91398901  0.48125630  1
  O2-  O395  1  0.08105998  0.93034816  0.81894751  1
  O2-  O396  1  0.40197648  0.19552453  0.12059189  1
  O2-  O397  1  0.33317760  0.16332813  0.47683295  1
  O2-  O398  1  0.31391833  0.21417408  0.80627323  1
  O2-  O399  1  0.41925872  0.47743019  0.12965120  1
  O2-  O400  1  0.34359079  0.43923192  0.45947329  1
  O2-  O401  1  0.31128239  0.39902722  0.79897959  1
  O2-  O402  1  0.28633170  0.65562218  0.18605952  1
  O2-  O403  1  0.34518481  0.68033681  0.49123447  1
  O2-  O404  1  0.33240152  0.63834179  0.80281201  1
  O2-  O405  1  0.32425514  0.90570122  0.18110671  1
  O2-  O406  1  0.35060645  0.93354093  0.48632387  1
  O2-  O407  1  0.30067196  0.81143904  0.82858052  1
  O2-  O408  1  0.62538576  0.19230242  0.13093069  1
  O2-  O409  1  0.58831284  0.18259595  0.50605124  1
  O2-  O410  1  0.58472980  0.15905000  0.82057300  1
  O2-  O411  1  0.61693381  0.39293311  0.15076440  1
  O2-  O412  1  0.58767348  0.44245395  0.47173645  1
  O2-  O413  1  0.59191632  0.42944057  0.81667176  1
  O2-  O414  1  0.55601217  0.66585560  0.12060268  1
  O2-  O415  1  0.58871124  0.67294724  0.48472589  1
  O2-  O416  1  0.57344661  0.64777119  0.81114803  1
  O2-  O417  1  0.65967006  0.95153636  0.13296953  1
  O2-  O418  1  0.59032780  0.92388958  0.48688793  1
  O2-  O419  1  0.58114211  0.89899167  0.81507570  1
  O2-  O420  1  0.83006987  0.17098904  0.15232757  1
  O2-  O421  1  0.84026250  0.16607185  0.48955606  1
  O2-  O422  1  0.82535894  0.16021681  0.80720687  1
  O2-  O423  1  0.81482085  0.40643303  0.14743099  1
  O2-  O424  1  0.84942080  0.48730991  0.46172106  1
  O2-  O425  1  0.81211114  0.38689231  0.81235773  1
  O2-  O426  1  0.81752769  0.65382427  0.16221691  1
  O2-  O427  1  0.83987878  0.67784264  0.49407251  1
  O2-  O428  1  0.82323975  0.66914316  0.80974781  1
  O2-  O429  1  0.81257489  0.96280864  0.11917014  1
  O2-  O430  1  0.83530191  0.90703812  0.47441986  1
  O2-  O431  1  0.82977743  0.90485015  0.81523059  1
  O2-  O432  1  0.08835745  0.04649437  0.21819610  1
  O2-  O433  1  0.16360334  0.08305847  0.51836044  1
  O2-  O434  1  0.16511429  0.09590864  0.86180224  1
  O2-  O435  1  0.14947347  0.31505928  0.21171177  1
  O2-  O436  1  0.13406716  0.31670808  0.53154461  1
  O2-  O437  1  0.17170517  0.33640945  0.86255918  1
  O2-  O438  1  0.27585430  0.59647733  0.23525606  1
  O2-  O439  1  0.17783949  0.59120078  0.52219374  1
  O2-  O440  1  0.18547970  0.63572660  0.85706290  1
  O2-  O441  1  0.15837798  0.84154953  0.21301678  1
  O2-  O442  1  0.17751720  0.83693473  0.47545440  1
  O2-  O443  1  0.08025151  0.79162494  0.87512744  1
  O2-  O444  1  0.42185189  0.07369979  0.19321571  1
  O2-  O445  1  0.41325708  0.09065139  0.53757579  1
  O2-  O446  1  0.43957397  0.03315929  0.87295270  1
  O2-  O447  1  0.45105808  0.34084659  0.18414555  1
  O2-  O448  1  0.45893330  0.31570211  0.53420772  1
  O2-  O449  1  0.44198477  0.37342563  0.86433069  1
  O2-  O450  1  0.38804438  0.61364527  0.12411287  1
  O2-  O451  1  0.42327890  0.58895303  0.52246643  1
  O2-  O452  1  0.40596159  0.55028367  0.83887846  1
  O2-  O453  1  0.38101142  0.81233209  0.21596834  1
  O2-  O454  1  0.42794405  0.84599367  0.53035244  1
  O2-  O455  1  0.43480078  0.79814549  0.85678782  1
  O2-  O456  1  0.66724571  0.08343177  0.20090673  1
  O2-  O457  1  0.66882011  0.09124257  0.52232346  1
  O2-  O458  1  0.67469624  0.09305184  0.85440819  1
  O2-  O459  1  0.64936127  0.33983960  0.17858171  1
  O2-  O460  1  0.64792449  0.26769328  0.53239908  1
  O2-  O461  1  0.65349865  0.32377737  0.85566407  1
  O2-  O462  1  0.66338091  0.55499321  0.21806370  1
  O2-  O463  1  0.67570685  0.59131779  0.52369658  1
  O2-  O464  1  0.67969685  0.57813386  0.85608748  1
  O2-  O465  1  0.69706169  0.81221459  0.17804018  1
  O2-  O466  1  0.67035587  0.83503545  0.52458786  1
  O2-  O467  1  0.66654263  0.81671046  0.85519766  1
  O2-  O468  1  0.90831400  0.08932259  0.20055911  1
  O2-  O469  1  0.91014280  0.06760321  0.51560957  1
  O2-  O470  1  0.90440546  0.07131154  0.85562873  1
  O2-  O471  1  0.90741740  0.33623435  0.19480623  1
  O2-  O472  1  0.91231193  0.38570045  0.49527827  1
  O2-  O473  1  0.90763943  0.32227053  0.85495965  1
  O2-  O474  1  0.90448385  0.57303201  0.19332500  1
  O2-  O475  1  0.89660079  0.64616924  0.51474235  1
  O2-  O476  1  0.89140407  0.56081837  0.79228572  1
  O2-  O477  1  0.90002775  0.81961028  0.20084082  1
  O2-  O478  1  0.91812987  0.83604629  0.52007549  1
  O2-  O479  1  0.91462822  0.82854412  0.85816239  1
  O2-  O480  1  0.19762164  0.04549886  0.29882058  1
  O2-  O481  1  0.16351667  0.07956862  0.64232392  1
  O2-  O482  1  0.21899051  0.10500128  0.98539953  1
  O2-  O483  1  0.14811016  0.32344119  0.33980727  1
  O2-  O484  1  0.14857345  0.30133288  0.64426965  1
  O2-  O485  1  0.17169954  0.33166986  0.99532954  1
  O2-  O486  1  0.16908707  0.58471404  0.32449956  1
  O2-  O487  1  0.16913246  0.60843385  0.63852535  1
  O2-  O488  1  0.16963040  0.58672727  0.98783146  1
  O2-  O489  1  0.16112556  0.82129541  0.34243731  1
  O2-  O490  1  0.17311090  0.85435976  0.65761591  1
  O2-  O491  1  0.15739375  0.82742285  0.98334490  1
  O2-  O492  1  0.43666768  0.09505973  0.31557370  1
  O2-  O493  1  0.40185483  0.08211459  0.66620099  1
  O2-  O494  1  0.41066357  0.08386139  0.98088425  1
  O2-  O495  1  0.41126660  0.33365296  0.30421365  1
  O2-  O496  1  0.41470150  0.34054584  0.64864508  1
  O2-  O497  1  0.41012864  0.31464364  0.98168627  1
  O2-  O498  1  0.41006013  0.59255321  0.31453961  1
  O2-  O499  1  0.40870536  0.57830896  0.64341563  1
  O2-  O500  1  0.41785130  0.56488869  0.96234874  1
  O2-  O501  1  0.41254037  0.83559209  0.32978811  1
  O2-  O502  1  0.41502266  0.83934173  0.65481932  1
  O2-  O503  1  0.43034215  0.81189598  0.97580159  1
  O2-  O504  1  0.66888358  0.09716973  0.32589222  1
  O2-  O505  1  0.67284198  0.10626263  0.64718297  1
  O2-  O506  1  0.66537593  0.07896800  0.97151206  1
  O2-  O507  1  0.67509356  0.33665269  0.30316654  1
  O2-  O508  1  0.65084261  0.33228646  0.65072063  1
  O2-  O509  1  0.66794729  0.33036568  0.97589922  1
  O2-  O510  1  0.67637836  0.58770792  0.28049117  1
  O2-  O511  1  0.66503341  0.58558868  0.64800879  1
  O2-  O512  1  0.70941833  0.55536472  0.96944778  1
  O2-  O513  1  0.67277829  0.84992395  0.31967136  1
  O2-  O514  1  0.66713114  0.82107370  0.64821560  1
  O2-  O515  1  0.65528056  0.81447079  0.97409600  1
  O2-  O516  1  0.90372056  0.08570145  0.32472936  1
  O2-  O517  1  0.84217597  0.04092096  0.63007954  1
  O2-  O518  1  0.90279709  0.06349613  1.01835388  1
  O2-  O519  1  0.90974057  0.34989560  0.32074435  1
  O2-  O520  1  0.91558094  0.28555627  0.58737904  1
  O2-  O521  1  0.92007456  0.33166516  0.98398869  1
  O2-  O522  1  0.90027512  0.55194836  0.31522253  1
  O2-  O523  1  0.90878745  0.60921461  0.63229194  1
  O2-  O524  1  0.91694656  0.59845702  1.02469783  1
  O2-  O525  1  0.90300961  0.79098877  0.31834114  1
  O2-  O526  1  0.92063196  0.83576543  0.64694329  1
  O2-  O527  1  0.93307231  0.85871610  0.98482892  1
  O2-  O528  1  0.06378662  0.16433098  0.04222884  1
  O2-  O529  1  0.06285970  0.16847693  0.35899998  1
  O2-  O530  1  0.07166433  0.14776494  0.69793936  1
  O2-  O531  1  0.08713532  0.41848053  0.02935444  1
  O2-  O532  1  0.07393843  0.41842615  0.35954682  1
  O2-  O533  1  0.07700605  0.42066045  0.63939470  1
  O2-  O534  1  0.09255127  0.67765209  0.04221661  1
  O2-  O535  1  0.06698813  0.64859341  0.35837203  1
  O2-  O536  1  0.07272684  0.67971703  0.67522258  1
  O2-  O537  1  0.10613317  0.93628805  0.03217082  1
  O2-  O538  1  0.06912483  0.89759848  0.36211471  1
  O2-  O539  1  0.08159680  0.91929106  0.69719316  1
  O2-  O540  1  0.30740813  0.14518147  0.00940388  1
  O2-  O541  1  0.33991557  0.16660538  0.35243788  1
  O2-  O542  1  0.32608603  0.17726641  0.68675603  1
  O2-  O543  1  0.34503372  0.41195296  0.01941497  1
  O2-  O544  1  0.33296505  0.42162654  0.33543249  1
  O2-  O545  1  0.31447285  0.40360221  0.68276853  1
  O2-  O546  1  0.33766277  0.64361041  0.01267828  1
  O2-  O547  1  0.33085471  0.67140213  0.37102256  1
  O2-  O548  1  0.33031231  0.66533211  0.68453060  1
  O2-  O549  1  0.31860206  0.87419852  -0.05943381  1
  O2-  O550  1  0.34707819  0.93280470  0.36041665  1
  O2-  O551  1  0.33110578  0.90774130  0.71651209  1
  O2-  O552  1  0.58145959  0.16216633  0.01038517  1
  O2-  O553  1  0.59718671  0.18927785  0.34843334  1
  O2-  O554  1  0.57244759  0.16832736  0.69554611  1
  O2-  O555  1  0.58203054  0.39876986  0.03010060  1
  O2-  O556  1  0.57456619  0.45092110  0.34407443  1
  O2-  O557  1  0.57780682  0.42149256  0.69548386  1
  O2-  O558  1  0.57559436  0.66525319  0.00565572  1
  O2-  O559  1  0.57781633  0.67427597  0.36492629  1
  O2-  O560  1  0.57323922  0.65518230  0.69035167  1
  O2-  O561  1  0.59323459  0.91679442  0.01382918  1
  O2-  O562  1  0.58727916  0.92425830  0.36408307  1
  O2-  O563  1  0.58267848  0.90450122  0.69650806  1
  O2-  O564  1  0.82775652  0.16318988  0.02695850  1
  O2-  O565  1  0.83324489  0.18294712  0.36533820  1
  O2-  O566  1  0.82568962  0.16362727  0.68362567  1
  O2-  O567  1  0.83173069  0.41451475  0.02554838  1
  O2-  O568  1  0.84538432  0.46330600  0.34077718  1
  O2-  O569  1  0.80832767  0.45553037  0.68549435  1
  O2-  O570  1  0.83096984  0.68047358  0.03511831  1
  O2-  O571  1  0.82470972  0.63482748  0.33571984  1
  O2-  O572  1  0.82852539  0.67721958  0.69189569  1
  O2-  O573  1  0.88945404  1.00233659  -0.03074046  1
  O2-  O574  1  0.83016107  0.92868040  0.36280302  1
  O2-  O575  1  0.82603974  0.90202849  0.69322168  1
