# generated using pymatgen
data_H2O
_symmetry_space_group_name_H-M   'P 1'
_cell_length_a   17.98636876
_cell_length_b   17.99071738
_cell_length_c   21.99603220
_cell_angle_alpha   89.99367670
_cell_angle_beta   90.01768884
_cell_angle_gamma   119.98631535
_symmetry_Int_Tables_number   1
_chemical_formula_structural   H2O
_chemical_formula_sum   'H384 O192'
_cell_volume   6164.91087235
_cell_formula_units_Z   192
loop_
 _symmetry_equiv_pos_site_id
 _symmetry_equiv_pos_as_xyz
  1  'x, y, z'
loop_
 _atom_type_symbol
 _atom_type_oxidation_number
  H+  1.0
  O2-  -2.0
loop_
 _atom_site_type_symbol
 _atom_site_label
 _atom_site_symmetry_multiplicity
 _atom_site_fract_x
 _atom_site_fract_y
 _atom_site_fract_z
 _atom_site_occupancy
  H+  H0  1  0.13447523  0.97668625  0.72631951  1
  H+  H1  1  0.15021503  0.86550454  0.83905800  1
  H+  H2  1  0.42366028  0.33856794  0.26882849  1
  H+  H3  1  0.72057203  0.59862892  0.17414684  1
  H+  H4  1  0.85373252  0.72035417  0.16153327  1
  H+  H5  1  0.86579839  0.72535095  0.48709827  1
  H+  H6  1  0.38384998  0.27066777  1.00242335  1
  H+  H7  1  0.63301024  0.85838583  0.47218120  1
  H+  H8  1  0.85332937  0.12572805  0.15875318  1
  H+  H9  1  0.12021883  0.74157754  0.15611351  1
  H+  H10  1  0.72332251  0.11844531  0.99270835  1
  H+  H11  1  0.62687074  0.90573442  0.00399938  1
  H+  H12  1  0.25345884  0.65041175  0.31581130  1
  H+  H13  1  0.63294906  0.78816081  0.99641276  1
  H+  H14  1  0.39622205  0.36909346  0.32888370  1
  H+  H15  1  0.59505797  0.45721686  0.70825033  1
  H+  H16  1  0.36237113  0.63785658  0.66789553  1
  H+  H17  1  0.02784833  0.64850003  0.00039057  1
  H+  H18  1  0.97155911  0.85864014  0.49685468  1
  H+  H19  1  0.35295918  0.49012499  0.82579662  1
  H+  H20  1  0.10303908  0.46385768  0.83558455  1
  H+  H21  1  0.64258617  0.11661228  0.50146522  1
  H+  H22  1  0.90249686  0.78666756  0.98421317  1
  H+  H23  1  0.88604379  0.35173591  0.32584579  1
  H+  H24  1  0.60974101  0.62822613  0.49714136  1
  H+  H25  1  0.88045445  0.26760295  0.66169360  1
  H+  H26  1  0.39161011  0.12512223  0.48660592  1
  H+  H27  1  0.91643131  0.58729341  0.66325741  1
  H+  H28  1  0.65273632  0.27939077  0.50227938  1
  H+  H29  1  0.21179292  0.65228907  0.54812624  1
  H+  H30  1  0.15957559  0.14061674  0.52703049  1
  H+  H31  1  0.71553939  0.09635059  0.18420438  1
  H+  H32  1  0.37457399  0.64743653  0.32922598  1
  H+  H33  1  0.40908856  0.81646939  0.90907134  1
  H+  H34  1  0.11127654  0.88906443  0.00366301  1
  H+  H35  1  0.50203220  0.65726972  0.01546941  1
  H+  H36  1  0.61118949  0.73526972  0.34442023  1
  H+  H37  1  0.77588796  0.12786046  0.48154875  1
  H+  H38  1  0.52530338  0.87798271  0.83297997  1
  H+  H39  1  0.22509958  0.11244403  0.83849761  1
  H+  H40  1  0.03215099  0.14694278  0.49851022  1
  H+  H41  1  0.64228212  0.62384587  0.32674176  1
  H+  H42  1  0.52262270  0.37831534  0.16368552  1
  H+  H43  1  0.36156979  0.13389348  0.16520052  1
  H+  H44  1  0.13333576  0.10326281  0.16740116  1
  H+  H45  1  0.86193302  0.38172616  0.15488321  1
  H+  H46  1  0.60281787  -0.03835756  0.16446850  1
  H+  H47  1  0.44096295  0.76269181  0.87059069  1
  H+  H48  1  0.33900352  0.71564697  0.82126082  1
  H+  H49  1  0.61515033  0.13460840  1.01047579  1
  H+  H50  1  0.63742718  0.50024754  0.81405615  1
  H+  H51  1  0.97239711  0.10846499  0.66124753  1
  H+  H52  1  0.87498460  0.35444000  0.66860086  1
  H+  H53  1  0.11153504  0.14000947  0.83007732  1
  H+  H54  1  0.39191428  0.36369973  0.16976349  1
  H+  H55  1  0.36406940  0.88898225  0.66066366  1
  H+  H56  1  0.58342323  0.66750635  0.39963402  1
  H+  H57  1  0.16021461  0.83353814  0.23203443  1
  H+  H58  1  0.99657717  0.86216925  0.82184083  1
  H+  H59  1  0.34790831  0.50541657  0.51202421  1
  H+  H60  1  0.27150420  0.90068231  1.00890635  1
  H+  H61  1  0.88197858  0.60865300  0.49757992  1
  H+  H62  1  0.35161806  0.42660974  0.40627860  1
  H+  H63  1  0.62475772  0.58214278  0.80250934  1
  H+  H64  1  0.63357088  0.25316238  0.80412760  1
  H+  H65  1  0.84147819  0.43352083  1.06020758  1
  H+  H66  1  0.13372880  0.53653654  0.99725463  1
  H+  H67  1  0.13077580  0.62236399  0.50542200  1
  H+  H68  1  0.63040441  0.71667053  0.83046303  1
  H+  H69  1  0.06257779  0.17355599  0.34660653  1
  H+  H70  1  0.17002548  0.08982169  0.26643864  1
  H+  H71  1  0.88583875  0.77091789  0.31914613  1
  H+  H72  1  0.88974840  0.03488512  0.84144841  1
  H+  H73  1  0.60574888  0.36102054  0.00937400  1
  H+  H74  1  0.48138631  0.09277285  0.81687199  1
  H+  H75  1  0.39032166  0.36343058  0.99432353  1
  H+  H76  1  0.16521486  0.56545347  0.30927535  1
  H+  H77  1  0.51389827  0.37379729  0.01532800  1
  H+  H78  1  0.69929933  0.34242117  0.66702552  1
  H+  H79  1  0.61819913  0.72332119  0.16880225  1
  H+  H80  1  0.63740411  0.26303222  0.17317368  1
  H+  H81  1  0.48087435  0.13429831  0.81597478  1
  H+  H82  1  0.22161533  0.10140685  0.68074397  1
  H+  H83  1  -0.02145923  0.12390913  0.84326663  1
  H+  H84  1  0.27652304  0.38041631  1.00001302  1
  H+  H85  1  0.65863894  0.37152399  0.50441757  1
  H+  H86  1  0.87256474  0.90282380  0.83505284  1
  H+  H87  1  0.12108906  0.41081676  0.17237858  1
  H+  H88  1  0.86708010  0.09940308  0.31727768  1
  H+  H89  1  0.15151570  0.37249476  0.34135819  1
  H+  H90  1  0.36358082  0.72485756  0.48396940  1
  H+  H91  1  0.72750839  0.12510334  0.83869954  1
  H+  H92  1  0.85895896  0.22786867  0.82378776  1
  H+  H93  1  0.12136230  0.65760766  0.33581717  1
  H+  H94  1  0.73658971  0.62078161  0.50474637  1
  H+  H95  1  0.19424635  0.37416563  0.24572379  1
  H+  H96  1  0.27117871  0.13592824  1.00792517  1
  H+  H97  1  0.54879554  0.35225437  0.85076055  1
  H+  H98  1  0.73225421  0.33908590  0.32599811  1
  H+  H99  1  0.86670394  0.87681840  0.15627179  1
  H+  H100  1  0.47382147  0.87929774  0.31121968  1
  H+  H101  1  0.36373492  0.76967273  0.00119165  1
  H+  H102  1  0.16905144  0.33697160  0.60914444  1
  H+  H103  1  0.11017342  0.72224997  0.83410296  1
  H+  H104  1  0.12015301  0.48388061  0.50341317  1
  H+  H105  1  0.48695682  0.60760098  0.17604672  1
  H+  H106  1  0.47080299  0.85895240  0.64782164  1
  H+  H107  1  0.91243448  0.33966197  1.05072491  1
  H+  H108  1  0.14116044  0.78396413  0.99477428  1
  H+  H109  1  0.26912419  0.62953048  0.66814755  1
  H+  H110  1  0.97105471  0.86360899  0.16939366  1
  H+  H111  1  0.71219752  0.37415668  0.84750749  1
  H+  H112  1  0.52095601  0.12792389  0.16867275  1
  H+  H113  1  0.16199935  0.31364012  0.19023194  1
  H+  H114  1  0.87382023  0.60075274  0.17911399  1
  H+  H115  1  0.73051972  0.86616074  0.84265348  1
  H+  H116  1  0.72845324  0.10917339  0.65352926  1
  H+  H117  1  0.88271355  1.02139866  0.66204727  1
  H+  H118  1  0.08850415  0.19828844  0.14238319  1
  H+  H119  1  0.39674748  0.53433439  0.33184501  1
  H+  H120  1  0.38018976  0.85345556  0.16076600  1
  H+  H121  1  -0.03747678  0.09103264  0.16228262  1
  H+  H122  1  0.97155256  0.60823474  0.32569724  1
  H+  H123  1  0.22015838  0.38722742  0.85077728  1
  H+  H124  1  0.66512965  0.10778458  0.89607158  1
  H+  H125  1  0.37180900  0.20255997  0.83465193  1
  H+  H126  1  0.38620049  0.27168612  0.17476628  1
  H+  H127  1  0.36494784  0.98420589  0.01050236  1
  H+  H128  1  0.86734703  0.46898746  0.34010672  1
  H+  H129  1  0.22505605  0.10836912  0.17184752  1
  H+  H130  1  0.63398719  0.60006808  0.17464208  1
  H+  H131  1  0.36317480  0.14266351  0.00703162  1
  H+  H132  1  0.29124544  0.40155268  0.15603995  1
  H+  H133  1  0.13004299  0.33102663  0.98648979  1
  H+  H134  1  0.38683106  0.53135279  0.66228989  1
  H+  H135  1  0.86239563  0.88509681  0.48446945  1
  H+  H136  1  0.53540694  0.64438529  0.65578733  1
  H+  H137  1  0.10236143  0.37368443  0.83814090  1
  H+  H138  1  0.96946705  0.61396324  0.83289434  1
  H+  H139  1  0.54986810  0.39589274  0.50454512  1
  H+  H140  1  0.46304172  0.36261726  0.66620847  1
  H+  H141  1  0.38406642  0.52570018  0.98934949  1
  H+  H142  1  0.52988056  0.39794608  0.35073413  1
  H+  H143  1  0.63129947  0.53354280  1.03152574  1
  H+  H144  1  0.36611906  0.14086974  0.67388863  1
  H+  H145  1  0.51549210  0.61704940  0.49418044  1
  H+  H146  1  0.27418434  0.63738596  0.47728986  1
  H+  H147  1  -0.00740991  0.36924205  0.01042195  1
  H+  H148  1  0.85956775  0.20681618  0.33047272  1
  H+  H149  1  0.86337712  0.63376761  0.33580935  1
  H+  H150  1  0.94655352  0.07826769  0.31201379  1
  H+  H151  1  0.12876717  0.63511680  0.68036065  1
  H+  H152  1  0.12569115  0.50568096  0.67053710  1
  H+  H153  1  0.01330486  0.37720495  0.68280536  1
  H+  H154  1  0.34146894  0.70375297  0.11217254  1
  H+  H155  1  0.87646559  0.85534017  0.32049537  1
  H+  H156  1  0.61285905  0.46738669  0.16239127  1
  H+  H157  1  0.77047435  0.88480447  0.69976468  1
  H+  H158  1  0.39121186  1.02915257  0.65128618  1
  H+  H159  1  0.63702297  0.61847980  1.01243264  1
  H+  H160  1  0.43169891  0.63504633  0.90700151  1
  H+  H161  1  0.14732724  0.55981667  0.60831342  1
  H+  H162  1  0.38292767  0.48284325  0.15537831  1
  H+  H163  1  0.63239078  0.76935370  0.47818684  1
  H+  H164  1  -0.08392201  0.32690383  0.22967697  1
  H+  H165  1  0.65563897  0.17294609  0.81651368  1
  H+  H166  1  0.61993520  0.20736985  0.33561421  1
  H+  H167  1  0.14067961  1.02102783  -0.00882826  1
  H+  H168  1  0.62747136  0.09607708  0.18500211  1
  H+  H169  1  0.32664086  0.97775750  0.86136762  1
  H+  H170  1  1.02456524  0.89449894  0.99800387  1
  H+  H171  1  0.37531681  0.36491594  0.67407407  1
  H+  H172  1  0.10810829  0.97223260  0.15940286  1
  H+  H173  1  -0.03200763  0.34036192  0.32903936  1
  H+  H174  1  0.22723944  0.87365267  0.64428468  1
  H+  H175  1  0.96831827  0.36132369  0.84656664  1
  H+  H176  1  0.63792299  0.85572855  0.84105207  1
  H+  H177  1  0.71865084  0.85989310  0.17447239  1
  H+  H178  1  0.13086690  0.86275254  0.17149083  1
  H+  H179  1  0.13305481  0.87134191  0.32235116  1
  H+  H180  1  0.09745582  0.87573959  0.48616405  1
  H+  H181  1  0.64089896  0.85920405  0.70389102  1
  H+  H182  1  0.10986575  0.21753003  0.67585055  1
  H+  H183  1  0.26193984  0.63683710  1.01119126  1
  H+  H184  1  0.85817943  0.12729715  1.00670725  1
  H+  H185  1  0.33108484  0.92339044  0.10497832  1
  H+  H186  1  0.36736401  0.29555112  0.51681487  1
  H+  H187  1  0.63819162  0.03138079  0.27674490  1
  H+  H188  1  0.26381300  0.31416836  0.82517536  1
  H+  H189  1  0.89967217  0.06153404  0.22230427  1
  H+  H190  1  0.36654689  0.23157728  0.33794570  1
  H+  H191  1  0.12981278  0.35691287  0.66832616  1
  H+  H192  1  0.42135894  0.08034698  0.43959696  1
  H+  H193  1  0.39327568  0.78482423  0.31786097  1
  H+  H194  1  0.85990498  0.88301175  0.00149981  1
  H+  H195  1  0.01868428  0.89170905  0.33003754  1
  H+  H196  1  0.85729646  0.75956559  0.64636691  1
  H+  H197  1  0.61524204  0.97407329  0.65216572  1
  H+  H198  1  0.36722511  0.86051383  -0.00433602  1
  H+  H199  1  0.91691192  0.84180750  0.78413689  1
  H+  H200  1  0.38458824  0.02233666  0.17884588  1
  H+  H201  1  0.86242467  0.13474659  0.66981873  1
  H+  H202  1  0.89590325  1.02386905  0.50123439  1
  H+  H203  1  0.18248987  0.09665418  0.58081944  1
  H+  H204  1  0.40437172  0.32669861  0.84324165  1
  H+  H205  1  0.31693163  0.66191177  0.75928873  1
  H+  H206  1  0.84447973  0.95998244  0.32963600  1
  H+  H207  1  0.63527240  1.02984108  -0.00720268  1
  H+  H208  1  0.13753747  0.10763576  0.98863337  1
  H+  H209  1  0.12993481  0.09481560  0.68075164  1
  H+  H210  1  0.11727013  0.64903697  0.00224762  1
  H+  H211  1  0.61928439  0.26117157  -0.00005045  1
  H+  H212  1  0.26671495  0.39340118  0.68045153  1
  H+  H213  1  0.10352349  0.72149761  0.49086848  1
  H+  H214  1  0.02325182  0.39198675  0.16621154  1
  H+  H215  1  0.83077611  0.45034149  0.67541516  1
  H+  H216  1  0.05396913  0.65536412  0.67650801  1
  H+  H217  1  0.52368125  0.12265167  0.67603514  1
  H+  H218  1  0.13118144  0.78132765  0.32613616  1
  H+  H219  1  0.53622385  0.64493749  0.83349369  1
  H+  H220  1  0.29405149  0.16037157  0.50190012  1
  H+  H221  1  0.98686610  0.37874068  0.52158694  1
  H+  H222  1  0.01996581  0.12665799  -0.00277464  1
  H+  H223  1  0.26745344  0.88851462  0.33588745  1
  H+  H224  1  0.59906673  0.88839434  0.62191416  1
  H+  H225  1  0.08977594  0.66883731  0.77297236  1
  H+  H226  1  0.88269168  0.01815790  0.99195261  1
  H+  H227  1  0.27182666  0.88864521  0.16390588  1
  H+  H228  1  0.21171978  0.85080432  0.49760576  1
  H+  H229  1  0.51635020  0.88736869  0.48246037  1
  H+  H230  1  0.13911146  0.15343195  0.34090030  1
  H+  H231  1  0.86121773  0.97046431  0.15255692  1
  H+  H232  1  0.65250119  0.53045446  0.51382932  1
  H+  H233  1  0.77127616  0.37739590  0.15363510  1
  H+  H234  1  0.48387983  0.62345555  0.32685543  1
  H+  H235  1  0.86455769  0.12884973  0.48359705  1
  H+  H236  1  0.87819753  0.60936371  0.82455726  1
  H+  H237  1  0.29441428  0.36446025  0.51886651  1
  H+  H238  1  0.57466768  0.92969130  0.42356693  1
  H+  H239  1  1.01561306  0.62931440  0.49140633  1
  H+  H240  1  0.86349751  0.14167451  0.82613932  1
  H+  H241  1  1.12945230  0.98591980  0.82416947  1
  H+  H242  1  0.39710353  0.49665893  0.83212933  1
  H+  H243  1  0.75445700  0.61274165  0.79059096  1
  H+  H244  1  0.33980715  0.18501571  0.43622147  1
  H+  H245  1  0.15446401  0.43755592  0.02741513  1
  H+  H246  1  0.59568226  0.17048708  0.43003774  1
  H+  H247  1  0.34945889  0.96408963  0.48785639  1
  H+  H248  1  0.78240738  0.38175060  0.49755859  1
  H+  H249  1  0.63739907  0.35223183  0.17363448  1
  H+  H250  1  0.31824526  0.06125691  0.85326644  1
  H+  H251  1  0.85690531  0.88582320  0.67770824  1
  H+  H252  1  0.36479444  0.14168037  0.34108972  1
  H+  H253  1  0.37503178  0.60239834  0.50008944  1
  H+  H254  1  0.37064946  0.86265657  0.82791855  1
  H+  H255  1  0.84130086  0.70486060  0.80184280  1
  H+  H256  1  0.14413390  0.28376705  0.51106264  1
  H+  H257  1  0.39576396  0.64230081  0.84268862  1
  H+  H258  1  0.35816744  0.22561949  0.68061177  1
  H+  H259  1  0.90180871  0.66281418  1.00516394  1
  H+  H260  1  0.83330459  0.14738643  0.39054520  1
  H+  H261  1  0.67363426  0.83899014  0.93300886  1
  H+  H262  1  0.77671017  0.63961309  0.33608717  1
  H+  H263  1  0.85187447  0.47699458  0.82999249  1
  H+  H264  1  0.91225008  0.08182889  0.93358311  1
  H+  H265  1  0.10803012  0.98164236  0.33453655  1
  H+  H266  1  0.08070136  0.67025733  0.39687886  1
  H+  H267  1  0.77489770  0.88806929  0.47520713  1
  H+  H268  1  0.62811883  0.85673851  0.17328286  1
  H+  H269  1  0.86951918  0.47514607  0.49391860  1
  H+  H270  1  0.84734823  0.38615544  0.83502763  1
  H+  H271  1  0.86560705  0.21901029  0.01057967  1
  H+  H272  1  0.87563104  0.51356400  0.17599321  1
  H+  H273  1  0.47776437  0.10928644  0.33080948  1
  H+  H274  1  0.61543356  0.48945988  0.35102201  1
  H+  H275  1  0.76827266  0.88136093  1.00574141  1
  H+  H276  1  0.37712508  0.85451104  0.49854476  1
  H+  H277  1  0.12904788  0.53947094  0.17246519  1
  H+  H278  1  0.11444517  0.21337463  0.99689490  1
  H+  H279  1  0.71575975  0.86570834  0.33080645  1
  H+  H280  1  0.95017420  0.73772465  0.05192899  1
  H+  H281  1  0.21036087  0.60155279  0.83709154  1
  H+  H282  1  0.08751922  0.45089654  0.35917803  1
  H+  H283  1  0.63434139  1.02375743  0.50007736  1
  H+  H284  1  0.28950703  0.40236696  0.34946589  1
  H+  H285  1  0.64240719  0.77266685  0.69462773  1
  H+  H286  1  0.23215692  0.11855063  0.32554121  1
  H+  H287  1  0.22951640  0.85042493  0.83991954  1
  H+  H288  1  0.81483171  0.40287363  0.73953704  1
  H+  H289  1  0.07655963  0.91486492  0.09875072  1
  H+  H290  1  0.34376359  0.67665824  0.38832758  1
  H+  H291  1  0.35622249  0.88672691  0.33318693  1
  H+  H292  1  0.40977140  0.95647462  0.80642110  1
  H+  H293  1  0.58663168  0.66783913  0.10883286  1
  H+  H294  1  0.42162844  0.57566569  0.23118321  1
  H+  H295  1  0.37074324  0.60663381  0.99962820  1
  H+  H296  1  0.83186761  0.90554982  0.08844113  1
  H+  H297  1  0.33273231  0.91577254  0.71953236  1
  H+  H298  1  0.16227087  0.58601121  0.93298912  1
  H+  H299  1  0.07022022  0.14156029  0.08445332  1
  H+  H300  1  0.57756119  0.40057368  0.07786494  1
  H+  H301  1  0.52297718  0.12710652  0.01621242  1
  H+  H302  1  0.07244864  0.40360482  0.74297718  1
  H+  H303  1  0.40845539  0.58066422  0.59889356  1
  H+  H304  1  0.59660997  0.42836897  0.43982413  1
  H+  H305  1  0.33158857  0.16322227  0.10512739  1
  H+  H306  1  0.89965321  0.57278895  0.55924788  1
  H+  H307  1  0.90421178  0.32830442  0.90263664  1
  H+  H308  1  0.32888426  0.42268205  0.73805145  1
  H+  H309  1  0.59797078  0.38500370  0.66746816  1
  H+  H310  1  0.83146871  0.58207981  0.64395951  1
  H+  H311  1  0.33390724  0.15346578  0.77044174  1
  H+  H312  1  0.17496080  0.61479267  0.22295536  1
  H+  H313  1  0.30063131  0.28677247  0.77016262  1
  H+  H314  1  0.61746248  0.91007488  0.32943245  1
  H+  H315  1  0.59055609  0.92602741  0.06355922  1
  H+  H316  1  0.12239211  0.60199477  0.84294059  1
  H+  H317  1  0.89002938  0.37969409  0.51338777  1
  H+  H318  1  0.84338574  0.92744242  0.77331136  1
  H+  H319  1  0.37951947  0.06666687  0.93327791  1
  H+  H320  1  0.16800583  0.29428538  0.33287722  1
  H+  H321  1  0.58175405  0.15350834  0.11010479  1
  H+  H322  1  0.67378603  0.31219466  0.26686270  1
  H+  H323  1  0.61010312  0.17576173  0.74440662  1
  H+  H324  1  0.12250112  0.64466388  0.15595137  1
  H+  H325  1  0.33854323  0.41833070  0.05885932  1
  H+  H326  1  0.91639614  0.83731642  0.92146413  1
  H+  H327  1  0.38023207  0.77064792  0.65343444  1
  H+  H328  1  0.95245655  0.83586097  0.65478006  1
  H+  H329  1  0.91883333  0.59591326  0.92673757  1
  H+  H330  1  0.65748268  0.32829732  0.60279094  1
  H+  H331  1  0.09635620  0.43815796  0.08100820  1
  H+  H332  1  0.07096006  0.91052501  0.42862758  1
  H+  H333  1  0.40543426  0.81658185  0.21576986  1
  H+  H334  1  0.83078401  0.16407761  0.72908216  1
  H+  H335  1  0.40978313  0.82617765  0.55702718  1
  H+  H336  1  0.90776848  0.82925757  0.55516782  1
  H+  H337  1  0.11604007  0.23160819  0.83077367  1
  H+  H338  1  0.60195218  0.10948461  0.34448897  1
  H+  H339  1  0.83023653  0.91064893  0.39321881  1
  H+  H340  1  0.10255940  0.18246867  0.44482082  1
  H+  H341  1  0.71151361  0.87384110  0.58797697  1
  H+  H342  1  0.67547879  0.54826754  0.92015033  1
  H+  H343  1  0.90868575  0.83423193  0.22913573  1
  H+  H344  1  0.91832456  0.34377217  0.58177660  1
  H+  H345  1  0.84248491  0.40920670  0.39916536  1
  H+  H346  1  0.32190065  0.90572619  0.42899278  1
  H+  H347  1  0.42637081  0.09581669  0.59685066  1
  H+  H348  1  0.15002774  0.78163206  0.65388352  1
  H+  H349  1  0.66604223  0.58287118  0.26993134  1
  H+  H350  1  0.09170591  0.68162683  0.09153711  1
  H+  H351  1  0.17126184  0.32239988  0.91933642  1
  H+  H352  1  0.83576181  0.66554263  0.42751432  1
  H+  H353  1  0.71147863  0.59246764  0.91239734  1
  H+  H354  1  0.52586794  0.73350640  0.05997038  1
  H+  H355  1  0.07688069  0.16380287  0.73684688  1
  H+  H356  1  0.82191677  0.15682798  0.10249119  1
  H+  H357  1  0.67099100  0.08360026  0.59180241  1
  H+  H358  1  0.16605197  0.08004910  0.89773281  1
  H+  H359  1  0.17297480  0.84221562  0.93544540  1
  H+  H360  1  0.38459559  0.02307915  0.33052332  1
  H+  H361  1  0.15529179  0.82469358  0.55816109  1
  H+  H362  1  0.43026360  0.31330792  0.90942875  1
  H+  H363  1  0.91952061  0.07996666  0.56230026  1
  H+  H364  1  0.89453981  0.53967999  0.98888468  1
  H+  H365  1  0.41480999  0.08343171  0.23786354  1
  H+  H366  1  0.90691644  0.57095497  0.26868041  1
  H+  H367  1  0.64304655  0.32401321  0.93968823  1
  H+  H368  1  0.60768223  0.10934736  0.67301421  1
  H+  H369  1  0.88728930  0.26750324  0.17078930  1
  H+  H370  1  0.51443993  0.87264932  0.15390057  1
  H+  H371  1  0.62683285  0.64931365  0.65979212  1
  H+  H372  1  0.66368179  0.84671706  0.58360817  1
  H+  H373  1  0.46751241  0.15122007  0.94410151  1
  H+  H374  1  0.07539920  0.39864817  0.41769244  1
  H+  H375  1  0.79856363  0.64869106  0.70624614  1
  H+  H376  1  0.53670832  0.14829468  0.48783868  1
  H+  H377  1  0.65824507  0.83826724  0.27089464  1
  H+  H378  1  0.57767674  0.91107105  0.77223439  1
  H+  H379  1  0.87256590  0.41121097  0.99936028  1
  H+  H380  1  0.12057322  0.39517908  0.50900188  1
  H+  H381  1  0.70108999  0.60359899  0.60123255  1
  H+  H382  1  0.37996477  0.33896430  0.58117686  1
  H+  H383  1  0.83185071  0.66395775  0.10274480  1
  O2-  O384  1  0.06503556  0.13840591  0.13103546  1
  O2-  O385  1  0.09504665  0.18535906  0.48909207  1
  O2-  O386  1  0.08182599  0.17100810  0.81564666  1
  O2-  O387  1  0.08469926  0.43216356  0.15380425  1
  O2-  O388  1  0.08610382  0.42207943  0.49413584  1
  O2-  O389  1  0.07093471  0.40251224  0.82176931  1
  O2-  O390  1  0.09303006  0.68113413  0.13779595  1
  O2-  O391  1  0.07639724  0.65934629  0.47643711  1
  O2-  O392  1  0.07821136  0.66255745  0.81755325  1
  O2-  O393  1  0.07399219  0.91162529  0.14421909  1
  O2-  O394  1  0.06608556  0.90541584  0.47345504  1
  O2-  O395  1  0.10392632  0.92349944  0.81012551  1
  O2-  O396  1  0.32980509  0.16323037  0.15051600  1
  O2-  O397  1  0.35124115  0.18899259  0.48081959  1
  O2-  O398  1  0.32741050  0.14753294  0.81597627  1
  O2-  O399  1  0.34815566  0.42166443  0.13774364  1
  O2-  O400  1  0.25937087  0.38888025  0.49907108  1
  O2-  O401  1  0.31720882  0.32897814  0.80269677  1
  O2-  O402  1  0.30640829  0.64623374  0.09378423  1
  O2-  O403  1  0.33532543  0.66519760  0.46593360  1
  O2-  O404  1  0.30752877  0.65679912  0.80435476  1
  O2-  O405  1  0.33279009  0.91955994  0.15022059  1
  O2-  O406  1  0.32041393  0.90335379  0.47486733  1
  O2-  O407  1  0.35433229  0.90382873  0.81122428  1
  O2-  O408  1  0.58229310  0.15386857  0.15539229  1
  O2-  O409  1  0.59791385  0.17647151  0.47582570  1
  O2-  O410  1  0.65008792  0.21431500  0.78389672  1
  O2-  O411  1  0.58260006  0.40623710  0.14671221  1
  O2-  O412  1  0.60673640  0.42698690  0.48615923  1
  O2-  O413  1  0.61211792  0.39025442  0.84363999  1
  O2-  O414  1  0.59215903  0.66333083  0.15315395  1
  O2-  O415  1  0.57442374  0.65062614  0.47820621  1
  O2-  O416  1  0.59314110  0.65502800  0.82124086  1
  O2-  O417  1  0.57766870  0.90405168  0.14469327  1
  O2-  O418  1  0.57675163  0.92176284  0.46802896  1
  O2-  O419  1  0.58419991  0.90732026  0.81591226  1
  O2-  O420  1  0.82507414  0.15917860  0.14788408  1
  O2-  O421  1  0.83376846  0.15457933  0.46300578  1
  O2-  O422  1  0.83113899  0.16821072  0.80790130  1
  O2-  O423  1  0.83166950  0.41043724  0.13779007  1
  O2-  O424  1  0.84554811  0.41240062  0.48382281  1
  O2-  O425  1  0.81568102  0.41450684  0.81960143  1
  O2-  O426  1  0.82487468  0.66008591  0.14736215  1
  O2-  O427  1  0.83628811  0.66360239  0.47318540  1
  O2-  O428  1  0.81913836  0.64876563  0.78217421  1
  O2-  O429  1  0.83329174  0.90699434  0.13710234  1
  O2-  O430  1  0.83888843  0.92153196  0.46879303  1
  O2-  O431  1  0.84185068  0.93103952  0.81927090  1
  O2-  O432  1  0.16384508  0.07632059  0.18675867  1
  O2-  O433  1  0.20153097  0.12424694  0.54092068  1
  O2-  O434  1  0.16363355  0.08176472  0.85210364  1
  O2-  O435  1  0.18949075  0.37441047  0.20004703  1
  O2-  O436  1  0.17412552  0.34515733  0.52884216  1
  O2-  O437  1  0.17105759  0.33164834  0.86122162  1
  O2-  O438  1  0.16033927  0.60280699  0.17903808  1
  O2-  O439  1  0.17035079  0.60247522  0.52472039  1
  O2-  O440  1  0.15251549  0.57107952  0.85738467  1
  O2-  O441  1  0.16206146  0.83314163  0.18608405  1
  O2-  O442  1  0.15122334  0.81965268  0.51217150  1
  O2-  O443  1  0.17197783  0.82887132  0.85703232  1
  O2-  O444  1  0.41524452  0.08386067  0.19240414  1
  O2-  O445  1  0.41766459  0.08614897  0.48357172  1
  O2-  O446  1  0.31338222  0.01712988  0.88332156  1
  O2-  O447  1  0.41983938  0.33276495  0.18833772  1
  O2-  O448  1  0.37267468  0.34692153  0.53705147  1
  O2-  O449  1  0.43775028  0.30479574  0.86531675  1
  O2-  O450  1  0.42489963  0.57275379  0.18634745  1
  O2-  O451  1  0.39447780  0.56498236  0.51937915  1
  O2-  O452  1  0.44775411  0.66821591  0.86833631  1
  O2-  O453  1  0.40559284  0.81673154  0.17066502  1
  O2-  O454  1  0.40944716  0.82513300  0.51149664  1
  O2-  O455  1  0.42295532  0.80703140  0.86556507  1
  O2-  O456  1  0.65552421  0.06295437  0.19907744  1
  O2-  O457  1  0.66938545  0.08308105  0.51680985  1
  O2-  O458  1  0.66984456  0.11482654  0.85112946  1
  O2-  O459  1  0.67136009  0.32466944  0.18550127  1
  O2-  O460  1  0.68657771  0.33877656  0.51942956  1
  O2-  O461  1  0.64983171  0.33652801  0.86004438  1
  O2-  O462  1  0.66109270  0.56724419  0.19092346  1
  O2-  O463  1  0.68002120  0.59201033  0.52663546  1
  O2-  O464  1  0.65359587  0.55007115  0.78767048  1
  O2-  O465  1  0.66054454  0.82937496  0.19163521  1
  O2-  O466  1  0.66810917  0.83062092  0.46762102  1
  O2-  O467  1  0.67202303  0.83142496  0.85967643  1
  O2-  O468  1  0.90135425  0.06010086  0.17604945  1
  O2-  O469  1  0.92682975  0.08403619  0.51731034  1
  O2-  O470  1  0.91762981  0.09476795  0.85804786  1
  O2-  O471  1  0.91906104  0.32890836  0.18410609  1
  O2-  O472  1  0.92500759  0.35128253  0.53491750  1
  O2-  O473  1  0.90589993  0.33343146  0.85837689  1
  O2-  O474  1  0.90222490  0.57044658  0.19612695  1
  O2-  O475  1  0.91035376  0.57656305  0.51474953  1
  O2-  O476  1  0.90846944  0.58428112  0.84722236  1
  O2-  O477  1  0.90910833  0.83555119  0.18262277  1
  O2-  O478  1  0.90834750  0.82682992  0.51032967  1
  O2-  O479  1  0.93218029  0.83339755  0.82514366  1
  O2-  O480  1  0.17050623  0.09212420  0.31184887  1
  O2-  O481  1  0.15934340  0.06125364  0.67366333  1
  O2-  O482  1  0.17234254  0.08114214  0.97498260  1
  O2-  O483  1  0.19068757  0.35589335  0.32107294  1
  O2-  O484  1  0.16526587  0.33170771  0.65417089  1
  O2-  O485  1  0.16993295  0.31313126  0.97219499  1
  O2-  O486  1  0.19188658  0.62639838  0.30033809  1
  O2-  O487  1  0.15658153  0.56558061  0.65259124  1
  O2-  O488  1  0.16469408  0.59454464  0.97850753  1
  O2-  O489  1  0.16341809  0.84030014  0.30810658  1
  O2-  O490  1  0.16738174  0.83494076  0.63128756  1
  O2-  O491  1  0.17012592  0.84515809  0.98068314  1
  O2-  O492  1  0.41613346  0.08491697  0.31820999  1
  O2-  O493  1  0.42369341  0.09194556  0.64110511  1
  O2-  O494  1  0.42213540  0.10375257  0.96706937  1
  O2-  O495  1  0.42306378  0.33580538  0.31416685  1
  O2-  O496  1  0.39874044  0.32880174  0.65869961  1
  O2-  O497  1  0.42089995  0.33031156  0.98572588  1
  O2-  O498  1  0.42254156  0.59187063  0.31247660  1
  O2-  O499  1  0.41557808  0.58968822  0.64376863  1
  O2-  O500  1  0.40926945  0.58821665  0.98057248  1
  O2-  O501  1  0.41257596  0.84259910  0.29973954  1
  O2-  O502  1  0.40883204  0.83015279  0.63602361  1
  O2-  O503  1  0.38305715  0.82109428  0.97562316  1
  O2-  O504  1  0.63562257  0.02962481  0.32238109  1
  O2-  O505  1  0.66824123  0.07762803  0.63763101  1
  O2-  O506  1  0.66306298  0.09210916  0.97805805  1
  O2-  O507  1  0.67311544  0.30138798  0.31110123  1
  O2-  O508  1  0.64396069  0.32420024  0.64664074  1
  O2-  O509  1  0.64004678  0.32141189  0.98505366  1
  O2-  O510  1  0.67176656  0.59147320  0.31497755  1
  O2-  O511  1  0.70445650  0.60906438  0.64744998  1
  O2-  O512  1  0.65503700  0.59324868  1.04423768  1
  O2-  O513  1  0.65551570  0.84388205  0.31583802  1
  O2-  O514  1  0.67263330  0.83027423  0.71556571  1
  O2-  O515  1  0.67673578  0.84455058  0.97917583  1
  O2-  O516  1  0.88968985  0.05925553  0.29558926  1
  O2-  O517  1  0.91267933  0.08068033  0.64458523  1
  O2-  O518  1  0.91373691  0.07943765  0.97942122  1
  O2-  O519  1  0.91266162  0.31880499  0.30796158  1
  O2-  O520  1  0.91066785  0.33077316  0.65068385  1
  O2-  O521  1  0.92879843  0.33719461  1.00867195  1
  O2-  O522  1  0.90984855  0.57300716  0.31504985  1
  O2-  O523  1  0.86667305  0.55326014  0.63757346  1
  O2-  O524  1  0.92713871  0.60039274  0.97177632  1
  O2-  O525  1  0.91131000  0.83102188  0.30258488  1
  O2-  O526  1  0.89619628  0.82252974  0.63960477  1
  O2-  O527  1  0.91939591  0.84431175  0.96579026  1
  O2-  O528  1  0.08019598  0.15242442  0.01324668  1
  O2-  O529  1  0.12081593  0.19334286  0.36068012  1
  O2-  O530  1  0.07692010  0.15793761  0.69161213  1
  O2-  O531  1  0.10129423  0.43827456  0.03478809  1
  O2-  O532  1  0.07464702  0.39397382  0.37218932  1
  O2-  O533  1  0.07415664  0.40615884  0.69735964  1
  O2-  O534  1  0.08729134  0.67953975  0.01837756  1
  O2-  O535  1  0.08205001  0.67671449  0.35171131  1
  O2-  O536  1  0.10993165  0.67610443  0.69523685  1
  O2-  O537  1  0.08072590  0.91915643  0.01949986  1
  O2-  O538  1  0.07839506  0.92003964  0.34642292  1
  O2-  O539  1  0.13273126  0.92575933  0.74698775  1
  O2-  O540  1  0.33065613  0.16821965  0.02576280  1
  O2-  O541  1  0.33306970  0.17136213  0.35417827  1
  O2-  O542  1  0.33358779  0.16459303  0.69485240  1
  O2-  O543  1  0.33775753  0.41660814  0.01319962  1
  O2-  O544  1  0.35140535  0.42959296  0.36199937  1
  O2-  O545  1  0.32841431  0.42780224  0.69368623  1
  O2-  O546  1  0.32231643  0.66297425  0.02823118  1
  O2-  O547  1  0.34610569  0.68096186  0.34294888  1
  O2-  O548  1  0.32933550  0.66686264  0.68171781  1
  O2-  O549  1  0.33074199  0.92615012  0.02679975  1
  O2-  O550  1  0.32712606  0.91575217  0.35291451  1
  O2-  O551  1  0.33809702  0.92394269  0.67528855  1
  O2-  O552  1  0.58289796  0.16258861  0.02946193  1
  O2-  O553  1  0.58091574  0.14899774  0.35583557  1
  O2-  O554  1  0.56968176  0.12114264  0.70001823  1
  O2-  O555  1  0.57580522  0.39916702  0.03045402  1
  O2-  O556  1  0.58590419  0.43238486  0.37118295  1
  O2-  O557  1  0.56658425  0.41697246  0.67487561  1
  O2-  O558  1  0.55168195  0.70469577  0.03827379  1
  O2-  O559  1  0.58543891  0.67314683  0.35433860  1
  O2-  O560  1  0.59826792  0.68332770  0.65501824  1
  O2-  O561  1  0.59670369  0.93547669  0.01900708  1
  O2-  O562  1  0.58183608  0.93852664  0.33923585  1
  O2-  O563  1  0.58190869  0.90929985  0.65725132  1
  O2-  O564  1  0.82886594  0.15836650  0.02257714  1
  O2-  O565  1  0.83434318  0.14653169  0.34421315  1
  O2-  O566  1  0.83151673  0.16545104  0.68352184  1
  O2-  O567  1  0.84714697  0.44416795  0.01542090  1
  O2-  O568  1  0.84242836  0.40790021  0.35421694  1
  O2-  O569  1  0.81435503  0.39441459  0.69459348  1
  O2-  O570  1  0.89628034  0.70832115  0.02936722  1
  O2-  O571  1  0.83833848  0.66982057  0.34964877  1
  O2-  O572  1  0.79716881  0.65081595  0.66012604  1
  O2-  O573  1  0.83004064  0.90988580  0.02287144  1
  O2-  O574  1  0.82057400  0.90163898  0.34783507  1
  O2-  O575  1  0.83629739  0.92102445  0.69849213  1
