# generated using pymatgen
data_H2O
_symmetry_space_group_name_H-M   'P 1'
_cell_length_a   17.98223057
_cell_length_b   17.97960080
_cell_length_c   22.00035523
_cell_angle_alpha   90.01569432
_cell_angle_beta   89.93508965
_cell_angle_gamma   120.01768063
_symmetry_Int_Tables_number   1
_chemical_formula_structural   H2O
_chemical_formula_sum   'H384 O192'
_cell_volume   6158.94358432
_cell_formula_units_Z   192
loop_
 _symmetry_equiv_pos_site_id
 _symmetry_equiv_pos_as_xyz
  1  'x, y, z'
loop_
 _atom_type_symbol
 _atom_type_oxidation_number
  H+  1.0
  O2-  -2.0
loop_
 _atom_site_type_symbol
 _atom_site_label
 _atom_site_symmetry_multiplicity
 _atom_site_fract_x
 _atom_site_fract_y
 _atom_site_fract_z
 _atom_site_occupancy
  H+  H0  1  0.85707224  0.45171747  0.16083790  1
  H+  H1  1  0.37377207  0.99067999  0.17007994  1
  H+  H2  1  0.36345699  0.39106504  -0.00824568  1
  H+  H3  1  0.85978504  0.63370245  0.66882942  1
  H+  H4  1  1.03442846  0.39575372  0.48923827  1
  H+  H5  1  0.88058918  0.52110947  0.65678830  1
  H+  H6  1  0.68933935  0.10753143  0.30644885  1
  H+  H7  1  0.12302001  0.23665464  0.49835476  1
  H+  H8  1  0.88598832  0.77329390  0.66411196  1
  H+  H9  1  0.72517720  0.36351848  -0.00674765  1
  H+  H10  1  0.64580980  0.28777063  0.49165121  1
  H+  H11  1  0.35907166  0.13473247  1.00956916  1
  H+  H12  1  0.76986014  0.63258721  0.67036393  1
  H+  H13  1  0.37061988  0.57556941  0.66304843  1
  H+  H14  1  0.97737636  0.60926203  0.50354870  1
  H+  H15  1  0.37216886  1.02626643  0.50969403  1
  H+  H16  1  0.66051562  0.61475715  1.02628691  1
  H+  H17  1  -0.01435017  0.86173346  0.17779888  1
  H+  H18  1  0.43265556  0.54763886  0.50354508  1
  H+  H19  1  0.89150737  0.61841963  0.84301880  1
  H+  H20  1  0.72247740  0.84012761  0.84052696  1
  H+  H21  1  0.03257011  0.14714486  0.50271812  1
  H+  H22  1  0.86910405  0.47897087  0.48774647  1
  H+  H23  1  0.35245045  0.88283363  0.33907746  1
  H+  H24  1  0.59756555  0.62062554  0.82504234  1
  H+  H25  1  0.62691221  1.04629665  0.50511528  1
  H+  H26  1  0.14438487  0.11612266  0.33389689  1
  H+  H27  1  0.85322806  0.91705702  0.44313523  1
  H+  H28  1  0.72605191  0.36441321  0.32061558  1
  H+  H29  1  0.83746591  0.35474268  0.15606989  1
  H+  H30  1  0.35627303  0.16942991  0.17070567  1
  H+  H31  1  0.49604214  0.13546129  0.84439288  1
  H+  H32  1  0.60831278  0.89851094  1.01669256  1
  H+  H33  1  0.12722032  0.60861898  0.16930620  1
  H+  H34  1  0.12150231  0.51600486  0.17488780  1
  H+  H35  1  0.60082286  0.23202757  0.32060905  1
  H+  H36  1  0.50485927  0.62926518  0.82603659  1
  H+  H37  1  0.89287127  0.37075953  0.50103636  1
  H+  H38  1  0.14664214  0.76376429  0.65473687  1
  H+  H39  1  0.89017183  0.11855757  0.67600081  1
  H+  H40  1  0.86884516  0.72323382  0.50701153  1
  H+  H41  1  0.10338858  0.97222901  0.83180226  1
  H+  H42  1  0.11731742  0.10567750  0.84252370  1
  H+  H43  1  0.91354098  -0.02093456  0.34779698  1
  H+  H44  1  0.46554515  0.83377515  0.67665870  1
  H+  H45  1  0.63036481  0.16434057  0.46956300  1
  H+  H46  1  0.13134271  0.77435159  0.32376293  1
  H+  H47  1  0.69736375  0.87193842  0.16778815  1
  H+  H48  1  0.61015107  0.14142200  0.00619807  1
  H+  H49  1  0.45506741  0.60731021  0.19644542  1
  H+  H50  1  0.89915242  0.73900995  0.01829684  1
  H+  H51  1  0.77901597  0.39183856  0.48808801  1
  H+  H52  1  0.39343196  0.77145541  0.99367951  1
  H+  H53  1  0.26596584  0.15166398  0.66688692  1
  H+  H54  1  0.39345620  0.61946896  0.98976737  1
  H+  H55  1  0.39939843  0.39451706  0.65369534  1
  H+  H56  1  0.34486177  0.05752651  0.16515151  1
  H+  H57  1  0.13859679  0.62010225  0.82729613  1
  H+  H58  1  0.88104287  0.85907792  0.66448399  1
  H+  H59  1  0.13464987  1.02132503  0.17379778  1
  H+  H60  1  0.11455137  0.72201956  0.48857920  1
  H+  H61  1  0.10555750  0.35419253  0.84493371  1
  H+  H62  1  0.85058359  0.20026588  0.83432001  1
  H+  H63  1  0.60731966  0.71720234  0.81749725  1
  H+  H64  1  0.07692280  0.21159779  0.83692631  1
  H+  H65  1  0.04100730  0.14465868  0.34145456  1
  H+  H66  1  0.53230682  0.66018732  -0.03857368  1
  H+  H67  1  0.11648668  0.31892725  0.90999379  1
  H+  H68  1  0.11657494  0.88583439  0.15625507  1
  H+  H69  1  0.36213613  0.39655552  0.14780120  1
  H+  H70  1  1.02171092  0.14480793  0.68043938  1
  H+  H71  1  0.07885946  0.90867394  0.09833188  1
  H+  H72  1  1.02552827  0.40173376  0.81844547  1
  H+  H73  1  0.59219140  0.60704495  0.66256720  1
  H+  H74  1  0.11017494  0.37578587  0.01943351  1
  H+  H75  1  0.23289646  0.37200264  0.32728813  1
  H+  H76  1  0.87932057  0.73782183  0.32411857  1
  H+  H77  1  0.38983832  0.03202276  0.66679849  1
  H+  H78  1  0.28478173  0.65198383  1.00033126  1
  H+  H79  1  0.10895685  0.47086631  0.33273067  1
  H+  H80  1  0.48412552  0.86063531  0.15874205  1
  H+  H81  1  0.61963380  0.76396958  0.37695230  1
  H+  H82  1  0.36314505  0.23297386  0.49043479  1
  H+  H83  1  -0.02312307  0.60778545  0.32231196  1
  H+  H84  1  0.38240396  0.26852937  0.99362579  1
  H+  H85  1  0.86651590  0.08566021  0.84310022  1
  H+  H86  1  0.20701029  0.10980769  0.83128699  1
  H+  H87  1  0.63389869  0.27686020  0.99375992  1
  H+  H88  1  0.12287368  0.98945847  0.48903794  1
  H+  H89  1  0.38189918  0.87643661  0.51251845  1
  H+  H90  1  0.10762017  0.72244556  0.15923343  1
  H+  H91  1  0.84968362  0.95304279  0.83792772  1
  H+  H92  1  0.07807801  0.92678189  0.73727756  1
  H+  H93  1  0.47693766  0.60224986  0.35212162  1
  H+  H94  1  0.15750684  0.05206586  0.92879706  1
  H+  H95  1  0.72305581  0.81329365  0.28325807  1
  H+  H96  1  0.77286435  0.37308845  0.82300862  1
  H+  H97  1  0.84962013  0.38042617  0.66451270  1
  H+  H98  1  0.02628108  0.90098504  0.67614727  1
  H+  H99  1  0.85869173  0.46954570  0.00648181  1
  H+  H100  1  0.11241392  0.62815570  0.66524705  1
  H+  H101  1  0.38703943  0.24268075  0.83842448  1
  H+  H102  1  0.22432337  0.35177414  0.16400256  1
  H+  H103  1  0.22250418  0.85362886  0.16877876  1
  H+  H104  1  0.14066300  0.03780152  0.66862004  1
  H+  H105  1  0.86653358  0.62622656  0.32556429  1
  H+  H106  1  0.95768047  0.09095392  0.84143007  1
  H+  H107  1  0.64154268  0.17042752  0.67516242  1
  H+  H108  1  0.77799298  0.63642891  0.50759549  1
  H+  H109  1  0.11399896  0.38416405  0.33279827  1
  H+  H110  1  0.58637355  0.22796324  0.15941616  1
  H+  H111  1  0.62339155  0.02604895  0.99428474  1
  H+  H112  1  0.89055937  0.59144683  0.17035714  1
  H+  H113  1  0.39019465  0.62572834  0.83212478  1
  H+  H114  1  0.14866909  0.63932721  0.98589935  1
  H+  H115  1  0.10566509  0.88359723  0.82562081  1
  H+  H116  1  0.87143356  0.97959866  0.03018425  1
  H+  H117  1  0.25726405  0.62877785  0.15294035  1
  H+  H118  1  0.11533522  0.49017338  0.81888039  1
  H+  H119  1  0.98087906  0.86064604  0.85852487  1
  H+  H120  1  0.26697188  0.88194583  0.49454865  1
  H+  H121  1  0.17530293  0.33011150  0.22820104  1
  H+  H122  1  0.61982594  0.00807343  0.83410085  1
  H+  H123  1  0.13927441  0.12563940  0.66867696  1
  H+  H124  1  0.78791261  0.87693601  0.49975897  1
  H+  H125  1  0.36086930  0.14210329  0.49244139  1
  H+  H126  1  0.36916032  0.48678481  0.33732326  1
  H+  H127  1  0.61685888  0.39310617  0.00188166  1
  H+  H128  1  0.34234689  0.61821967  0.15502222  1
  H+  H129  1  0.63043012  0.79003267  0.40566396  1
  H+  H130  1  0.47866947  0.12079688  0.00107343  1
  H+  H131  1  0.35092721  0.86188997  0.15766125  1
  H+  H132  1  0.63298538  0.51464181  0.50802693  1
  H+  H133  1  0.35941167  0.15729585  0.66720608  1
  H+  H134  1  0.13252526  0.27489944  1.00074018  1
  H+  H135  1  0.12752997  -0.01520420  0.34916713  1
  H+  H136  1  0.70399673  0.58920218  0.83397389  1
  H+  H137  1  0.88330082  0.10743842  -0.00314336  1
  H+  H138  1  0.14764759  0.37617623  0.65634391  1
  H+  H139  1  0.66438264  0.62978853  0.16831180  1
  H+  H140  1  0.37524186  0.89229125  0.00677675  1
  H+  H141  1  0.82199723  0.14973212  0.34515678  1
  H+  H142  1  0.60166308  0.87468934  0.83168251  1
  H+  H143  1  0.77675999  0.89528160  0.24273022  1
  H+  H144  1  0.36156323  0.14102925  0.33590761  1
  H+  H145  1  0.40003320  0.48012864  0.81520814  1
  H+  H146  1  0.60788504  0.82067478  0.67754756  1
  H+  H147  1  0.66197375  0.56993769  0.60338703  1
  H+  H148  1  0.12148536  0.89058585  0.34606395  1
  H+  H149  1  0.97189283  0.35596343  1.00280161  1
  H+  H150  1  0.85751876  0.21933762  0.00249333  1
  H+  H151  1  0.38749170  0.28025885  0.32426301  1
  H+  H152  1  0.12976843  0.76216204  0.81990387  1
  H+  H153  1  0.88816314  0.61064848  0.50807986  1
  H+  H154  1  0.58537434  0.69431148  0.66549370  1
  H+  H155  1  0.34521467  0.47572315  0.14439957  1
  H+  H156  1  0.39148852  0.45347725  0.74748717  1
  H+  H157  1  0.02140196  0.62811522  0.15837859  1
  H+  H158  1  0.80119013  0.66110983  0.00953024  1
  H+  H159  1  0.82193028  0.90313522  0.34086821  1
  H+  H160  1  0.76361999  0.17093734  0.16820234  1
  H+  H161  1  0.50034947  0.13312421  0.15671288  1
  H+  H162  1  0.63385854  0.51432903  0.66478109  1
  H+  H163  1  0.58973977  0.13712382  0.31922655  1
  H+  H164  1  0.89690175  0.02314038  0.51920201  1
  H+  H165  1  0.22090607  0.36593454  0.98813216  1
  H+  H166  1  0.10625270  0.46104919  0.03013195  1
  H+  H167  1  0.60212779  0.59103634  0.35885742  1
  H+  H168  1  0.09967139  0.71186545  -0.00000670  1
  H+  H169  1  0.58902877  0.99465316  0.65798141  1
  H+  H170  1  0.27510961  0.64214666  0.81834306  1
  H+  H171  1  1.03125991  0.89090164  0.49524626  1
  H+  H172  1  -0.05091623  0.12825584  0.17587415  1
  H+  H173  1  0.37901766  0.00897079  0.84318336  1
  H+  H174  1  0.11171436  0.23558501  0.67795901  1
  H+  H175  1  0.41811619  0.67343511  0.50844600  1
  H+  H176  1  0.52173435  0.38680878  0.49082107  1
  H+  H177  1  0.98004717  0.29304975  0.86802266  1
  H+  H178  1  0.37143012  0.88809000  0.68325585  1
  H+  H179  1  0.91946940  0.56277731  0.22958017  1
  H+  H180  1  0.15178859  0.37356775  0.50380950  1
  H+  H181  1  0.77473068  0.14110834  0.50672920  1
  H+  H182  1  0.47165058  0.37091246  0.16824229  1
  H+  H183  1  0.10901326  0.63707848  0.33359994  1
  H+  H184  1  0.08723922  0.12516154  0.16587203  1
  H+  H185  1  0.79087285  0.62874760  0.16414628  1
  H+  H186  1  0.91667383  0.34142278  0.59636455  1
  H+  H187  1  0.37375515  -0.01921530  1.01148984  1
  H+  H188  1  0.88897804  0.60726823  -0.00099966  1
  H+  H189  1  0.62552074  0.12495738  0.15886886  1
  H+  H190  1  0.88748049  0.51643119  0.32350218  1
  H+  H191  1  0.46165488  0.11215602  0.31835673  1
  H+  H192  1  0.47304768  0.35731614  -0.00990299  1
  H+  H193  1  0.40358378  0.79794592  0.51848664  1
  H+  H194  1  0.77638111  0.53634808  0.79107979  1
  H+  H195  1  0.97269922  0.59931733  0.99665169  1
  H+  H196  1  0.29440644  0.41188395  0.49518877  1
  H+  H197  1  0.89106266  0.28148194  0.65689291  1
  H+  H198  1  0.23440029  0.85436685  0.65603022  1
  H+  H199  1  0.89098330  0.85247436  0.87192601  1
  H+  H200  1  0.16448280  0.83263320  0.22911131  1
  H+  H201  1  0.02266870  0.39133909  0.66448522  1
  H+  H202  1  0.21436122  0.07655778  0.98894387  1
  H+  H203  1  0.39549623  0.37653050  0.50366440  1
  H+  H204  1  0.76233698  0.87324241  0.68483490  1
  H+  H205  1  0.77636676  0.62925190  0.32749895  1
  H+  H206  1  0.24200093  0.38778375  0.65658802  1
  H+  H207  1  0.13600457  0.52381602  0.64774721  1
  H+  H208  1  0.86664086  0.38793775  0.33015155  1
  H+  H209  1  0.92178314  0.31744267  0.90572414  1
  H+  H210  1  0.57708226  0.60173505  0.20209363  1
  H+  H211  1  0.52186520  0.35662396  0.82910178  1
  H+  H212  1  0.13855260  0.85670203  0.50856036  1
  H+  H213  1  0.02338496  0.63052014  0.66675972  1
  H+  H214  1  0.35416857  0.62839804  0.36050905  1
  H+  H215  1  0.27737076  0.62470740  0.40387562  1
  H+  H216  1  0.64298550  0.52883231  0.99656294  1
  H+  H217  1  0.39644783  0.53176108  0.98362630  1
  H+  H218  1  1.02563135  0.64102240  0.82301659  1
  H+  H219  1  0.08475649  0.41149547  0.42637783  1
  H+  H220  1  0.62259800  0.66392104  -0.04096283  1
  H+  H221  1  0.55267322  0.62499480  0.45299318  1
  H+  H222  1  0.29858063  0.92344807  0.86372506  1
  H+  H223  1  0.15731035  0.52971039  0.47300959  1
  H+  H224  1  0.89540624  0.28313436  0.50868113  1
  H+  H225  1  0.32577344  0.11606496  0.80159736  1
  H+  H226  1  0.59214299  0.45751298  0.82868304  1
  H+  H227  1  0.58200766  0.00695329  0.68934514  1
  H+  H228  1  0.52214586  0.38615947  0.33620418  1
  H+  H229  1  0.71005419  0.35574544  0.16656061  1
  H+  H230  1  0.21810742  0.60984960  0.31962041  1
  H+  H231  1  0.45718706  0.85159403  0.32845636  1
  H+  H232  1  0.58179435  0.41425779  0.39674435  1
  H+  H233  1  0.98193492  0.36610033  0.31462039  1
  H+  H234  1  0.59879499  0.89459829  0.35108188  1
  H+  H235  1  0.72775254  0.36887964  0.66428521  1
  H+  H236  1  0.90400865  0.86632627  0.51291839  1
  H+  H237  1  0.47616202  0.12147135  0.66191884  1
  H+  H238  1  0.67155459  0.33423773  0.90049031  1
  H+  H239  1  0.61288083  0.38854322  0.48882513  1
  H+  H240  1  0.10027141  0.21909870  0.16694434  1
  H+  H241  1  0.47559700  0.86181469  0.83946360  1
  H+  H242  1  0.22164882  0.86236795  0.32634369  1
  H+  H243  1  0.13781685  0.11312448  0.49488968  1
  H+  H244  1  0.36307098  0.70876902  0.66570135  1
  H+  H245  1  0.51389761  0.88723709  0.00655134  1
  H+  H246  1  0.64487817  0.80024395  0.98223407  1
  H+  H247  1  0.54964423  0.70041690  0.20168831  1
  H+  H248  1  0.51806064  0.38546256  0.67224922  1
  H+  H249  1  0.90166742  0.76951310  0.17894183  1
  H+  H250  1  0.77778142  0.17936495  0.67023603  1
  H+  H251  1  0.52393006  0.51773105  0.39342994  1
  H+  H252  1  0.78186425  0.89637435  0.03085813  1
  H+  H253  1  0.92423263  0.08775982  0.26418722  1
  H+  H254  1  0.58429074  0.87420743  0.15717841  1
  H+  H255  1  0.22834868  0.11472143  0.49025617  1
  H+  H256  1  0.38370427  0.29665329  0.65738110  1
  H+  H257  1  0.64168709  0.36046782  0.83937977  1
  H+  H258  1  0.36280828  0.73227873  0.82021149  1
  H+  H259  1  0.35447742  -0.02633504  0.33918372  1
  H+  H260  1  0.88960822  0.28628832  0.29691902  1
  H+  H261  1  0.63169709  0.27166606  0.66824444  1
  H+  H262  1  0.50527059  0.91113909  0.50072348  1
  H+  H263  1  0.76837124  0.13257541  0.00133250  1
  H+  H264  1  0.62808382  0.36653196  0.66617518  1
  H+  H265  1  0.62200817  0.59567345  0.51981458  1
  H+  H266  1  0.88504966  0.36023668  -0.00492469  1
  H+  H267  1  0.20990922  0.85363966  0.80538987  1
  H+  H268  1  0.36553388  0.74546475  0.17090404  1
  H+  H269  1  0.90528646  0.84949072  0.33257804  1
  H+  H270  1  0.14740138  0.28051347  0.32953994  1
  H+  H271  1  0.60376158  0.01758111  0.31612884  1
  H+  H272  1  0.12427192  0.83526191  -0.02310415  1
  H+  H273  1  0.47288752  0.58294138  0.65880291  1
  H+  H274  1  0.80842019  0.62529889  0.75851201  1
  H+  H275  1  0.39268200  0.87355263  0.84569321  1
  H+  H276  1  0.96539364  0.84697613  0.95502070  1
  H+  H277  1  0.85755769  0.36766194  0.81454175  1
  H+  H278  1  0.89157035  0.10886862  0.52485430  1
  H+  H279  1  0.63469187  0.74483535  0.51853001  1
  H+  H280  1  0.37596464  0.28976071  0.16986461  1
  H+  H281  1  0.59823583  0.48032587  0.15819417  1
  H+  H282  1  0.61500539  0.13341668  0.82393179  1
  H+  H283  1  0.02535378  0.14477297  0.00967295  1
  H+  H284  1  0.64734191  0.83528021  0.50991596  1
  H+  H285  1  0.36882114  0.39685859  0.33704518  1
  H+  H286  1  0.59872160  0.92077119  0.49670073  1
  H+  H287  1  0.64178962  0.51649623  0.32261474  1
  H+  H288  1  0.17604383  0.60252384  0.88782598  1
  H+  H289  1  0.39479667  0.06804090  0.26391543  1
  H+  H290  1  0.59182802  0.18977924  0.41195870  1
  H+  H291  1  0.08354444  0.42452102  0.72295087  1
  H+  H292  1  0.91466290  0.07859465  0.61845606  1
  H+  H293  1  0.69616556  0.89127385  0.95118870  1
  H+  H294  1  0.92754305  0.59828447  0.90352723  1
  H+  H295  1  0.22422348  0.71083502  0.95001262  1
  H+  H296  1  0.55263046  0.90865933  0.09537827  1
  H+  H297  1  0.16198129  0.07749352  0.23562753  1
  H+  H298  1  0.12021288  0.63740021  0.47535948  1
  H+  H299  1  0.57837670  0.17177175  0.06597675  1
  H+  H300  1  0.56288890  0.92928273  0.40306857  1
  H+  H301  1  0.15396640  0.80923238  0.91700877  1
  H+  H302  1  0.33859812  0.54064803  0.21641134  1
  H+  H303  1  0.23291036  0.11698856  0.32883262  1
  H+  H304  1  0.63335474  0.68152239  0.08564591  1
  H+  H305  1  0.91849806  0.23172693  0.72008583  1
  H+  H306  1  0.40143467  0.08642896  0.56798230  1
  H+  H307  1  0.92560620  0.82065165  0.26438061  1
  H+  H308  1  0.22477625  0.60920488  0.65024172  1
  H+  H309  1  0.42311024  0.09416970  0.94134439  1
  H+  H310  1  0.84188093  0.21931792  0.12370210  1
  H+  H311  1  0.31984130  0.16437365  0.06355950  1
  H+  H312  1  0.65012353  0.07641775  0.93087079  1
  H+  H313  1  0.70108343  0.09641471  0.64532397  1
  H+  H314  1  0.96210541  0.36671254  0.21351825  1
  H+  H315  1  0.55871510  0.87488674  0.76698792  1
  H+  H316  1  0.62637551  0.22944230  0.82792375  1
  H+  H317  1  0.43868367  0.17440528  0.86593114  1
  H+  H318  1  0.23306951  0.61423435  0.50291915  1
  H+  H319  1  0.34236291  0.92546845  0.73845030  1
  H+  H320  1  0.64055369  0.84487600  0.22540903  1
  H+  H321  1  0.33439592  0.65494966  0.72586863  1
  H+  H322  1  0.99167896  0.05916050  0.26629769  1
  H+  H323  1  0.07932953  0.66704825  0.39318811  1
  H+  H324  1  0.42610082  0.29166900  0.90242674  1
  H+  H325  1  0.83597298  0.41243866  0.39293525  1
  H+  H326  1  0.33453835  0.90433620  0.09663742  1
  H+  H327  1  0.45965494  0.62108691  0.28648822  1
  H+  H328  1  0.42140895  0.34588973  0.56399388  1
  H+  H329  1  0.41660560  0.34231589  0.26533148  1
  H+  H330  1  0.06628041  0.39643422  0.11883131  1
  H+  H331  1  0.60751402  0.39502887  0.15731175  1
  H+  H332  1  0.71113552  0.09472113  0.83666140  1
  H+  H333  1  0.82621749  0.89386272  0.77947876  1
  H+  H334  1  0.78658207  0.20799636  0.36935331  1
  H+  H335  1  0.65809704  0.58072423  0.89766012  1
  H+  H336  1  0.33556539  0.42202282  0.05115478  1
  H+  H337  1  0.82175806  0.40452333  0.72800062  1
  H+  H338  1  0.64642639  0.78003431  0.88910355  1
  H+  H339  1  0.50340823  0.76973308  0.72497064  1
  H+  H340  1  0.66543235  0.33464928  0.55730463  1
  H+  H341  1  0.32856760  0.91643340  0.43613369  1
  H+  H342  1  0.09219910  0.17558975  0.40523247  1
  H+  H343  1  0.91467214  0.57931119  0.59719345  1
  H+  H344  1  0.17086842  0.82235758  0.56513854  1
  H+  H345  1  0.65457333  0.81124851  0.61566260  1
  H+  H346  1  0.58578187  0.65013448  0.08259195  1
  H+  H347  1  0.59473256  0.18086931  0.73496928  1
  H+  H348  1  0.81832149  0.92836289  0.12297473  1
  H+  H349  1  0.63866302  0.36903791  0.32314890  1
  H+  H350  1  0.87047536  0.14612833  0.18731010  1
  H+  H351  1  0.84311360  0.15707995  0.45607375  1
  H+  H352  1  0.33844536  0.17602478  0.39655114  1
  H+  H353  1  0.39703311  0.80768112  0.23267139  1
  H+  H354  1  0.65674593  0.58247831  0.26814800  1
  H+  H355  1  0.82665117  0.99699251  0.17287321  1
  H+  H356  1  0.82541944  0.40505170  0.06406936  1
  H+  H357  1  0.41891998  0.83935136  0.61370605  1
  H+  H358  1  0.41936495  0.83002484  0.93222212  1
  H+  H359  1  0.25785058  0.14399723  0.16429550  1
  H+  H360  1  0.41896436  0.59563400  0.89403530  1
  H+  H361  1  0.65675701  0.33754554  0.22765170  1
  H+  H362  1  0.15838761  0.58037375  0.26050514  1
  H+  H363  1  0.09338726  0.92087516  0.42351247  1
  H+  H364  1  0.93311890  0.83780435  0.57234113  1
  H+  H365  1  0.09653278  0.94219032  -0.00496900  1
  H+  H366  1  0.07812681  0.65813062  0.75780332  1
  H+  H367  1  0.34765573  0.43605371  0.43357265  1
  H+  H368  1  0.57381828  0.40491710  0.73484467  1
  H+  H369  1  0.18301803  0.34827329  0.56473739  1
  H+  H370  1  0.58405742  0.42301720  0.06010800  1
  H+  H371  1  0.07693167  0.17459543  0.07092276  1
  H+  H372  1  0.91076656  0.06916692  0.94147574  1
  H+  H373  1  0.84849183  0.66451262  0.10436922  1
  H+  H374  1  0.84972287  0.96577067  0.68627437  1
  H+  H375  1  0.64469272  0.08185222  0.21354391  1
  H+  H376  1  0.66097880  0.12070647  0.55620993  1
  H+  H377  1  0.36910528  0.76350629  0.33445921  1
  H+  H378  1  0.31521866  0.17228306  0.75047031  1
  H+  H379  1  0.07954618  0.66071110  0.06452083  1
  H+  H380  1  0.82623057  0.15296814  0.77021018  1
  H+  H381  1  0.07009792  0.16569214  0.77311185  1
  H+  H382  1  0.33148586  0.66399109  0.06498048  1
  H+  H383  1  0.37870057  0.69721964  0.45309865  1
  O2-  O384  1  0.05803783  0.15747012  0.15504394  1
  O2-  O385  1  0.08967814  0.17652407  0.48238228  1
  O2-  O386  1  0.06137097  0.15513704  0.81802686  1
  O2-  O387  1  0.06394205  0.40863451  0.16310558  1
  O2-  O388  1  0.09302790  0.42060343  0.47136658  1
  O2-  O389  1  0.08414858  0.43053384  0.80141555  1
  O2-  O390  1  0.08127216  0.66292245  0.14215093  1
  O2-  O391  1  0.08292318  0.66301369  0.47007894  1
  O2-  O392  1  0.08436867  0.66450147  0.80347001  1
  O2-  O393  1  0.08637137  0.91723459  0.14295801  1
  O2-  O394  1  0.09154978  0.92194765  0.47701518  1
  O2-  O395  1  0.07101136  0.91131232  0.81707696  1
  O2-  O396  1  0.31790960  0.18118659  0.14665782  1
  O2-  O397  1  0.33422807  0.17437653  0.47247302  1
  O2-  O398  1  0.30743666  0.15836111  0.79618616  1
  O2-  O399  1  0.32608426  0.41617278  0.12689523  1
  O2-  O400  1  0.35442617  0.44214334  0.47867129  1
  O2-  O401  1  0.41329905  0.44608647  0.78738381  1
  O2-  O402  1  0.31858109  0.65848060  0.13916519  1
  O2-  O403  1  0.38310615  0.70011627  0.49767048  1
  O2-  O404  1  0.33672504  0.67206856  0.80481592  1
  O2-  O405  1  0.32612974  0.89733804  0.14297447  1
  O2-  O406  1  0.32897964  0.91688750  0.48142912  1
  O2-  O407  1  0.34598618  0.94614325  0.83454701  1
  O2-  O408  1  0.55983017  0.16896880  0.14162643  1
  O2-  O409  1  0.61028720  0.20304684  0.45511092  1
  O2-  O410  1  0.59154293  0.17086968  0.80922804  1
  O2-  O411  1  0.57575596  0.42279988  0.13961795  1
  O2-  O412  1  0.58161664  0.41782967  0.47314538  1
  O2-  O413  1  0.57842374  0.40137942  0.81111199  1
  O2-  O414  1  0.52025905  0.64144515  0.21719632  1
  O2-  O415  1  0.55697889  0.64086715  0.49740431  1
  O2-  O416  1  0.56961615  0.65305866  0.80763387  1
  O2-  O417  1  0.54649714  0.89919906  0.14241428  1
  O2-  O418  1  0.56651432  0.94598315  0.47935904  1
  O2-  O419  1  0.57087303  0.90107351  0.81269340  1
  O2-  O420  1  0.82794415  0.21222919  0.16705336  1
  O2-  O421  1  0.83814951  0.16633610  0.49909875  1
  O2-  O422  1  0.81573342  0.14236849  0.81573075  1
  O2-  O423  1  0.81648673  0.39345543  0.14368103  1
  O2-  O424  1  0.83891609  0.41808437  0.47191687  1
  O2-  O425  1  0.82845822  0.39786790  0.80028182  1
  O2-  O426  1  0.85013932  0.65911825  0.15004623  1
  O2-  O427  1  0.83798233  0.66255883  0.49354448  1
  O2-  O428  1  0.79113340  0.59542071  0.79961219  1
  O2-  O429  1  0.79897281  0.93388502  0.16564566  1
  O2-  O430  1  0.84840382  0.91675543  0.48835619  1
  O2-  O431  1  0.82155868  0.89119167  0.82479922  1
  O2-  O432  1  0.16095451  0.08102119  0.19037331  1
  O2-  O433  1  0.16565279  0.07761778  0.49940856  1
  O2-  O434  1  0.15113513  0.07705038  0.85299908  1
  O2-  O435  1  0.16756595  0.31798091  0.18417224  1
  O2-  O436  1  0.18483318  0.34647440  0.51911134  1
  O2-  O437  1  0.08461843  0.30203313  0.87039308  1
  O2-  O438  1  0.15719083  0.57841816  0.18587451  1
  O2-  O439  1  0.19520427  0.59351642  0.46745363  1
  O2-  O440  1  0.17151918  0.59194985  0.84322866  1
  O2-  O441  1  0.16193579  0.82840882  0.18381029  1
  O2-  O442  1  0.16673438  0.82317153  0.51849751  1
  O2-  O443  1  0.16173102  0.82528974  0.83356633  1
  O2-  O444  1  0.39157529  0.05227980  0.18326249  1
  O2-  O445  1  0.39933250  0.08684268  0.52308075  1
  O2-  O446  1  0.43874186  0.11868662  0.86318314  1
  O2-  O447  1  0.41353056  0.34808917  0.18696557  1
  O2-  O448  1  0.42154383  0.34216248  0.51844550  1
  O2-  O449  1  0.44019189  0.27179642  0.86367634  1
  O2-  O450  1  0.37187148  0.56312292  0.17913272  1
  O2-  O451  1  0.46804096  0.60894950  0.51817549  1
  O2-  O452  1  0.42352338  0.59862782  0.84840617  1
  O2-  O453  1  0.39827848  0.80782796  0.18734553  1
  O2-  O454  1  0.42290578  0.85878101  0.53054391  1
  O2-  O455  1  0.41407869  0.83390750  0.85557160  1
  O2-  O456  1  0.66172253  0.10023062  0.17108800  1
  O2-  O457  1  0.66995393  0.10805677  0.51440600  1
  O2-  O458  1  0.64957159  0.06847492  0.85001956  1
  O2-  O459  1  0.65065557  0.33501929  0.18220981  1
  O2-  O460  1  0.67284028  0.34587177  0.51347516  1
  O2-  O461  1  0.67327740  0.33170401  0.85482547  1
  O2-  O462  1  0.62263990  0.58353027  0.19403074  1
  O2-  O463  1  0.66027107  0.57226645  0.52860287  1
  O2-  O464  1  0.64735239  0.57349961  0.85372360  1
  O2-  O465  1  0.63448786  0.83473865  0.18139296  1
  O2-  O466  1  0.67438317  0.80633069  0.52934867  1
  O2-  O467  1  0.65737866  0.80754378  0.84882199  1
  O2-  O468  1  0.89191379  0.10520051  0.19602983  1
  O2-  O469  1  0.92647281  0.08250011  0.53615089  1
  O2-  O470  1  0.89823208  0.05736981  0.85897009  1
  O2-  O471  1  0.97284044  0.38281700  0.16962488  1
  O2-  O472  1  0.92641537  0.34500907  0.51901751  1
  O2-  O473  1  0.93203819  0.30527627  0.86279967  1
  O2-  O474  1  0.91839866  0.55846105  0.18393630  1
  O2-  O475  1  0.91779320  0.57710803  0.51989220  1
  O2-  O476  1  0.94149044  0.61818274  0.86077783  1
  O2-  O477  1  0.92753041  0.82767106  0.19678053  1
  O2-  O478  1  0.93677652  0.83811573  0.52660937  1
  O2-  O479  1  0.93043342  0.83359418  0.88690765  1
  O2-  O480  1  0.17042822  0.08259241  0.31697922  1
  O2-  O481  1  0.17188641  0.09864817  0.65322879  1
  O2-  O482  1  0.16054203  0.03181185  0.97028546  1
  O2-  O483  1  0.17281526  0.33936363  0.31182061  1
  O2-  O484  1  0.18133206  0.34844999  0.64348196  1
  O2-  O485  1  0.15750171  0.33550080  0.98255800  1
  O2-  O486  1  0.15771924  0.57947535  0.30657308  1
  O2-  O487  1  0.16566191  0.58503661  0.63459149  1
  O2-  O488  1  0.20034335  0.65024939  0.96056064  1
  O2-  O489  1  0.16158296  0.83577070  0.31001775  1
  O2-  O490  1  0.17876956  0.82124143  0.63523829  1
  O2-  O491  1  0.15212216  0.80333012  0.96160357  1
  O2-  O492  1  0.39868953  0.07535004  0.30877854  1
  O2-  O493  1  0.41476104  0.09206214  0.65141477  1
  O2-  O494  1  0.41748998  0.08829620  0.98634278  1
  O2-  O495  1  0.41914803  0.34201036  0.31083867  1
  O2-  O496  1  0.42354829  0.35599776  0.64182421  1
  O2-  O497  1  0.41420608  0.32584819  0.97291668  1
  O2-  O498  1  0.43054154  0.60066722  0.32667005  1
  O2-  O499  1  0.40015990  0.54421146  0.64669179  1
  O2-  O500  1  0.42480946  0.59327756  0.96944707  1
  O2-  O501  1  0.39742399  0.81925132  0.31274694  1
  O2-  O502  1  0.40828705  0.82370642  0.65716428  1
  O2-  O503  1  0.42207810  0.83204864  0.97785644  1
  O2-  O504  1  0.62819164  0.07342926  0.29457339  1
  O2-  O505  1  0.72189250  0.15807884  0.64657157  1
  O2-  O506  1  0.65449842  0.08433124  0.97592085  1
  O2-  O507  1  0.66632781  0.33826847  0.30416679  1
  O2-  O508  1  0.66168404  0.33641889  0.65064318  1
  O2-  O509  1  0.66471256  0.33711981  0.97738368  1
  O2-  O510  1  0.66970408  0.57931083  0.31188410  1
  O2-  O511  1  0.66207090  0.57439892  0.64909730  1
  O2-  O512  1  0.67390507  0.59360553  0.98918962  1
  O2-  O513  1  0.74593697  0.87524217  0.28245559  1
  O2-  O514  1  0.65000210  0.80206408  0.65993218  1
  O2-  O515  1  0.67519628  0.86351562  0.99057416  1
  O2-  O516  1  0.95616675  0.07095957  0.29384688  1
  O2-  O517  1  0.91252270  0.07841772  0.66352547  1
  O2-  O518  1  0.91623653  0.07777087  0.98620791  1
  O2-  O519  1  0.92677829  0.34859849  0.29205820  1
  O2-  O520  1  0.91267859  0.34181181  0.64184642  1
  O2-  O521  1  0.91593395  0.32983908  0.98117505  1
  O2-  O522  1  0.91695331  0.57554350  0.30526332  1
  O2-  O523  1  0.91285415  0.58158103  0.64286009  1
  O2-  O524  1  0.91159890  0.57135776  0.98185276  1
  O2-  O525  1  0.92110061  0.81028127  0.31133202  1
  O2-  O526  1  0.91446748  0.83291034  0.64799829  1
  O2-  O527  1  0.97246172  0.84406535  1.00135344  1
  O2-  O528  1  0.08426196  0.18092779  0.02628533  1
  O2-  O529  1  0.09906415  0.17642262  0.35984257  1
  O2-  O530  1  0.08199558  0.17751490  0.69626538  1
  O2-  O531  1  0.07567502  0.40006450  0.04003122  1
  O2-  O532  1  0.07905974  0.41033958  0.34766509  1
  O2-  O533  1  0.08380157  0.41967492  0.67771422  1
  O2-  O534  1  0.07457565  0.65317049  0.01926768  1
  O2-  O535  1  0.07856559  0.66780753  0.34741003  1
  O2-  O536  1  0.08269240  0.65835431  0.68339540  1
  O2-  O537  1  0.06491425  0.88090034  0.01422928  1
  O2-  O538  1  0.09836118  0.92496706  0.36671826  1
  O2-  O539  1  0.08476855  0.93608446  0.69270902  1
  O2-  O540  1  0.32371849  0.16232028  0.01884116  1
  O2-  O541  1  0.33624301  0.17629302  0.35062855  1
  O2-  O542  1  0.33012175  0.18871911  0.68041599  1
  O2-  O543  1  0.33744800  0.42575010  0.00530561  1
  O2-  O544  1  0.33948223  0.42731435  0.35395164  1
  O2-  O545  1  0.35670142  0.45658038  0.67414303  1
  O2-  O546  1  0.34141833  0.66944761  0.01944863  1
  O2-  O547  1  0.32248305  0.65818705  0.37292023  1
  O2-  O548  1  0.33708400  0.64843129  0.68099343  1
  O2-  O549  1  0.34707708  0.92091937  0.02696273  1
  O2-  O550  1  0.32393640  0.91364626  0.35583398  1
  O2-  O551  1  0.34410158  0.92369703  0.69400769  1
  O2-  O552  1  0.58199185  0.17441503  0.02051319  1
  O2-  O553  1  0.56499995  0.17180554  0.33605168  1
  O2-  O554  1  0.59804454  0.18675073  0.68898858  1
  O2-  O555  1  0.58754480  0.42587105  0.01474457  1
  O2-  O556  1  0.58333607  0.41659611  0.35090641  1
  O2-  O557  1  0.57820386  0.40736411  0.68911549  1
  O2-  O558  1  0.59533102  0.69896127  -0.04711151  1
  O2-  O559  1  0.55222498  0.57956141  0.38611594  1
  O2-  O560  1  0.55213951  0.62984618  0.67074749  1
  O2-  O561  1  0.57082608  0.92238120  0.02888712  1
  O2-  O562  1  0.56254649  0.92000569  0.35786571  1
  O2-  O563  1  0.53696496  0.82897604  0.71081152  1
  O2-  O564  1  0.82755073  0.15919070  0.01760317  1
  O2-  O565  1  0.79504765  0.18266435  0.33256610  1
  O2-  O566  1  0.86551556  0.18991205  0.70010789  1
  O2-  O567  1  0.82702683  0.40723258  0.01876274  1
  O2-  O568  1  0.83204552  0.41242173  0.34746061  1
  O2-  O569  1  0.81660162  0.40751094  0.68198757  1
  O2-  O570  1  0.85618861  0.67778109  0.02971352  1
  O2-  O571  1  0.83852307  0.66027030  0.33905906  1
  O2-  O572  1  0.82899090  0.66124518  0.68814498  1
  O2-  O573  1  0.83766850  0.92354025  0.05165296  1
  O2-  O574  1  0.87542748  0.92089618  0.36464504  1
  O2-  O575  1  0.82320625  0.90429115  0.69876610  1
