# generated using pymatgen
data_H2O
_symmetry_space_group_name_H-M   'P 1'
_cell_length_a   17.99501634
_cell_length_b   17.99824298
_cell_length_c   22.00215067
_cell_angle_alpha   89.99690693
_cell_angle_beta   89.97511744
_cell_angle_gamma   120.00696464
_symmetry_Int_Tables_number   1
_chemical_formula_structural   H2O
_chemical_formula_sum   'H384 O192'
_cell_volume   6170.88675631
_cell_formula_units_Z   192
loop_
 _symmetry_equiv_pos_site_id
 _symmetry_equiv_pos_as_xyz
  1  'x, y, z'
loop_
 _atom_type_symbol
 _atom_type_oxidation_number
  H+  1.0
  O2-  -2.0
loop_
 _atom_site_type_symbol
 _atom_site_label
 _atom_site_symmetry_multiplicity
 _atom_site_fract_x
 _atom_site_fract_y
 _atom_site_fract_z
 _atom_site_occupancy
  H+  H0  1  0.37864517  0.61653538  0.82309028  1
  H+  H1  1  0.11821525  0.63138488  0.01355952  1
  H+  H2  1  0.77562601  0.86132099  0.33023994  1
  H+  H3  1  0.52493130  0.88723732  0.50413291  1
  H+  H4  1  0.10087081  0.45067775  0.77426295  1
  H+  H5  1  0.13687335  0.91438309  0.49866541  1
  H+  H6  1  0.07624892  0.64763101  0.11052833  1
  H+  H7  1  0.83476388  0.16302008  0.74189421  1
  H+  H8  1  0.14067452  0.03101473  0.64181206  1
  H+  H9  1  0.89622585  0.87093109  0.66393275  1
  H+  H10  1  0.27453113  0.88204916  0.33628460  1
  H+  H11  1  0.96290094  0.35084862  1.01853643  1
  H+  H12  1  0.85944032  -0.03187936  0.46763539  1
  H+  H13  1  0.02772031  0.38399049  0.49293780  1
  H+  H14  1  0.47780871  0.36899745  0.50607371  1
  H+  H15  1  0.38134538  0.02241297  0.32397652  1
  H+  H16  1  0.84749333  0.37475077  0.34047247  1
  H+  H17  1  0.32156135  0.91264409  -0.03711106  1
  H+  H18  1  0.79494908  0.39222547  0.84504749  1
  H+  H19  1  0.02658304  0.88955251  0.66531742  1
  H+  H20  1  0.20983693  0.98934326  0.37332534  1
  H+  H21  1  0.11107364  0.71701580  1.01803187  1
  H+  H22  1  0.87386811  0.59812572  0.49888443  1
  H+  H23  1  0.36359356  0.39093395  0.16272856  1
  H+  H24  1  0.23314499  0.61422905  0.00085415  1
  H+  H25  1  0.63415360  0.60844565  0.50824201  1
  H+  H26  1  0.11995749  0.47181433  0.49536086  1
  H+  H27  1  0.87979233  0.66300610  0.34990530  1
  H+  H28  1  0.27785661  0.38897242  0.67192192  1
  H+  H29  1  0.63293572  0.27354788  0.17373080  1
  H+  H30  1  0.12176289  0.69418511  0.79019391  1
  H+  H31  1  0.14384919  0.52091222  -0.00212763  1
  H+  H32  1  0.24189556  0.87087198  0.85599071  1
  H+  H33  1  1.01425665  0.89757914  0.16734339  1
  H+  H34  1  0.26570411  0.65086686  0.48957494  1
  H+  H35  1  0.93094528  0.09992205  0.22718321  1
  H+  H36  1  0.91889754  0.56578086  0.25687015  1
  H+  H37  1  0.39089898  0.52619377  0.66454967  1
  H+  H38  1  0.15325809  0.54066778  0.84638459  1
  H+  H39  1  0.61138282  0.39776782  0.33798367  1
  H+  H40  1  0.17856427  0.34439580  0.90129965  1
  H+  H41  1  0.13367838  0.02636813  0.16640077  1
  H+  H42  1  0.47496189  0.36865902  0.17743305  1
  H+  H43  1  0.02823313  0.13367956  0.00894680  1
  H+  H44  1  0.09945892  0.88552346  1.01554205  1
  H+  H45  1  0.78370353  0.62615264  0.02955882  1
  H+  H46  1  0.40310424  0.87940598  0.50902480  1
  H+  H47  1  0.63062258  0.72810279  1.02380660  1
  H+  H48  1  0.39341023  0.77748256  0.36149948  1
  H+  H49  1  0.84836577  0.09071709  0.85708686  1
  H+  H50  1  0.76683017  0.12811373  0.00650588  1
  H+  H51  1  0.34490183  1.00226554  0.13864438  1
  H+  H52  1  0.63681515  0.02250438  0.17668040  1
  H+  H53  1  0.56650645  0.85841504  0.83649697  1
  H+  H54  1  0.63711016  0.48879353  0.99928305  1
  H+  H55  1  0.61119928  0.38693427  0.16119628  1
  H+  H56  1  0.61715479  0.98722624  0.01651891  1
  H+  H57  1  0.40107855  0.52456841  0.30915930  1
  H+  H58  1  0.90589811  0.36075012  0.85702661  1
  H+  H59  1  0.12774219  0.14208303  0.83647724  1
  H+  H60  1  0.29641989  0.55111594  0.37561158  1
  H+  H61  1  0.36650030  0.38869912  0.48964488  1
  H+  H62  1  0.72105291  0.36362309  0.16977805  1
  H+  H63  1  0.39252895  0.27663880  0.51665695  1
  H+  H64  1  0.74376615  0.87492471  0.49254410  1
  H+  H65  1  0.15157191  0.86936899  0.32618569  1
  H+  H66  1  0.87641903  0.63492291  1.02309106  1
  H+  H67  1  0.59900074  0.38019906  0.67145957  1
  H+  H68  1  0.39048353  0.74318417  0.19262938  1
  H+  H69  1  0.56508067  0.12986884  0.63554023  1
  H+  H70  1  0.40540905  0.12177735  0.98894710  1
  H+  H71  1  0.41882617  0.78204259  0.83073801  1
  H+  H72  1  -0.01145377  0.85385293  0.50880378  1
  H+  H73  1  0.77808461  0.13329049  0.48088681  1
  H+  H74  1  0.97908447  0.60948152  1.01161939  1
  H+  H75  1  0.96795130  0.85929460  0.99876520  1
  H+  H76  1  0.95837313  0.51826263  0.29172914  1
  H+  H77  1  0.86995194  -0.01788578  0.67630048  1
  H+  H78  1  0.02362536  0.43536816  0.70129153  1
  H+  H79  1  0.62365946  0.51769496  0.32993252  1
  H+  H80  1  0.36273403  0.09164468  0.66333140  1
  H+  H81  1  0.14332723  0.12491719  0.49345755  1
  H+  H82  1  0.73486318  0.86570955  0.65382378  1
  H+  H83  1  0.05257574  0.40917245  0.83710585  1
  H+  H84  1  0.21244893  0.88641684  0.15757436  1
  H+  H85  1  0.37775303  0.11049926  0.31892764  1
  H+  H86  1  0.11434744  0.98677430  0.48943903  1
  H+  H87  1  0.87981700  0.31876133  0.71772625  1
  H+  H88  1  0.77303521  0.63320500  0.82044028  1
  H+  H89  1  0.38046122  0.72926804  1.00680932  1
  H+  H90  1  0.70536881  0.64175752  0.97109047  1
  H+  H91  1  0.62971739  0.65079559  0.17340130  1
  H+  H92  1  0.12018969  0.88305429  0.85536443  1
  H+  H93  1  0.36687244  0.39242635  0.82358540  1
  H+  H94  1  0.93307098  0.82975599  0.56965007  1
  H+  H95  1  0.47892077  0.61597306  0.66285758  1
  H+  H96  1  0.48846813  0.11619845  0.82430751  1
  H+  H97  1  0.26581079  0.31155878  0.02849075  1
  H+  H98  1  0.86060925  0.64489792  0.66342598  1
  H+  H99  1  0.85945481  0.13154692  1.01099408  1
  H+  H100  1  0.39270520  0.12439903  0.17428784  1
  H+  H101  1  1.03610630  0.14518260  0.68865265  1
  H+  H102  1  0.88270973  0.48091427  0.83745824  1
  H+  H103  1  0.42727045  0.58795047  0.20699452  1
  H+  H104  1  0.36406727  0.22611218  0.82648887  1
  H+  H105  1  0.90355281  0.03023656  1.00422234  1
  H+  H106  1  0.20742946  0.86120619  1.02030822  1
  H+  H107  1  0.60837783  0.95469677  0.66872404  1
  H+  H108  1  0.89890611  0.82199324  0.90709931  1
  H+  H109  1  0.36437224  0.47967504  0.14827950  1
  H+  H110  1  0.36587120  0.88822204  0.34448651  1
  H+  H111  1  0.13738603  0.61208980  0.32285001  1
  H+  H112  1  0.37056399  0.85797462  0.12182467  1
  H+  H113  1  0.61308547  0.97833002  0.50670284  1
  H+  H114  1  0.23314808  0.60622581  0.17603245  1
  H+  H115  1  0.37409150  0.22275379  1.00479479  1
  H+  H116  1  0.27660168  0.39904774  0.33703521  1
  H+  H117  1  0.75827443  0.37122705  0.49792491  1
  H+  H118  1  0.13122461  0.58854925  0.51186150  1
  H+  H119  1  0.87659143  0.26096216  1.00811889  1
  H+  H120  1  0.86354801  0.88783945  0.00830662  1
  H+  H121  1  0.10358316  0.61463893  0.16860535  1
  H+  H122  1  0.69614224  0.35949776  0.65280100  1
  H+  H123  1  0.84950800  0.46277071  0.34376524  1
  H+  H124  1  0.36027259  0.22613781  0.33173884  1
  H+  H125  1  0.39131932  0.62042849  0.97544338  1
  H+  H126  1  0.39303090  0.35136698  0.99626551  1
  H+  H127  1  0.35836751  0.22704399  0.66944736  1
  H+  H128  1  0.76694001  0.13747790  0.83213236  1
  H+  H129  1  0.61005657  0.26292722  0.65357783  1
  H+  H130  1  0.37037251  0.14056769  0.82345574  1
  H+  H131  1  0.35372109  0.96285288  0.68344676  1
  H+  H132  1  0.47425689  0.37075015  0.32960412  1
  H+  H133  1  0.88339798  0.87390944  0.17899967  1
  H+  H134  1  0.59517423  0.17226454  0.07277721  1
  H+  H135  1  0.10394894  0.47295970  0.34013368  1
  H+  H136  1  0.89430398  0.26967433  0.49654058  1
  H+  H137  1  0.02412333  0.13832421  0.15634962  1
  H+  H138  1  0.44285441  0.10351295  0.92718363  1
  H+  H139  1  0.52086887  0.63409252  0.81525306  1
  H+  H140  1  0.64954055  0.87690437  0.18167197  1
  H+  H141  1  0.61781973  0.72575763  0.33459054  1
  H+  H142  1  0.39227701  0.52613701  0.50719907  1
  H+  H143  1  0.10912853  0.38388594  0.14804685  1
  H+  H144  1  0.42588339  0.10345581  0.43644523  1
  H+  H145  1  0.88234976  0.76767775  0.00326336  1
  H+  H146  1  0.61676114  0.72724392  -0.00854607  1
  H+  H147  1  0.61570866  0.39185994  0.82609552  1
  H+  H148  1  0.62546698  0.26681872  0.50225659  1
  H+  H149  1  0.44307189  0.83365118  0.93368228  1
  H+  H150  1  0.12095964  0.14039722  0.67571355  1
  H+  H151  1  0.58724300  0.67043501  0.75979968  1
  H+  H152  1  0.64041737  0.85728583  0.64916880  1
  H+  H153  1  0.88331695  0.38933046  0.76322823  1
  H+  H154  1  0.72632260  0.11180623  0.17544892  1
  H+  H155  1  0.41013646  0.86935382  0.98707925  1
  H+  H156  1  0.64587804  0.28784895  0.86310390  1
  H+  H157  1  0.33722165  0.42627053  0.39695440  1
  H+  H158  1  0.61589259  0.00748272  0.84544694  1
  H+  H159  1  0.84384484  0.72633266  0.35236763  1
  H+  H160  1  0.97083948  0.36542351  0.32547890  1
  H+  H161  1  0.79109547  0.91491740  0.99874626  1
  H+  H162  1  0.33035024  0.83627585  0.14108006  1
  H+  H163  1  0.64124687  0.12322057  1.00043334  1
  H+  H164  1  0.67214732  0.92024242  0.98076573  1
  H+  H165  1  0.28750929  0.65082503  0.82684009  1
  H+  H166  1  0.70578862  0.85782189  0.82947240  1
  H+  H167  1  0.10279462  0.17355685  0.77542538  1
  H+  H168  1  0.45089473  0.57210783  -0.02702863  1
  H+  H169  1  0.88335351  0.10561956  0.48209601  1
  H+  H170  1  0.51862442  0.13361497  0.48485495  1
  H+  H171  1  0.39205160  0.62004328  0.15374654  1
  H+  H172  1  0.13861160  0.27678303  0.16950330  1
  H+  H173  1  0.53507275  0.88225506  0.35519704  1
  H+  H174  1  0.38538649  0.37075057  0.32822825  1
  H+  H175  1  0.14502587  0.02451986  0.85386177  1
  H+  H176  1  0.23523753  0.11247028  0.84756963  1
  H+  H177  1  0.27782278  0.38940288  0.48954937  1
  H+  H178  1  0.72953902  0.18008198  0.54695018  1
  H+  H179  1  0.86799685  0.50355236  0.50120611  1
  H+  H180  1  0.84077202  -0.03796017  0.83225734  1
  H+  H181  1  0.85903031  0.72267177  0.82676898  1
  H+  H182  1  0.05542110  0.41187900  -0.02355486  1
  H+  H183  1  0.14159334  0.03449651  0.32284927  1
  H+  H184  1  0.62478290  0.61610247  0.32532646  1
  H+  H185  1  0.51791690  0.14375502  0.34024683  1
  H+  H186  1  0.26725503  0.92064223  0.51857781  1
  H+  H187  1  0.40094379  0.03069168  0.83700119  1
  H+  H188  1  0.73637318  0.61661233  0.18174353  1
  H+  H189  1  0.47587420  0.36323738  0.83596918  1
  H+  H190  1  -0.03444131  0.85671591  0.85394622  1
  H+  H191  1  0.36391847  0.23373644  0.16224554  1
  H+  H192  1  0.13725039  0.02237911  1.00258814  1
  H+  H193  1  0.56441893  0.56116687  0.99373352  1
  H+  H194  1  0.38063881  0.14437713  0.50437352  1
  H+  H195  1  0.12084532  0.49911957  0.67820962  1
  H+  H196  1  0.14419762  0.27835538  0.50157980  1
  H+  H197  1  0.48571629  0.35990292  -0.00818610  1
  H+  H198  1  0.35981776  0.87568221  0.68055154  1
  H+  H199  1  0.77161681  0.38587873  -0.01144596  1
  H+  H200  1  0.86818782  0.14380731  0.16137543  1
  H+  H201  1  0.86943736  0.64510819  0.17357340  1
  H+  H202  1  0.10218306  0.89339518  0.16113885  1
  H+  H203  1  0.22696799  0.12062646  0.65184730  1
  H+  H204  1  0.63804270  0.10217910  0.67430729  1
  H+  H205  1  0.02970952  0.14213862  0.47887522  1
  H+  H206  1  0.15437738  0.61706207  0.64497110  1
  H+  H207  1  0.89288729  0.77962455  0.66498936  1
  H+  H208  1  0.52060848  0.86557727  0.66516777  1
  H+  H209  1  0.26221155  0.62707293  0.66810660  1
  H+  H210  1  0.15443813  0.78104852  0.86148855  1
  H+  H211  1  0.13755281  0.77403639  0.32173171  1
  H+  H212  1  0.88427669  0.78502466  0.18612323  1
  H+  H213  1  0.47308739  0.36424013  0.66152628  1
  H+  H214  1  0.62214418  0.72878187  0.66612264  1
  H+  H215  1  0.98568311  0.61874509  0.83952435  1
  H+  H216  1  0.61078317  0.38728198  0.48895761  1
  H+  H217  1  0.22669869  0.11550547  0.16733336  1
  H+  H218  1  0.89736728  1.03670562  0.16850701  1
  H+  H219  1  0.39384268  0.60626064  0.30736508  1
  H+  H220  1  0.52543554  0.13855384  0.16519265  1
  H+  H221  1  0.02732374  0.63457778  0.33115741  1
  H+  H222  1  0.37656401  0.51963348  0.82603075  1
  H+  H223  1  0.14673434  0.26328189  0.84139318  1
  H+  H224  1  0.35836004  0.63448389  0.67609133  1
  H+  H225  1  0.14243972  0.51620153  0.16854372  1
  H+  H226  1  0.20210345  0.77928818  0.48597871  1
  H+  H227  1  0.45372564  0.09854739  0.66782255  1
  H+  H228  1  0.29029273  0.14379506  0.50713589  1
  H+  H229  1  0.52676108  0.63729198  0.32661900  1
  H+  H230  1  0.77738283  0.13195617  0.33310747  1
  H+  H231  1  0.66346265  0.57910759  0.60231235  1
  H+  H232  1  0.60061827  0.23595297  0.34048957  1
  H+  H233  1  0.72532082  0.61368807  0.66059212  1
  H+  H234  1  0.20616940  0.76460819  0.51727762  1
  H+  H235  1  0.15313021  0.27905980  0.66047172  1
  H+  H236  1  0.96314424  0.61350706  0.64236629  1
  H+  H237  1  0.82214751  0.41256399  0.09599122  1
  H+  H238  1  0.86917953  0.71725612  0.50520717  1
  H+  H239  1  0.63140562  0.52008857  0.82886375  1
  H+  H240  1  0.37962702  0.89134645  0.83183944  1
  H+  H241  1  0.61783534  0.63763766  0.67032973  1
  H+  H242  1  0.71590504  0.36581986  0.32608316  1
  H+  H243  1  0.26932305  0.14217723  0.32498245  1
  H+  H244  1  0.13794255  0.64845607  0.84645398  1
  H+  H245  1  0.82741921  0.48749920  0.65872243  1
  H+  H246  1  0.65292499  1.01510759  0.33063204  1
  H+  H247  1  0.61506084  0.13836213  0.16834325  1
  H+  H248  1  0.12056631  0.12915331  1.01222722  1
  H+  H249  1  0.64228042  0.13698721  0.50978103  1
  H+  H250  1  0.63408010  0.36803273  0.94741715  1
  H+  H251  1  0.86252107  0.22090891  0.83840599  1
  H+  H252  1  0.53929956  0.89115066  0.01150706  1
  H+  H253  1  0.86149235  0.22819242  0.33314112  1
  H+  H254  1  0.28490571  0.13418756  0.00986418  1
  H+  H255  1  0.14816118  0.39195491  0.98335010  1
  H+  H256  1  0.54429947  0.15292793  1.01017758  1
  H+  H257  1  0.13587816  0.37135220  0.32406383  1
  H+  H258  1  0.78236246  0.90337924  0.16421884  1
  H+  H259  1  0.77941194  0.13414504  0.68136334  1
  H+  H260  1  0.84838786  0.87766379  0.82845089  1
  H+  H261  1  0.64489009  0.52669494  0.17665617  1
  H+  H262  1  0.88632804  0.27861845  0.16966406  1
  H+  H263  1  0.88635506  0.35265211  0.50477858  1
  H+  H264  1  0.32519101  0.16811043  0.72900418  1
  H+  H265  1  -0.00089618  0.60214103  0.48443617  1
  H+  H266  1  0.23717878  0.36332718  0.83515534  1
  H+  H267  1  0.61538504  0.47917289  0.49379151  1
  H+  H268  1  0.33316734  0.66875155  0.75927494  1
  H+  H269  1  0.63248365  0.61105186  0.82797166  1
  H+  H270  1  0.14152373  0.85762421  0.66105366  1
  H+  H271  1  0.37831078  0.76127394  0.66170510  1
  H+  H272  1  0.89505278  0.61350178  0.83026656  1
  H+  H273  1  0.85815542  0.38768370  0.15454834  1
  H+  H274  1  0.12242394  0.24173953  0.33269836  1
  H+  H275  1  0.52513875  0.62875121  0.49594822  1
  H+  H276  1  0.72502850  0.60992017  0.51272147  1
  H+  H277  1  0.62377180  0.09546725  0.82770469  1
  H+  H278  1  0.58153779  0.91173558  0.11043800  1
  H+  H279  1  0.98739025  0.13053437  0.31580281  1
  H+  H280  1  0.64848196  0.87821447  0.50776077  1
  H+  H281  1  0.89359377  0.12518938  0.67539846  1
  H+  H282  1  0.65659924  0.79141141  0.18289787  1
  H+  H283  1  0.14285922  0.36584854  0.50456827  1
  H+  H284  1  0.11564476  0.13668076  0.15683875  1
  H+  H285  1  0.85320938  0.37808544  0.00590024  1
  H+  H286  1  0.52757858  0.87303199  0.17350034  1
  H+  H287  1  0.06846348  0.91965449  0.07186664  1
  H+  H288  1  0.58229241  0.65414564  0.43600850  1
  H+  H289  1  0.83572744  0.16281978  0.41910082  1
  H+  H290  1  0.16536015  0.84589774  0.22110613  1
  H+  H291  1  0.31938528  0.70669507  0.12753486  1
  H+  H292  1  0.34374775  0.92064006  0.44119044  1
  H+  H293  1  0.82912048  0.40889312  0.68838998  1
  H+  H294  1  0.06473618  0.63515266  0.70300936  1
  H+  H295  1  0.57183795  0.14286750  0.73359671  1
  H+  H296  1  0.08614310  0.16144711  0.07732098  1
  H+  H297  1  0.97297542  0.60337744  0.17311818  1
  H+  H298  1  0.90060376  0.58178130  0.58569864  1
  H+  H299  1  0.87702357  0.52189440  0.16867622  1
  H+  H300  1  0.19968905  0.87708285  0.57278293  1
  H+  H301  1  0.97494694  0.36743480  0.16448998  1
  H+  H302  1  0.16821038  0.09611771  0.55500000  1
  H+  H303  1  0.34246663  0.17381875  0.10274261  1
  H+  H304  1  0.64560761  0.32566303  0.56209781  1
  H+  H305  1  0.94526253  0.11599906  0.62005052  1
  H+  H306  1  0.90511264  0.06043712  0.53584030  1
  H+  H307  1  0.42073852  0.58396625  0.56667067  1
  H+  H308  1  0.33464752  0.41743869  0.76147206  1
  H+  H309  1  0.36741228  0.38956133  0.67417755  1
  H+  H310  1  0.42372502  0.81015413  0.29335716  1
  H+  H311  1  0.32558125  0.38962966  0.07039622  1
  H+  H312  1  0.07726460  0.65510463  0.39375226  1
  H+  H313  1  0.41907598  0.33396940  0.89617240  1
  H+  H314  1  0.83304435  0.91697040  0.73222828  1
  H+  H315  1  0.68649512  0.84405185  0.56459384  1
  H+  H316  1  0.88636004  0.52452988  1.00506016  1
  H+  H317  1  0.22716655  0.85135765  0.67009345  1
  H+  H318  1  0.07713316  0.89446529  0.79747838  1
  H+  H319  1  0.82589883  0.88983861  0.42004522  1
  H+  H320  1  0.09110222  0.68448866  0.48900985  1
  H+  H321  1  0.62277689  0.76739749  0.83692688  1
  H+  H322  1  0.15831227  0.08473592  0.25871749  1
  H+  H323  1  0.17795422  0.57497726  0.57230193  1
  H+  H324  1  0.66185233  0.58015804  0.26543398  1
  H+  H325  1  0.58143800  0.42231707  0.10490508  1
  H+  H326  1  0.11725080  0.14933714  0.33091141  1
  H+  H327  1  0.09327272  0.18074484  0.42283990  1
  H+  H328  1  0.61008229  0.47527372  0.67534315  1
  H+  H329  1  0.22606982  0.36644633  0.16878030  1
  H+  H330  1  0.35650145  0.66456816  0.06320294  1
  H+  H331  1  0.18518859  0.59721385  0.90867671  1
  H+  H332  1  0.16887338  0.34604344  0.26337982  1
  H+  H333  1  0.17059935  0.83773138  0.95243705  1
  H+  H334  1  0.41129925  0.82452186  0.60329099  1
  H+  H335  1  0.17406347  0.08470458  0.94394504  1
  H+  H336  1  0.39284168  1.00394520  0.48469336  1
  H+  H337  1  0.82894539  0.16514035  0.10369336  1
  H+  H338  1  0.89671308  0.12589584  0.31476388  1
  H+  H339  1  0.39804416  0.99766252  -0.01170235  1
  H+  H340  1  0.32695682  0.94685267  0.07898200  1
  H+  H341  1  0.83739716  0.92565077  0.10195844  1
  H+  H342  1  0.41450799  0.33908946  0.23645958  1
  H+  H343  1  0.84346731  0.67791597  0.11541837  1
  H+  H344  1  0.40992655  0.58663446  0.89512355  1
  H+  H345  1  0.41720484  0.33861235  0.60018246  1
  H+  H346  1  0.16287144  0.57374631  0.26437362  1
  H+  H347  1  0.10223547  0.94577975  0.71230138  1
  H+  H348  1  0.66127833  0.58046852  0.91390699  1
  H+  H349  1  0.66279538  0.42772575  0.03361023  1
  H+  H350  1  0.65977086  0.34239396  0.26476494  1
  H+  H351  1  0.81606963  0.39778067  0.43801338  1
  H+  H352  1  0.59768201  0.91696116  0.41158329  1
  H+  H353  1  0.83080486  0.66407340  0.44389196  1
  H+  H354  1  0.07823985  0.41315760  0.39998082  1
  H+  H355  1  0.68552729  0.87730708  0.92107887  1
  H+  H356  1  0.64743173  0.86039440  0.33728011  1
  H+  H357  1  0.91541369  0.34075046  0.26352834  1
  H+  H358  1  0.62901250  0.20408570  0.78697308  1
  H+  H359  1  0.58163617  0.41360483  0.76369783  1
  H+  H360  1  0.38943270  0.78525125  0.50132568  1
  H+  H361  1  0.40156739  0.83564838  0.20884138  1
  H+  H362  1  0.59332691  0.17307455  0.43427579  1
  H+  H363  1  0.12164811  0.93851860  0.40747917  1
  H+  H364  1  0.67287914  0.07302698  0.27051688  1
  H+  H365  1  0.66737304  0.08466199  0.61133681  1
  H+  H366  1  0.08418869  0.41734365  0.08786087  1
  H+  H367  1  0.10780400  0.71954784  0.66048647  1
  H+  H368  1  0.18130700  0.33510497  0.59944434  1
  H+  H369  1  0.25655133  0.59721757  0.33826100  1
  H+  H370  1  0.54606807  0.65615041  0.15784822  1
  H+  H371  1  0.88005937  0.83983204  0.27570969  1
  H+  H372  1  0.32197158  0.66557177  0.43138650  1
  H+  H373  1  0.67503756  0.84011219  0.27197577  1
  H+  H374  1  0.33710875  0.90962427  0.77449925  1
  H+  H375  1  0.91924222  0.08443387  0.94464312  1
  H+  H376  1  0.58424252  0.42686780  0.40050526  1
  H+  H377  1  0.41411089  0.08165673  0.23008428  1
  H+  H378  1  0.92708566  0.32147486  0.91322817  1
  H+  H379  1  0.24038057  0.39154685  0.97983336  1
  H+  H380  1  0.65880380  0.08393460  0.93878384  1
  H+  H381  1  0.79988431  0.01108476  0.90288441  1
  H+  H382  1  0.83489003  0.66964053  0.72779155  1
  H+  H383  1  0.51142323  0.55576235  0.05270239  1
  O2-  O384  1  0.08592610  0.16742743  0.13936801  1
  O2-  O385  1  0.09139157  0.17724122  0.46863373  1
  O2-  O386  1  0.10176302  0.17575312  0.82096507  1
  O2-  O387  1  0.07949982  0.41477746  0.13347343  1
  O2-  O388  1  0.08777823  0.41287766  0.47621513  1
  O2-  O389  1  0.10855331  0.45153922  0.82049789  1
  O2-  O390  1  0.06687872  0.63822367  0.15503833  1
  O2-  O391  1  0.06083032  0.62827332  0.46962126  1
  O2-  O392  1  0.10800181  0.68274152  0.83315585  1
  O2-  O393  1  0.07116019  0.92516675  0.14640107  1
  O2-  O394  1  0.09382207  0.92575469  0.47684351  1
  O2-  O395  1  0.08459417  0.90851061  0.84055324  1
  O2-  O396  1  0.33531924  0.17298720  0.14771511  1
  O2-  O397  1  0.35167228  0.17760717  0.51736085  1
  O2-  O398  1  0.33319276  0.16509438  0.81255447  1
  O2-  O399  1  0.33125826  0.41587505  0.14199749  1
  O2-  O400  1  0.33748672  0.41933019  0.47229664  1
  O2-  O401  1  0.33459971  0.42061937  0.80840412  1
  O2-  O402  1  0.33565116  0.67242939  0.15256227  1
  O2-  O403  1  0.31409529  0.69647756  0.46522664  1
  O2-  O404  1  0.34468492  0.67438723  0.80617815  1
  O2-  O405  1  0.29838729  0.95950143  0.11196869  1
  O2-  O406  1  0.35924158  0.93474218  0.48435725  1
  O2-  O407  1  0.34315256  0.91590809  0.82050040  1
  O2-  O408  1  0.58721017  0.17056172  0.15223460  1
  O2-  O409  1  0.58911242  0.16819999  0.47980693  1
  O2-  O410  1  0.58284060  0.14489991  0.78281790  1
  O2-  O411  1  0.58279696  0.42146381  0.14960630  1
  O2-  O412  1  0.58371733  0.42097700  0.47393307  1
  O2-  O413  1  0.58150235  0.41648590  0.81017064  1
  O2-  O414  1  0.60942026  0.68945834  0.15836654  1
  O2-  O415  1  0.58585626  0.65411841  0.48046441  1
  O2-  O416  1  0.58296326  0.66556303  0.80583753  1
  O2-  O417  1  0.58486612  0.91325670  0.15575933  1
  O2-  O418  1  0.58898717  0.91970653  0.49162283  1
  O2-  O419  1  0.53469621  0.88935800  0.82608386  1
  O2-  O420  1  0.83301710  0.17043061  0.14886103  1
  O2-  O421  1  0.83728577  0.15788584  0.46552156  1
  O2-  O422  1  0.82819834  0.16162760  0.82085483  1
  O2-  O423  1  0.82456255  0.41553128  0.14121454  1
  O2-  O424  1  0.81954783  0.39962092  0.48317451  1
  O2-  O425  1  0.85530769  0.41621268  0.83294139  1
  O2-  O426  1  0.83926837  0.67682765  0.16075249  1
  O2-  O427  1  0.83040250  0.65709720  0.48904509  1
  O2-  O428  1  0.83397836  0.66527187  0.80704834  1
  O2-  O429  1  0.84214527  0.93057085  0.14712178  1
  O2-  O430  1  0.82089070  0.90521541  0.46285095  1
  O2-  O431  1  0.81914603  0.90666379  0.80983670  1
  O2-  O432  1  0.16537306  0.08810980  0.18059841  1
  O2-  O433  1  0.16902523  0.09110131  0.50996389  1
  O2-  O434  1  0.17682840  0.08527294  0.86709319  1
  O2-  O435  1  0.16535384  0.33717814  0.18354945  1
  O2-  O436  1  0.17584991  0.33762635  0.51861558  1
  O2-  O437  1  0.17809649  0.32915553  0.85387714  1
  O2-  O438  1  0.17104856  0.57279286  0.18976503  1
  O2-  O439  1  0.17252977  0.57055913  0.52385250  1
  O2-  O440  1  0.18744015  0.60317434  0.86314405  1
  O2-  O441  1  0.15581284  0.85072896  0.17741383  1
  O2-  O442  1  0.21384801  0.91483938  0.53718965  1
  O2-  O443  1  0.18387332  0.84276210  0.87576427  1
  O2-  O444  1  0.41900464  0.08859925  0.18453024  1
  O2-  O445  1  0.43107219  0.09464512  0.47962567  1
  O2-  O446  1  0.43316116  0.09296585  0.84721793  1
  O2-  O447  1  0.41383515  0.33888314  0.19053570  1
  O2-  O448  1  0.41870166  0.34149953  0.52313424  1
  O2-  O449  1  0.41532329  0.33457649  0.85099051  1
  O2-  O450  1  0.42447439  0.58882539  0.16193649  1
  O2-  O451  1  0.42583929  0.58611813  0.52173261  1
  O2-  O452  1  0.40774115  0.58247230  0.83995514  1
  O2-  O453  1  0.42998967  0.80267834  0.21742417  1
  O2-  O454  1  0.42757559  0.84170752  0.52193981  1
  O2-  O455  1  0.44810199  0.83872219  0.85316133  1
  O2-  O456  1  0.66619059  0.08303357  0.19115402  1
  O2-  O457  1  0.68579969  0.12344273  0.53276827  1
  O2-  O458  1  0.65115377  0.06975421  0.85336121  1
  O2-  O459  1  0.66079932  0.33607727  0.18545598  1
  O2-  O460  1  0.65444038  0.32867222  0.51676886  1
  O2-  O461  1  0.67786574  0.34995962  0.87071656  1
  O2-  O462  1  0.67453129  0.58492389  0.19556391  1
  O2-  O463  1  0.66374621  0.57751893  0.52630605  1
  O2-  O464  1  0.66289091  0.58102440  0.84414147  1
  O2-  O465  1  0.68505360  0.85252482  0.19768422  1
  O2-  O466  1  0.68406602  0.85048389  0.51786659  1
  O2-  O467  1  0.64768523  0.82910218  0.84848339  1
  O2-  O468  1  0.93032040  0.09882073  0.18006849  1
  O2-  O469  1  0.91554408  0.07381553  0.49279918  1
  O2-  O470  1  0.85400778  0.04534567  0.87995303  1
  O2-  O471  1  0.91583496  0.34039633  0.18227641  1
  O2-  O472  1  0.92256742  0.32729253  0.51515538  1
  O2-  O473  1  0.93059739  0.32378439  0.86824791  1
  O2-  O474  1  0.91050451  0.57984248  0.18764929  1
  O2-  O475  1  0.90448728  0.56616342  0.51167132  1
  O2-  O476  1  0.92354284  0.58262072  0.84619555  1
  O2-  O477  1  0.91139268  0.84538019  0.20102628  1
  O2-  O478  1  0.93050306  0.81631981  0.52597041  1
  O2-  O479  1  0.90312355  0.82553831  0.86157687  1
  O2-  O480  1  0.15960879  0.09122087  0.30386945  1
  O2-  O481  1  0.16688641  0.09347179  0.63465804  1
  O2-  O482  1  0.17201274  0.08437184  0.98971895  1
  O2-  O483  1  0.17224791  0.34753144  0.30871316  1
  O2-  O484  1  0.18622663  0.33806513  0.64445735  1
  O2-  O485  1  0.18236717  0.36482244  0.96268924  1
  O2-  O486  1  0.16124763  0.57477007  0.31031210  1
  O2-  O487  1  0.18330650  0.58385052  0.63872739  1
  O2-  O488  1  0.17374099  0.58639453  0.98543113  1
  O2-  O489  1  0.17185116  0.83345717  0.30545422  1
  O2-  O490  1  0.16903307  0.82352027  0.65014328  1
  O2-  O491  1  0.15462234  0.83059394  0.99667200  1
  O2-  O492  1  0.41091416  0.08136632  0.30643469  1
  O2-  O493  1  0.39195441  0.05790704  0.65875458  1
  O2-  O494  1  0.44172899  0.09872315  0.97249859  1
  O2-  O495  1  0.41503839  0.34018416  0.31244334  1
  O2-  O496  1  0.41293986  0.33341762  0.64587210  1
  O2-  O497  1  0.42691555  0.32736801  0.97620887  1
  O2-  O498  1  0.42980479  0.58339287  0.29084891  1
  O2-  O499  1  0.41807602  0.58656408  0.64944902  1
  O2-  O500  1  0.41367201  0.58965355  0.94960118  1
  O2-  O501  1  0.42504245  0.82900376  0.33671917  1
  O2-  O502  1  0.41165986  0.82350741  0.64853423  1
  O2-  O503  1  0.43634263  0.83286271  0.97861559  1
  O2-  O504  1  0.68313701  0.07453850  0.31494290  1
  O2-  O505  1  0.66827662  0.07450109  0.65574236  1
  O2-  O506  1  0.66576322  0.08656148  0.98353401  1
  O2-  O507  1  0.65681188  0.34505233  0.30996005  1
  O2-  O508  1  0.63487197  0.32402717  0.63812971  1
  O2-  O509  1  0.67631143  0.34999018  0.93782536  1
  O2-  O510  1  0.65363462  0.57966111  0.31162462  1
  O2-  O511  1  0.66359619  0.58010360  0.64826312  1
  O2-  O512  1  0.66270442  0.58281183  0.96101804  1
  O2-  O513  1  0.67337240  0.82867079  0.31705037  1
  O2-  O514  1  0.67784343  0.83293083  0.63350166  1
  O2-  O515  1  0.71666129  0.92037364  0.95350310  1
  O2-  O516  1  0.92964525  0.10041969  0.29660613  1
  O2-  O517  1  0.92775662  0.09632030  0.66152237  1
  O2-  O518  1  0.93339681  0.09155953  0.98904581  1
  O2-  O519  1  0.91101478  0.33867983  0.30882111  1
  O2-  O520  1  0.89933225  0.37988430  0.72163862  1
  O2-  O521  1  0.90845917  0.32364674  0.99593167  1
  O2-  O522  1  0.93177034  0.55301228  0.30001882  1
  O2-  O523  1  0.90194059  0.59050690  0.63092878  1
  O2-  O524  1  0.91782545  0.58761778  1.00020206  1
  O2-  O525  1  0.85561266  0.81904089  0.31760133  1
  O2-  O526  1  0.92831453  0.84131902  0.65168615  1
  O2-  O527  1  0.90677825  0.82584851  0.98454243  1
  O2-  O528  1  0.08891843  0.15991659  0.02758805  1
  O2-  O529  1  0.08980036  0.18143899  0.34802684  1
  O2-  O530  1  0.09806096  0.17300885  0.69851007  1
  O2-  O531  1  0.09612638  0.42619976  0.00980249  1
  O2-  O532  1  0.07420917  0.41190882  0.35410898  1
  O2-  O533  1  0.08288270  0.44721986  0.70471247  1
  O2-  O534  1  0.08394506  0.65653029  0.03118973  1
  O2-  O535  1  0.08594360  0.66708020  0.34896753  1
  O2-  O536  1  0.06971614  0.65492518  0.66136707  1
  O2-  O537  1  0.07115333  0.91940917  0.02573646  1
  O2-  O538  1  0.14863953  0.95342167  0.36479104  1
  O2-  O539  1  0.09196432  0.92207620  0.67151451  1
  O2-  O540  1  0.34620436  0.16368835  0.02249721  1
  O2-  O541  1  0.32871330  0.16363843  0.33981311  1
  O2-  O542  1  0.32294575  0.16635931  0.68398510  1
  O2-  O543  1  0.31745132  0.36790427  0.02702799  1
  O2-  O544  1  0.33770151  0.42982872  0.35094156  1
  O2-  O545  1  0.33824288  0.42031282  0.69089990  1
  O2-  O546  1  0.35123070  0.66716159  0.01851204  1
  O2-  O547  1  0.31191097  0.60595201  0.35651369  1
  O2-  O548  1  0.32552270  0.66227669  0.69040811  1
  O2-  O549  1  0.36324537  0.93314147  -0.00407554  1
  O2-  O550  1  0.33311396  0.91736603  0.35433423  1
  O2-  O551  1  0.32755945  0.90161173  0.69983468  1
  O2-  O552  1  0.60247719  0.17698844  0.02774054  1
  O2-  O553  1  0.57539044  0.17825715  0.35877717  1
  O2-  O554  1  0.56717784  0.15995334  0.67277255  1
  O2-  O555  1  0.61344761  0.43078033  0.01815708  1
  O2-  O556  1  0.58160484  0.42866117  0.35427395  1
  O2-  O557  1  0.57598128  0.41544606  0.69169466  1
  O2-  O558  1  0.50550405  0.53886766  0.01011029  1
  O2-  O559  1  0.58480454  0.66305067  0.34617097  1
  O2-  O560  1  0.59031566  0.67103791  0.68551047  1
  O2-  O561  1  0.59705824  0.92680804  0.03013013  1
  O2-  O562  1  0.59684987  0.91049668  0.36666247  1
  O2-  O563  1  0.58312869  0.89239777  0.67469666  1
  O2-  O564  1  0.82635619  0.15892808  0.02475640  1
  O2-  O565  1  0.83953022  0.16882846  0.34827752  1
  O2-  O566  1  0.83930330  0.16749412  0.69669954  1
  O2-  O567  1  0.82195215  0.40954676  0.01561461  1
  O2-  O568  1  0.81571623  0.40252095  0.35785272  1
  O2-  O569  1  0.78995188  0.43060709  0.67762839  1
  O2-  O570  1  0.84391382  0.66717731  0.03724043  1
  O2-  O571  1  0.83482073  0.67078142  0.36789572  1
  O2-  O572  1  0.83253879  0.67548574  0.68276789  1
  O2-  O573  1  0.84333252  0.92741435  0.02294904  1
  O2-  O574  1  0.83774536  0.88408550  0.34221263  1
  O2-  O575  1  0.83857909  0.92014250  0.68679648  1
