# generated using pymatgen
data_H2O
_symmetry_space_group_name_H-M   'P 1'
_cell_length_a   18.00220670
_cell_length_b   18.00293223
_cell_length_c   22.01827954
_cell_angle_alpha   90.00652004
_cell_angle_beta   89.99946468
_cell_angle_gamma   119.99488947
_symmetry_Int_Tables_number   1
_chemical_formula_structural   H2O
_chemical_formula_sum   'H384 O192'
_cell_volume   6180.24031294
_cell_formula_units_Z   192
loop_
 _symmetry_equiv_pos_site_id
 _symmetry_equiv_pos_as_xyz
  1  'x, y, z'
loop_
 _atom_type_symbol
 _atom_type_oxidation_number
  H+  1.0
  O2-  -2.0
loop_
 _atom_site_type_symbol
 _atom_site_label
 _atom_site_symmetry_multiplicity
 _atom_site_fract_x
 _atom_site_fract_y
 _atom_site_fract_z
 _atom_site_occupancy
  H+  H0  1  0.77829094  0.14269495  0.33505708  1
  H+  H1  1  0.02322621  0.88569955  0.49688032  1
  H+  H2  1  0.63092575  0.81558639  0.94219478  1
  H+  H3  1  0.84871142  0.37161394  0.67324038  1
  H+  H4  1  0.22384873  0.11545503  0.67527046  1
  H+  H5  1  0.60269418  0.97006144  0.17278545  1
  H+  H6  1  0.55951989  0.39651960  0.47563995  1
  H+  H7  1  0.40015381  0.11630081  0.99136057  1
  H+  H8  1  0.87467087  0.64274336  0.15857254  1
  H+  H9  1  0.45394133  0.35475500  0.52760715  1
  H+  H10  1  0.13907357  0.85923376  0.99602408  1
  H+  H11  1  0.11430581  0.98470857  0.34318617  1
  H+  H12  1  0.77310968  0.13686156  0.48574931  1
  H+  H13  1  0.19630821  0.56725808  0.25769211  1
  H+  H14  1  0.82701096  0.40178394  0.77451075  1
  H+  H15  1  0.11674842  0.40635722  0.49103194  1
  H+  H16  1  0.47417473  0.20637447  0.21002733  1
  H+  H17  1  0.97555168  0.60123110  0.17318088  1
  H+  H18  1  0.87948748  0.50309057  0.85127949  1
  H+  H19  1  0.78076793  0.63646030  0.33906899  1
  H+  H20  1  0.53996387  0.38896831  0.66753711  1
  H+  H21  1  0.39344998  0.87054879  0.65995609  1
  H+  H22  1  0.50023870  0.14382540  0.17939773  1
  H+  H23  1  0.52613665  0.90169389  0.49379128  1
  H+  H24  1  0.39447669  0.52691005  -0.00135996  1
  H+  H25  1  0.89395999  0.11324853  1.00835956  1
  H+  H26  1  0.37919167  0.36040838  0.16713656  1
  H+  H27  1  0.77685249  0.12966170  0.03596333  1
  H+  H28  1  0.22596591  0.85978282  0.16892030  1
  H+  H29  1  0.61049677  0.12277828  0.16893033  1
  H+  H30  1  1.02204117  0.15334669  0.34573891  1
  H+  H31  1  0.10889211  -0.01185935  0.68125808  1
  H+  H32  1  0.35513817  0.07914864  0.84721084  1
  H+  H33  1  0.36528036  0.71380085  0.83327252  1
  H+  H34  1  0.71509712  0.09770179  0.17287992  1
  H+  H35  1  0.64891387  0.13460731  0.33491310  1
  H+  H36  1  0.12442604  0.64873485  0.83124283  1
  H+  H37  1  0.63490564  0.86171993  0.17793275  1
  H+  H38  1  0.90258404  0.35865397  0.16227152  1
  H+  H39  1  0.62848089  0.51667077  0.17936528  1
  H+  H40  1  0.61995615  0.23274741  0.66687983  1
  H+  H41  1  0.31342698  0.38965506  0.64902141  1
  H+  H42  1  0.12867483  0.85871741  0.32144017  1
  H+  H43  1  0.36537565  0.97673218  0.16419011  1
  H+  H44  1  0.28138719  0.89102744  0.67203259  1
  H+  H45  1  0.38364450  0.75956633  0.33675041  1
  H+  H46  1  0.67650326  0.70998954  0.49932809  1
  H+  H47  1  0.97086941  0.36677740  0.33347252  1
  H+  H48  1  0.60111735  0.37983780  0.31252068  1
  H+  H49  1  0.91991177  0.83369078  0.26972287  1
  H+  H50  1  0.88913683  0.75353987  0.50943647  1
  H+  H51  1  0.86199089  0.82284588  0.51590783  1
  H+  H52  1  0.36230576  0.63535244  1.00254451  1
  H+  H53  1  0.35690803  0.79834105  0.21506198  1
  H+  H54  1  0.73600943  0.37153433  0.86239901  1
  H+  H55  1  0.72830747  0.58318965  0.88787575  1
  H+  H56  1  0.23028050  0.61017816  0.16428704  1
  H+  H57  1  0.50326878  0.14473720  0.81537817  1
  H+  H58  1  0.14110667  0.27996700  0.32561500  1
  H+  H59  1  0.87068307  0.72467033  0.34171618  1
  H+  H60  1  0.78745297  0.63140816  0.81216593  1
  H+  H61  1  0.73297447  0.61660146  0.65818142  1
  H+  H62  1  0.61681710  0.72856061  0.16548431  1
  H+  H63  1  0.64813847  0.12495037  0.50235216  1
  H+  H64  1  0.12367171  0.23318957  0.15230555  1
  H+  H65  1  0.78006266  0.89033561  0.67170928  1
  H+  H66  1  0.89998172  0.06522687  0.30357156  1
  H+  H67  1  0.19242967  0.37409989  0.66629213  1
  H+  H68  1  0.40991187  0.36376503  0.67155195  1
  H+  H69  1  0.23221461  0.36392628  0.32372263  1
  H+  H70  1  0.89960745  0.04359302  0.50136884  1
  H+  H71  1  0.73542081  0.36746744  0.66078884  1
  H+  H72  1  0.87065087  0.47347172  0.15752983  1
  H+  H73  1  0.36384479  0.25913318  0.33703454  1
  H+  H74  1  0.48264488  0.86969913  0.65535786  1
  H+  H75  1  0.51802711  0.61762149  0.35115689  1
  H+  H76  1  0.86204187  0.86485517  0.34301880  1
  H+  H77  1  0.10301507  0.15886545  0.83356388  1
  H+  H78  1  0.62626548  0.25549547  0.49992108  1
  H+  H79  1  0.60631546  0.07811476  0.86554159  1
  H+  H80  1  0.49934291  0.88762092  0.32353096  1
  H+  H81  1  0.22769895  0.60467414  0.99882416  1
  H+  H82  1  0.10044933  0.71614441  0.33359658  1
  H+  H83  1  0.13052561  0.65293075  0.67414427  1
  H+  H84  1  0.35828520  0.62273232  0.84124617  1
  H+  H85  1  1.02127080  0.87925471  0.16219261  1
  H+  H86  1  0.17995796  0.60490803  0.56123818  1
  H+  H87  1  0.08725014  0.86627006  0.82631887  1
  H+  H88  1  0.86564520  0.13543024  0.13073739  1
  H+  H89  1  0.80994204  0.38989866  0.49994862  1
  H+  H90  1  0.42541043  0.84774745  0.56504065  1
  H+  H91  1  0.86655726  0.23963435  0.34327476  1
  H+  H92  1  0.00837356  0.33618145  0.83003820  1
  H+  H93  1  0.41707024  0.31604434  0.61504064  1
  H+  H94  1  0.13451500  0.85358946  0.16899492  1
  H+  H95  1  0.87594886  0.37864187  0.00750230  1
  H+  H96  1  0.89902646  0.60559896  0.50347638  1
  H+  H97  1  0.71234321  0.61088428  0.99998625  1
  H+  H98  1  0.95559803  0.34923104  0.65749822  1
  H+  H99  1  0.61832284  0.75680770  1.00504410  1
  H+  H100  1  0.97924111  0.11067691  0.99363273  1
  H+  H101  1  0.22365068  0.13564052  0.33201499  1
  H+  H102  1  0.65511251  0.52163175  0.84141274  1
  H+  H103  1  0.63021229  0.39550945  0.84123563  1
  H+  H104  1  0.08008083  0.90671698  0.06553296  1
  H+  H105  1  0.63482424  0.50139510  0.52538965  1
  H+  H106  1  0.88351756  0.11276750  0.66212601  1
  H+  H107  1  0.89499728  0.77979832  0.17554606  1
  H+  H108  1  0.10721860  0.14239778  0.34934887  1
  H+  H109  1  0.90263004  0.08876687  0.90551720  1
  H+  H110  1  0.89755943  0.27063651  0.14820456  1
  H+  H111  1  0.15567992  0.78022814  -0.00336224  1
  H+  H112  1  0.37614628  0.74773831  0.49615794  1
  H+  H113  1  0.38217223  0.77301330  0.00191135  1
  H+  H114  1  0.75439640  0.90277598  0.50692907  1
  H+  H115  1  0.61273414  0.47365946  0.30673804  1
  H+  H116  1  0.49267569  0.12037143  0.65223893  1
  H+  H117  1  0.06800323  0.66198477  -0.02823374  1
  H+  H118  1  0.36779634  0.65407289  0.49511975  1
  H+  H119  1  0.91536635  0.93773409  0.48745456  1
  H+  H120  1  0.33421457  0.36826497  0.80785117  1
  H+  H121  1  0.63886410  0.11610869  0.65569771  1
  H+  H122  1  0.34872739  0.47039669  0.49698871  1
  H+  H123  1  0.53526089  0.37511391  0.01434279  1
  H+  H124  1  0.88848419  0.86706344  0.66147668  1
  H+  H125  1  0.36847352  0.26562295  0.16699857  1
  H+  H126  1  0.97418073  0.85454719  0.99801891  1
  H+  H127  1  0.83943366  0.93954703  0.33929770  1
  H+  H128  1  0.38047919  0.40060753  1.01403616  1
  H+  H129  1  0.53289923  0.77564084  0.87440936  1
  H+  H130  1  0.91412243  0.84072776  0.94106668  1
  H+  H131  1  -0.04321981  0.11473453  0.84367837  1
  H+  H132  1  -0.01993001  0.86674162  0.32980872  1
  H+  H133  1  0.76173229  0.15073776  0.83406484  1
  H+  H134  1  0.14192039  0.11968810  0.51418301  1
  H+  H135  1  0.39316060  0.87536903  0.50476082  1
  H+  H136  1  0.03644980  0.64682736  0.49245659  1
  H+  H137  1  0.14287897  0.86732190  0.50767159  1
  H+  H138  1  0.45686640  0.59807165  0.49743550  1
  H+  H139  1  0.01920871  0.13344574  0.67013076  1
  H+  H140  1  0.66237628  0.31486414  0.27819531  1
  H+  H141  1  0.86964514  0.97664791  0.01649535  1
  H+  H142  1  0.11810326  0.46928125  0.33657915  1
  H+  H143  1  0.17082835  0.36667133  0.81662519  1
  H+  H144  1  0.64442741  0.86937978  0.65667602  1
  H+  H145  1  0.39952019  1.02338595  0.49578494  1
  H+  H146  1  0.36978364  0.86419513  0.16299671  1
  H+  H147  1  0.24499163  0.61228543  0.31907325  1
  H+  H148  1  0.63704711  0.39221245  0.65929751  1
  H+  H149  1  0.89368513  1.03493616  0.16777985  1
  H+  H150  1  0.53522469  0.13864047  -0.02006713  1
  H+  H151  1  0.62270627  0.75744349  0.32667414  1
  H+  H152  1  0.60203351  0.75284897  0.84958646  1
  H+  H153  1  0.01182530  0.89235839  0.67428246  1
  H+  H154  1  0.03018068  0.14896293  0.14666740  1
  H+  H155  1  -0.01784257  0.36050448  0.00398024  1
  H+  H156  1  0.86867726  0.88780887  0.01911206  1
  H+  H157  1  0.11001159  0.22052012  0.98933357  1
  H+  H158  1  0.37870454  0.89426195  0.01888084  1
  H+  H159  1  0.42926180  0.10371058  0.34419276  1
  H+  H160  1  1.00182748  0.87628308  0.82878248  1
  H+  H161  1  0.37002106  0.63621659  0.15626731  1
  H+  H162  1  0.57892292  0.17447119  0.72573736  1
  H+  H163  1  0.89680147  0.14836589  0.32320475  1
  H+  H164  1  0.39629196  0.85141713  0.83400053  1
  H+  H165  1  0.48133524  0.61753506  0.17756128  1
  H+  H166  1  0.16411794  0.53158419  0.64162242  1
  H+  H167  1  0.62515159  0.73659964  0.67255851  1
  H+  H168  1  0.63900231  0.97941177  0.81647840  1
  H+  H169  1  0.63350421  0.58132409  0.49991545  1
  H+  H170  1  0.94778041  0.59409919  1.00156741  1
  H+  H171  1  0.85528445  0.46442470  0.67340653  1
  H+  H172  1  0.38415487  0.00975818  0.83769506  1
  H+  H173  1  0.35527067  0.96188240  0.33843823  1
  H+  H174  1  0.37261291  0.64628878  0.66162999  1
  H+  H175  1  0.11016809  -0.03391369  0.15818253  1
  H+  H176  1  0.15826424  0.78761836  0.66507120  1
  H+  H177  1  0.14528966  0.36200604  0.16775918  1
  H+  H178  1  0.89203781  0.86874212  0.17869408  1
  H+  H179  1  0.58357027  0.66061959  0.40535667  1
  H+  H180  1  0.88676585  0.60612614  0.32429270  1
  H+  H181  1  0.11125975  0.46910084  1.00896889  1
  H+  H182  1  0.85690959  0.79365976  0.85570743  1
  H+  H183  1  0.37420666  -0.02124014  0.67238844  1
  H+  H184  1  0.11247472  0.96897956  0.00790957  1
  H+  H185  1  0.24466588  0.62462730  0.65277681  1
  H+  H186  1  0.26787900  0.14400160  0.49307460  1
  H+  H187  1  0.71608010  0.83689592  0.33153558  1
  H+  H188  1  0.61954083  0.90946528  0.49540781  1
  H+  H189  1  0.39129060  0.26487968  1.00455263  1
  H+  H190  1  0.78180906  0.62121182  0.49192439  1
  H+  H191  1  0.84981992  0.71879769  0.00312380  1
  H+  H192  1  0.66682320  0.39810872  0.96357533  1
  H+  H193  1  0.68306355  0.35614279  0.48473727  1
  H+  H194  1  0.86698035  0.72499792  0.66444662  1
  H+  H195  1  0.38603619  0.62909316  0.32849379  1
  H+  H196  1  0.84009049  0.62464963  1.00436500  1
  H+  H197  1  0.58665254  0.35803530  0.52779468  1
  H+  H198  1  0.28456773  0.87701967  0.82341544  1
  H+  H199  1  0.85540489  0.98979901  0.82951164  1
  H+  H200  1  0.02111788  0.14855583  0.49631603  1
  H+  H201  1  0.36731146  0.47943463  0.16394151  1
  H+  H202  1  0.78281299  0.89762965  0.16697843  1
  H+  H203  1  0.14272905  0.11021103  0.99292889  1
  H+  H204  1  0.22052833  0.36111616  0.50580527  1
  H+  H205  1  0.13363191  0.74027781  0.82818304  1
  H+  H206  1  0.67573868  0.58756691  0.26374252  1
  H+  H207  1  0.61949537  0.88706085  0.34179697  1
  H+  H208  1  0.35736055  0.14623435  0.72786573  1
  H+  H209  1  0.26131882  0.11512314  0.15879749  1
  H+  H210  1  0.05332217  0.38386496  0.73989527  1
  H+  H211  1  0.35403403  0.16543707  0.33978552  1
  H+  H212  1  0.62024589  0.98043858  0.66176454  1
  H+  H213  1  0.49233165  0.62474194  0.65713999  1
  H+  H214  1  0.47469110  0.37227066  0.30675424  1
  H+  H215  1  0.03371614  0.38093635  0.15568657  1
  H+  H216  1  0.09627589  0.17349274  0.05407713  1
  H+  H217  1  0.27734688  0.13110045  0.00346966  1
  H+  H218  1  0.60667732  0.63760684  0.01381912  1
  H+  H219  1  0.14358105  0.77942152  0.50564211  1
  H+  H220  1  0.49506286  0.60514167  0.83818827  1
  H+  H221  1  0.76707352  0.13010137  0.67281645  1
  H+  H222  1  0.88008192  0.88865301  0.84192164  1
  H+  H223  1  0.37111241  0.23127284  0.69561474  1
  H+  H224  1  0.13719580  0.11804841  0.66530863  1
  H+  H225  1  0.87087377  0.25700546  0.65812143  1
  H+  H226  1  0.48380913  0.85743475  0.82030327  1
  H+  H227  1  0.63054739  0.48811048  0.66420865  1
  H+  H228  1  0.90078207  0.35424944  0.50064177  1
  H+  H229  1  0.11678585  0.34876008  -0.01712732  1
  H+  H230  1  0.86338688  0.37580436  0.83269324  1
  H+  H231  1  0.36351388  0.72262912  0.15011385  1
  H+  H232  1  0.89108017  0.27249411  1.01092802  1
  H+  H233  1  0.62541104  0.22226282  -0.00390899  1
  H+  H234  1  0.62258509  0.85616706  1.00914461  1
  H+  H235  1  0.27892690  0.89083825  0.49892488  1
  H+  H236  1  0.51668675  0.63793998  1.01132144  1
  H+  H237  1  0.87919337  0.26640313  0.84793281  1
  H+  H238  1  0.84427887  0.13703222  0.83446622  1
  H+  H239  1  0.62373044  0.64640309  0.67368365  1
  H+  H240  1  0.14091978  0.60937050  0.17000487  1
  H+  H241  1  0.11267727  0.72014299  0.15830415  1
  H+  H242  1  0.78399170  0.38057033  0.15225187  1
  H+  H243  1  0.06773411  0.46507040  0.70130444  1
  H+  H244  1  0.61421359  0.88249116  0.82340197  1
  H+  H245  1  0.66335114  0.03881842  0.32346301  1
  H+  H246  1  0.13146214  0.00402945  0.84149189  1
  H+  H247  1  0.87617601  0.24797166  0.49828820  1
  H+  H248  1  0.51249112  0.88052512  0.16724990  1
  H+  H249  1  0.87970652  0.36172859  0.33544160  1
  H+  H250  1  0.35438844  0.48328846  0.34417620  1
  H+  H251  1  0.11803536  0.11255503  0.17257760  1
  H+  H252  1  0.26376122  0.12996238  0.80342095  1
  H+  H253  1  0.63510544  0.36235195  0.17693455  1
  H+  H254  1  0.35505888  0.24282903  0.49890798  1
  H+  H255  1  0.64533010  0.10494441  0.99996180  1
  H+  H256  1  0.89027150  0.59493150  0.84310410  1
  H+  H257  1  0.14058379  0.52277545  0.84816038  1
  H+  H258  1  0.66607897  0.81975097  0.49500731  1
  H+  H259  1  0.27709885  0.38946590  0.15957020  1
  H+  H260  1  0.58922666  0.69035342  0.52735185  1
  H+  H261  1  0.36704339  0.35969873  0.51644428  1
  H+  H262  1  0.40414612  0.11725765  0.63733917  1
  H+  H263  1  0.52980263  0.13140559  0.48457566  1
  H+  H264  1  0.68102107  0.84601894  0.59889191  1
  H+  H265  1  0.64270694  0.03399189  0.50233971  1
  H+  H266  1  0.91228918  0.52409924  0.50166347  1
  H+  H267  1  0.54567548  0.39633725  0.82106770  1
  H+  H268  1  0.63222808  0.60709235  0.17688998  1
  H+  H269  1  0.87976300  0.59465956  0.65201779  1
  H+  H270  1  0.63722144  0.64857355  0.82682704  1
  H+  H271  1  0.10143550  0.35777469  0.65628110  1
  H+  H272  1  0.11676214  0.24287180  0.49622082  1
  H+  H273  1  0.97444959  0.60378236  0.32570460  1
  H+  H274  1  0.36715359  0.40074878  0.33998771  1
  H+  H275  1  0.17678140  0.09161092  0.57166266  1
  H+  H276  1  0.12514618  0.49846930  0.49264492  1
  H+  H277  1  0.17221178  0.07236800  0.93840252  1
  H+  H278  1  0.47387685  0.85650942  1.00751265  1
  H+  H279  1  0.64635424  0.61065761  0.32681487  1
  H+  H280  1  0.85657973  0.47614590  0.34473303  1
  H+  H281  1  0.61731362  0.96705546  0.02193583  1
  H+  H282  1  0.10363692  0.22452147  0.67301874  1
  H+  H283  1  0.88386938  0.70866425  0.80723187  1
  H+  H284  1  0.86848836  0.97940692  0.66949662  1
  H+  H285  1  0.76544664  0.38580053  0.35026957  1
  H+  H286  1  0.39000150  0.27664689  0.78656025  1
  H+  H287  1  0.36998869  0.73371666  0.66209007  1
  H+  H288  1  0.17444580  0.84354144  0.90742855  1
  H+  H289  1  0.33199272  0.15494201  0.06391755  1
  H+  H290  1  0.68967906  0.07320280  0.95507764  1
  H+  H291  1  0.38757016  0.98895945  0.01421069  1
  H+  H292  1  0.90437612  0.30958004  0.56678828  1
  H+  H293  1  0.16654000  0.57414919  0.93985555  1
  H+  H294  1  0.84422778  0.41290182  0.07000572  1
  H+  H295  1  0.61401617  0.46936105  0.01662326  1
  H+  H296  1  0.41898564  0.07811532  0.93129225  1
  H+  H297  1  0.32824546  0.91623783  0.43553917  1
  H+  H298  1  0.82289330  0.16189229  0.73445922  1
  H+  H299  1  0.59267560  0.92583308  0.39814875  1
  H+  H300  1  0.23005392  0.60926277  0.85100915  1
  H+  H301  1  0.57212265  0.37998994  0.40703040  1
  H+  H302  1  0.12749738  0.65361886  0.48852748  1
  H+  H303  1  0.40694744  0.53335285  0.65683061  1
  H+  H304  1  0.15525715  0.33298643  0.56381675  1
  H+  H305  1  0.15962350  0.09719468  0.27493364  1
  H+  H306  1  0.32945348  0.19071006  0.42946523  1
  H+  H307  1  0.10510634  0.68353880  0.73430129  1
  H+  H308  1  0.84777940  0.41438900  0.43210161  1
  H+  H309  1  0.34526992  0.93027837  0.09550261  1
  H+  H310  1  0.59576196  0.92155255  0.72082181  1
  H+  H311  1  0.44846212  0.87260895  0.26270537  1
  H+  H312  1  0.55316290  0.12549149  0.33902013  1
  H+  H313  1  0.32475324  0.45125743  0.80975239  1
  H+  H314  1  0.71840687  0.40384831  0.21511106  1
  H+  H315  1  0.86034491  0.46767873  1.00381081  1
  H+  H316  1  0.31026272  0.55503347  0.29824315  1
  H+  H317  1  0.91423740  0.56935071  0.23179585  1
  H+  H318  1  0.33186222  0.65915190  0.06372352  1
  H+  H319  1  0.91523223  0.56298391  0.59839258  1
  H+  H320  1  0.12148705  0.47340980  0.15810248  1
  H+  H321  1  0.39635380  0.29505299  0.85536950  1
  H+  H322  1  0.64241745  0.15621933  0.90983136  1
  H+  H323  1  0.67831122  0.33767217  0.59696514  1
  H+  H324  1  0.42977526  0.33539199  0.95272933  1
  H+  H325  1  0.11955009  0.62462651  0.00457995  1
  H+  H326  1  0.11041509  0.97647904  0.49937155  1
  H+  H327  1  0.89492661  0.56294759  0.93781695  1
  H+  H328  1  0.08025608  0.17475628  0.43030921  1
  H+  H329  1  0.92527787  0.11398805  0.21477579  1
  H+  H330  1  0.83984963  0.67247678  0.10259957  1
  H+  H331  1  0.39876608  0.33360025  0.25964973  1
  H+  H332  1  0.33391600  0.41099002  0.72024934  1
  H+  H333  1  0.44101730  0.09979163  0.27265386  1
  H+  H334  1  0.25784407  0.88407859  0.34203909  1
  H+  H335  1  0.41073555  0.58773296  0.23217513  1
  H+  H336  1  0.66960971  0.58570725  0.60131473  1
  H+  H337  1  0.07730066  0.43111188  0.40118947  1
  H+  H338  1  0.08081375  0.66045997  0.09977548  1
  H+  H339  1  0.60028421  0.16527659  0.42775753  1
  H+  H340  1  0.60334820  0.18657493  0.82184955  1
  H+  H341  1  0.41858829  0.58445203  0.56486100  1
  H+  H342  1  0.43680354  0.51400570  0.86560038  1
  H+  H343  1  0.51457880  0.37290095  0.16036453  1
  H+  H344  1  0.07741995  0.66295583  0.39414849  1
  H+  H345  1  0.23921323  0.63577759  0.50172874  1
  H+  H346  1  0.84368758  0.92426481  0.10815134  1
  H+  H347  1  0.67559546  0.08439484  0.24265980  1
  H+  H348  1  0.20955456  0.91790150  0.85883496  1
  H+  H349  1  0.58211627  0.90716828  0.08139877  1
  H+  H350  1  0.34610775  0.43083316  0.06903771  1
  H+  H351  1  0.32762297  0.41443611  0.43610105  1
  H+  H352  1  0.58230251  0.66813421  0.10718112  1
  H+  H353  1  0.91987399  0.32554968  0.90732561  1
  H+  H354  1  0.08513520  0.92209790  0.40032194  1
  H+  H355  1  0.17488604  0.32785415  0.22570523  1
  H+  H356  1  0.06842791  0.91647267  0.74130200  1
  H+  H357  1  0.83469114  0.17015491  0.42253409  1
  H+  H358  1  0.84048032  0.65895136  0.43201660  1
  H+  H359  1  0.83864763  0.93275622  0.76930943  1
  H+  H360  1  0.35835906  0.13518252  0.16333068  1
  H+  H361  1  0.18440766  0.84473074  0.60511345  1
  H+  H362  1  0.66673810  0.83017225  0.23437919  1
  H+  H363  1  0.89197149  0.12833117  0.49972309  1
  H+  H364  1  0.83928307  0.65658765  0.71761647  1
  H+  H365  1  0.62728335  0.21639840  0.15802089  1
  H+  H366  1  0.43852480  0.08284755  0.55294828  1
  H+  H367  1  0.60178570  0.67431874  0.76747569  1
  H+  H368  1  0.64193808  0.57453154  0.94648857  1
  H+  H369  1  0.06627743  0.02859148  0.21044461  1
  H+  H370  1  0.34274680  0.91368676  0.76362277  1
  H+  H371  1  0.35337475  0.70295812  0.39864629  1
  H+  H372  1  0.42614754  0.58656235  0.93809189  1
  H+  H373  1  0.06585360  0.15088137  0.76724948  1
  H+  H374  1  0.16053876  0.82796781  0.26357601  1
  H+  H375  1  0.91651804  0.09202028  0.60018679  1
  H+  H376  1  0.67203136  0.09064030  0.59532782  1
  H+  H377  1  0.85165519  0.92156266  0.43234099  1
  H+  H378  1  0.92183540  0.83366637  0.60429532  1
  H+  H379  1  0.08708446  0.40962521  0.06850384  1
  H+  H380  1  0.12729105  0.32767609  0.91554033  1
  H+  H381  1  0.58249123  0.40366511  0.10503138  1
  H+  H382  1  0.60687310  0.42683587  0.40976870  1
  H+  H383  1  0.64043043  0.25844733  0.33761112  1
  O2-  O384  1  0.09184392  0.17205110  0.13612125  1
  O2-  O385  1  0.08365669  0.17743483  0.48034100  1
  O2-  O386  1  0.05014480  0.13378428  0.81012969  1
  O2-  O387  1  0.09607985  0.41338824  0.14256162  1
  O2-  O388  1  0.08768113  0.43784817  0.47953369  1
  O2-  O389  1  0.05268905  0.33426120  0.80241486  1
  O2-  O390  1  0.08180643  0.65880132  0.14440556  1
  O2-  O391  1  0.09454706  0.68179688  0.47419681  1
  O2-  O392  1  0.10036807  0.68191363  0.81241456  1
  O2-  O393  1  0.08098799  0.90593082  0.14447960  1
  O2-  O394  1  0.08177506  0.91921970  0.48011332  1
  O2-  O395  1  0.06065212  0.89941460  0.81059131  1
  O2-  O396  1  0.31926755  0.15195848  0.14314728  1
  O2-  O397  1  0.32779914  0.18400677  0.47590744  1
  O2-  O398  1  0.25482129  0.08399553  0.83170145  1
  O2-  O399  1  0.33920541  0.42034754  0.14651376  1
  O2-  O400  1  0.32207875  0.40985382  0.48214756  1
  O2-  O401  1  0.30193167  0.39488399  0.79049964  1
  O2-  O402  1  0.33567391  0.66119523  0.13844471  1
  O2-  O403  1  0.34355230  0.68811903  0.47830455  1
  O2-  O404  1  0.32613270  0.65056371  0.82912739  1
  O2-  O405  1  0.33260610  0.92103914  0.14462367  1
  O2-  O406  1  0.33801712  0.91851043  0.48104685  1
  O2-  O407  1  0.34457688  0.91142314  0.80970794  1
  O2-  O408  1  0.58450886  0.15632681  0.15099512  1
  O2-  O409  1  0.59405236  0.16851283  0.47367150  1
  O2-  O410  1  0.55861487  0.18645313  0.79631147  1
  O2-  O411  1  0.57672267  0.40122937  0.15020192  1
  O2-  O412  1  0.55996206  0.39522255  0.52067524  1
  O2-  O413  1  0.60825922  0.42846280  0.81792843  1
  O2-  O414  1  0.58354390  0.66708469  0.15229903  1
  O2-  O415  1  0.61785315  0.69475267  0.48852247  1
  O2-  O416  1  0.59892955  0.66975454  0.81310159  1
  O2-  O417  1  0.57378725  0.90955544  0.15591766  1
  O2-  O418  1  0.58683820  0.93423326  0.47702291  1
  O2-  O419  1  0.60359267  0.92280705  0.79886494  1
  O2-  O420  1  0.83035238  0.16160232  0.11625112  1
  O2-  O421  1  0.83474863  0.16769883  0.47067290  1
  O2-  O422  1  0.81823924  0.17008675  0.81546044  1
  O2-  O423  1  0.84385091  0.41405896  0.13774103  1
  O2-  O424  1  0.86375523  0.41495059  0.47745664  1
  O2-  O425  1  0.82836352  0.40181364  0.81967267  1
  O2-  O426  1  0.86215169  0.68727429  0.14432581  1
  O2-  O427  1  0.84171400  0.65686437  0.47816087  1
  O2-  O428  1  0.84490911  0.65016151  0.79379164  1
  O2-  O429  1  0.84424784  0.92818939  0.15473962  1
  O2-  O430  1  0.86281650  0.93819384  0.47687141  1
  O2-  O431  1  0.83333514  0.93012374  0.81408690  1
  O2-  O432  1  0.12529491  0.06861276  0.19813757  1
  O2-  O433  1  0.17576215  0.09254901  0.52616715  1
  O2-  O434  1  0.17142165  0.06226861  0.85861867  1
  O2-  O435  1  0.17535133  0.32975730  0.17992233  1
  O2-  O436  1  0.15847500  0.32799122  0.51892143  1
  O2-  O437  1  0.13248839  0.38240043  0.83807481  1
  O2-  O438  1  0.17191460  0.57904070  0.18282339  1
  O2-  O439  1  0.17828948  0.60416273  0.51587121  1
  O2-  O440  1  0.16742256  0.58086439  0.86457738  1
  O2-  O441  1  0.16594457  0.82473471  0.18420447  1
  O2-  O442  1  0.17423534  0.83931168  0.52305384  1
  O2-  O443  1  0.17654767  0.85550757  0.86120740  1
  O2-  O444  1  0.44978096  0.14543089  0.20093208  1
  O2-  O445  1  0.43657368  0.08511571  0.50815666  1
  O2-  O446  1  0.40385368  0.06954705  0.85376796  1
  O2-  O447  1  0.40390076  0.32441934  0.18322362  1
  O2-  O448  1  0.39037046  0.32363940  0.53479691  1
  O2-  O449  1  0.40785260  0.32386067  0.81607518  1
  O2-  O450  1  0.41831217  0.58680905  0.18735671  1
  O2-  O451  1  0.40353996  0.57640100  0.52007060  1
  O2-  O452  1  0.43664694  0.56674539  0.85582404  1
  O2-  O453  1  0.39254160  0.82532403  0.17931996  1
  O2-  O454  1  0.42792577  0.84846790  0.51935006  1
  O2-  O455  1  0.42957339  0.82201976  0.84178325  1
  O2-  O456  1  0.66042455  0.07221332  0.19481495  1
  O2-  O457  1  0.67880013  0.09457470  0.51780160  1
  O2-  O458  1  0.65786964  0.13309784  0.87344277  1
  O2-  O459  1  0.68009621  0.34986290  0.19457076  1
  O2-  O460  1  0.65170932  0.31772418  0.51829449  1
  O2-  O461  1  0.68140384  0.35533720  0.88511427  1
  O2-  O462  1  0.66083436  0.57661391  0.19360613  1
  O2-  O463  1  0.66903936  0.56567095  0.52427664  1
  O2-  O464  1  0.69122919  0.58480680  0.85605797  1
  O2-  O465  1  0.66949201  0.83449443  0.18924186  1
  O2-  O466  1  0.69354385  0.87254213  0.51937449  1
  O2-  O467  1  0.59487023  0.79791742  0.87181654  1
  O2-  O468  1  0.92281410  0.09961288  0.17121031  1
  O2-  O469  1  0.92665368  0.10314273  0.51747949  1
  O2-  O470  1  0.89745275  0.09104728  0.86042723  1
  O2-  O471  1  0.93202677  0.32579056  0.16926399  1
  O2-  O472  1  0.91176675  0.30962147  0.52052269  1
  O2-  O473  1  0.92004353  0.32648614  0.86215505  1
  O2-  O474  1  0.91419384  0.56820364  0.18607636  1
  O2-  O475  1  0.93392975  0.58159758  0.52012614  1
  O2-  O476  1  0.90485094  0.56097201  0.87033633  1
  O2-  O477  1  0.92343818  0.83953321  0.19394277  1
  O2-  O478  1  0.90975397  0.81362182  0.52570763  1
  O2-  O479  1  0.90551224  0.85165190  0.85928043  1
  O2-  O480  1  0.16241767  0.09868813  0.32019865  1
  O2-  O481  1  0.16800176  0.08577696  0.65397769  1
  O2-  O482  1  0.17246539  0.07671581  0.98337909  1
  O2-  O483  1  0.17990792  0.32804086  0.29971838  1
  O2-  O484  1  0.14061882  0.33635784  0.64337803  1
  O2-  O485  1  0.13511849  0.31498236  0.95766901  1
  O2-  O486  1  0.21564994  0.55673582  0.29763881  1
  O2-  O487  1  0.18146267  0.59195609  0.63845385  1
  O2-  O488  1  0.16547153  0.57273337  0.98563562  1
  O2-  O489  1  0.15704739  0.82628658  0.30880287  1
  O2-  O490  1  0.18996038  0.84897426  0.64993122  1
  O2-  O491  1  0.17326522  0.83566521  0.97717033  1
  O2-  O492  1  0.44319233  0.07476487  0.31268468  1
  O2-  O493  1  0.43283510  0.08376983  0.63496070  1
  O2-  O494  1  0.43230654  0.08841894  0.97567023  1
  O2-  O495  1  0.40894071  0.34299003  0.30475988  1
  O2-  O496  1  0.43405099  0.32640430  0.65845941  1
  O2-  O497  1  0.42774378  0.32885412  0.99662897  1
  O2-  O498  1  0.37253209  0.57430436  0.30704227  1
  O2-  O499  1  0.43354120  0.59158483  0.63909428  1
  O2-  O500  1  0.42342023  0.58941809  0.98274116  1
  O2-  O501  1  0.43996946  0.86122555  0.30615236  1
  O2-  O502  1  0.42231305  0.84063138  0.64072440  1
  O2-  O503  1  0.41480660  0.83556517  0.99345008  1
  O2-  O504  1  0.69138564  0.09762955  0.30693637  1
  O2-  O505  1  0.66923549  0.08585574  0.64085360  1
  O2-  O506  1  0.67794030  0.07318523  0.99851733  1
  O2-  O507  1  0.66052948  0.31938027  0.32274005  1
  O2-  O508  1  0.67455797  0.34228993  0.64166398  1
  O2-  O509  1  0.71636562  0.41793609  0.93544086  1
  O2-  O510  1  0.68018152  0.58608646  0.31031784  1
  O2-  O511  1  0.66953788  0.58495473  0.64659147  1
  O2-  O512  1  0.64810611  0.57808264  0.99081671  1
  O2-  O513  1  0.65887890  0.81805870  0.31382858  1
  O2-  O514  1  0.67576209  0.83835747  0.64358328  1
  O2-  O515  1  0.64568717  0.82003259  0.98687962  1
  O2-  O516  1  0.93554413  0.12729765  0.30274158  1
  O2-  O517  1  0.91617720  0.08577068  0.64496240  1
  O2-  O518  1  0.91646777  0.08287157  0.98394372  1
  O2-  O519  1  0.90840532  0.33016750  0.32213967  1
  O2-  O520  1  0.89801277  0.31550517  0.63824563  1
  O2-  O521  1  0.91888831  0.32882098  0.99009863  1
  O2-  O522  1  0.91236090  0.57152831  0.30982144  1
  O2-  O523  1  0.89823606  0.55309059  0.64188220  1
  O2-  O524  1  0.88951273  0.56121663  0.98517118  1
  O2-  O525  1  0.91890180  0.83210902  0.31572135  1
  O2-  O526  1  0.92274410  0.83832371  0.64947214  1
  O2-  O527  1  0.91268741  0.82663034  0.98467185  1
  O2-  O528  1  0.08922493  0.16307468  0.00951040  1
  O2-  O529  1  0.07792672  0.17223642  0.36809769  1
  O2-  O530  1  0.08015621  0.16404414  0.68522670  1
  O2-  O531  1  0.07818624  0.40794514  0.02296109  1
  O2-  O532  1  0.06995763  0.41981200  0.35672074  1
  O2-  O533  1  0.05258364  0.40505771  0.69719136  1
  O2-  O534  1  0.08666424  0.65674814  0.01237669  1
  O2-  O535  1  0.06946419  0.65661543  0.34936798  1
  O2-  O536  1  0.10736722  0.68859029  0.68914447  1
  O2-  O537  1  0.08016076  0.90730608  0.02022774  1
  O2-  O538  1  0.08304921  0.92340335  0.35511210  1
  O2-  O539  1  0.07193713  0.92602392  0.69494706  1
  O2-  O540  1  0.33821022  0.16124695  0.01902438  1
  O2-  O541  1  0.32972473  0.19809170  0.35781693  1
  O2-  O542  1  0.33191223  0.18286696  0.72320928  1
  O2-  O543  1  0.35381128  0.43526604  0.02396320  1
  O2-  O544  1  0.33564761  0.42522002  0.36185506  1
  O2-  O545  1  0.36004013  0.42080111  0.67794208  1
  O2-  O546  1  0.32872247  0.66157908  0.01822318  1
  O2-  O547  1  0.35565499  0.70013058  0.35366774  1
  O2-  O548  1  0.33813215  0.67213506  0.67427210  1
  O2-  O549  1  0.35646597  0.93251058  0.03464847  1
  O2-  O550  1  0.31046702  0.92144926  0.36581306  1
  O2-  O551  1  0.34389621  0.91999674  0.68924582  1
  O2-  O552  1  0.60024344  0.16497146  -0.02136464  1
  O2-  O553  1  0.61141709  0.16133492  0.35589089  1
  O2-  O554  1  0.58876629  0.17210886  0.68061089  1
  O2-  O555  1  0.59709757  0.40893440  0.02582563  1
  O2-  O556  1  0.57349670  0.41180598  0.29755910  1
  O2-  O557  1  0.60382052  0.42398872  0.67510304  1
  O2-  O558  1  0.57819105  0.67082828  0.02737485  1
  O2-  O559  1  0.57871468  0.65452280  0.36094312  1
  O2-  O560  1  0.59424482  0.67675791  0.68962994  1
  O2-  O561  1  0.58613685  0.90608043  0.03557922  1
  O2-  O562  1  0.59713480  0.92547093  0.35308201  1
  O2-  O563  1  0.59243552  0.91922656  0.67574747  1
  O2-  O564  1  0.83836799  0.16418031  0.04922976  1
  O2-  O565  1  0.83941264  0.17508859  0.35575845  1
  O2-  O566  1  0.82739021  0.16018461  0.68935170  1
  O2-  O567  1  0.84220600  0.40837876  0.02275406  1
  O2-  O568  1  0.82581091  0.41834937  0.36543953  1
  O2-  O569  1  0.82230370  0.40349862  0.69138020  1
  O2-  O570  1  0.81273709  0.65823039  0.01743122  1
  O2-  O571  1  0.84005442  0.66464602  0.35719383  1
  O2-  O572  1  0.83357042  0.66244075  0.67295632  1
  O2-  O573  1  0.84232926  0.91987081  0.03673714  1
  O2-  O574  1  0.82478565  0.88784347  0.36234706  1
  O2-  O575  1  0.84127363  0.91943563  0.68544467  1
