# generated using pymatgen
data_H2O
_symmetry_space_group_name_H-M   'P 1'
_cell_length_a   17.99658954
_cell_length_b   17.99657656
_cell_length_c   22.01441179
_cell_angle_alpha   89.99720909
_cell_angle_beta   89.98427412
_cell_angle_gamma   120.00760145
_symmetry_Int_Tables_number   1
_chemical_formula_structural   H2O
_chemical_formula_sum   'H384 O192'
_cell_volume   6174.25454677
_cell_formula_units_Z   192
loop_
 _symmetry_equiv_pos_site_id
 _symmetry_equiv_pos_as_xyz
  1  'x, y, z'
loop_
 _atom_type_symbol
 _atom_type_oxidation_number
  H+  1.0
  O2-  -2.0
loop_
 _atom_site_type_symbol
 _atom_site_label
 _atom_site_symmetry_multiplicity
 _atom_site_fract_x
 _atom_site_fract_y
 _atom_site_fract_z
 _atom_site_occupancy
  H+  H0  1  0.59898154  0.88016516  0.00454183  1
  H+  H1  1  0.14072890  0.77342800  1.00241566  1
  H+  H2  1  0.36676408  0.84562624  1.01452828  1
  H+  H3  1  0.51971296  0.63123614  0.49631646  1
  H+  H4  1  0.13043739  0.85860278  0.17755768  1
  H+  H5  1  0.24767564  0.10948925  0.15618918  1
  H+  H6  1  0.86475958  0.50485711  0.17621189  1
  H+  H7  1  0.23224086  0.36750793  -0.00422516  1
  H+  H8  1  0.38226512  0.10559868  0.17427686  1
  H+  H9  1  0.37383976  0.86786807  0.81212479  1
  H+  H10  1  0.86517437  0.13116436  -0.00030548  1
  H+  H11  1  0.13514893  0.26624399  0.66051260  1
  H+  H12  1  0.62920601  0.64776790  0.13923932  1
  H+  H13  1  0.50855747  0.87667301  1.01085899  1
  H+  H14  1  0.22321424  0.86433877  0.17670211  1
  H+  H15  1  0.86904621  0.47420673  0.49112422  1
  H+  H16  1  0.86899544  0.13108781  0.15393354  1
  H+  H17  1  0.97925093  0.61598254  0.50805739  1
  H+  H18  1  0.35875871  0.12821600  0.34228853  1
  H+  H19  1  0.63577604  0.61926713  0.50075456  1
  H+  H20  1  0.36961354  0.95147852  0.82670499  1
  H+  H21  1  0.92746161  0.07779672  0.93155679  1
  H+  H22  1  0.12773834  0.01514813  0.99721941  1
  H+  H23  1  0.29734822  0.65200774  0.69717196  1
  H+  H24  1  0.01758159  0.21208695  0.44975807  1
  H+  H25  1  0.90340084  0.27756020  0.98340128  1
  H+  H26  1  0.09415758  0.25415941  1.03225337  1
  H+  H27  1  0.63243294  0.77071801  0.65247357  1
  H+  H28  1  0.78259298  0.30552662  0.37710792  1
  H+  H29  1  0.88411024  0.11218789  0.84420943  1
  H+  H30  1  0.62855437  0.86379788  0.32321548  1
  H+  H31  1  0.05999443  0.38866158  0.08201633  1
  H+  H32  1  0.05133071  0.63355971  0.83041752  1
  H+  H33  1  0.13275611  0.27294313  0.84132791  1
  H+  H34  1  0.89359179  0.35483243  0.32301216  1
  H+  H35  1  0.34734360  0.11404696  0.50116485  1
  H+  H36  1  0.14306372  0.23081465  0.32461930  1
  H+  H37  1  0.37099190  0.50428800  0.65930256  1
  H+  H38  1  0.88286662  1.02004535  0.84802898  1
  H+  H39  1  0.85903522  0.72631883  0.49660923  1
  H+  H40  1  0.73564454  0.62397052  0.50033210  1
  H+  H41  1  0.61923534  0.24839937  0.49697273  1
  H+  H42  1  0.81660953  0.54557789  0.21086740  1
  H+  H43  1  0.32958487  0.91498368  0.73844567  1
  H+  H44  1  0.82999942  0.90904027  0.10780425  1
  H+  H45  1  0.65544671  1.03566883  0.65761934  1
  H+  H46  1  0.37670251  0.36240441  0.36596107  1
  H+  H47  1  0.11815528  0.00716366  0.17983390  1
  H+  H48  1  0.35619400  0.48246872  0.82557168  1
  H+  H49  1  0.56953163  0.23885376  0.80012783  1
  H+  H50  1  0.62849537  0.59796287  0.65139562  1
  H+  H51  1  0.60872174  0.72187597  0.49183311  1
  H+  H52  1  0.35671847  0.59557249  -0.01173332  1
  H+  H53  1  0.52690255  0.13372571  0.16556091  1
  H+  H54  1  0.35163446  0.49330358  0.34209917  1
  H+  H55  1  0.88256857  0.63949298  0.14792393  1
  H+  H56  1  0.21717030  0.11857804  0.65683191  1
  H+  H57  1  0.75460838  0.38637056  0.84342015  1
  H+  H58  1  0.52226444  0.89971031  0.16019476  1
  H+  H59  1  0.25086883  0.87832376  0.66863390  1
  H+  H60  1  0.77800202  0.13535977  0.48701552  1
  H+  H61  1  0.22282780  0.10435018  0.33209501  1
  H+  H62  1  0.47328422  0.12660774  0.50740426  1
  H+  H63  1  0.12568871  0.50054493  0.01265948  1
  H+  H64  1  0.16236052  0.61172264  0.83513518  1
  H+  H65  1  0.35658910  -0.01704600  0.67684978  1
  H+  H66  1  1.03809330  0.38605843  0.33078123  1
  H+  H67  1  0.74337325  0.86317565  0.84745154  1
  H+  H68  1  0.52344985  0.65019348  0.82976967  1
  H+  H69  1  0.49445172  0.85693608  0.82700670  1
  H+  H70  1  0.60643394  0.46837126  0.83413478  1
  H+  H71  1  0.14843934  0.53691598  0.16731674  1
  H+  H72  1  0.01704846  0.14079109  0.82916541  1
  H+  H73  1  0.03131155  0.15313167  0.12633507  1
  H+  H74  1  0.52386927  0.13120362  0.34088520  1
  H+  H75  1  0.85631865  0.97070595  0.49349531  1
  H+  H76  1  0.64108083  0.11194125  -0.00131859  1
  H+  H77  1  0.27292939  0.88969233  1.01652086  1
  H+  H78  1  0.93917228  0.64153088  0.85185227  1
  H+  H79  1  0.01866315  0.87630512  0.49560750  1
  H+  H80  1  0.98517858  0.05932868  0.97595099  1
  H+  H81  1  0.61648952  0.13222115  0.16493796  1
  H+  H82  1  0.85613796  0.99116651  0.33405302  1
  H+  H83  1  0.02412688  0.29088476  0.09859877  1
  H+  H84  1  0.57766105  0.19086404  0.43621269  1
  H+  H85  1  0.53147915  0.13683229  0.01302597  1
  H+  H86  1  0.46562274  0.10348025  0.84089973  1
  H+  H87  1  0.90320176  0.37456195  0.83559777  1
  H+  H88  1  0.21964133  0.37771058  0.16598856  1
  H+  H89  1  0.99649815  0.61269078  0.99525086  1
  H+  H90  1  0.42737245  0.32183619  0.19572849  1
  H+  H91  1  0.90568584  0.02474786  0.16939128  1
  H+  H92  1  0.62054449  0.73034911  0.83236425  1
  H+  H93  1  0.63504041  -0.03169707  0.83060071  1
  H+  H94  1  0.10983272  0.85707097  0.84823775  1
  H+  H95  1  0.36212077  0.64706535  0.78103850  1
  H+  H96  1  0.12177494  0.47709449  0.33589863  1
  H+  H97  1  0.61526105  0.97709897  0.33442164  1
  H+  H98  1  0.88888813  0.27138573  0.50039576  1
  H+  H99  1  0.52786492  0.89070600  0.49071821  1
  H+  H100  1  0.92486507  0.73678725  0.12508199  1
  H+  H101  1  0.72130104  0.35487899  0.32783270  1
  H+  H102  1  0.21707634  0.10116193  -0.00737479  1
  H+  H103  1  0.78066976  0.37707733  0.16184108  1
  H+  H104  1  0.28214212  0.90626445  0.33366252  1
  H+  H105  1  0.11635470  -0.02665827  0.34572836  1
  H+  H106  1  0.12840732  0.48362017  0.83170900  1
  H+  H107  1  0.30961429  0.18170842  0.75257805  1
  H+  H108  1  0.52214804  0.89078414  0.33546967  1
  H+  H109  1  0.41483439  0.08901171  0.23824847  1
  H+  H110  1  0.88202929  0.86304486  0.65109391  1
  H+  H111  1  0.57381044  0.42182591  0.15777306  1
  H+  H112  1  0.52198914  0.70279007  0.70318347  1
  H+  H113  1  0.88890796  0.61366172  0.50893768  1
  H+  H114  1  0.85432591  0.96287742  0.01261150  1
  H+  H115  1  0.72328524  0.85692825  0.64164866  1
  H+  H116  1  0.10386700  0.24250956  0.48470705  1
  H+  H117  1  0.98630308  0.86467518  0.33247585  1
  H+  H118  1  0.41568217  0.82600369  0.58107662  1
  H+  H119  1  0.87713654  0.23909669  0.67098228  1
  H+  H120  1  0.35006331  0.71541750  0.50443010  1
  H+  H121  1  0.75404933  0.63565691  0.82841164  1
  H+  H122  1  0.82707165  0.39328749  0.41159708  1
  H+  H123  1  0.67236370  0.54433224  0.12644824  1
  H+  H124  1  0.28812958  0.68859822  0.03369483  1
  H+  H125  1  0.86309283  0.88578632  0.17041360  1
  H+  H126  1  1.01497308  0.87820272  1.01117745  1
  H+  H127  1  0.64383303  0.53029431  0.35681093  1
  H+  H128  1  0.45995628  0.17320304  0.30243255  1
  H+  H129  1  0.37032384  0.99801695  0.33390587  1
  H+  H130  1  0.00406423  0.17007405  0.02677899  1
  H+  H131  1  0.65047264  0.27834382  0.65239705  1
  H+  H132  1  0.36527488  0.89059481  0.48024189  1
  H+  H133  1  0.77682527  0.13618690  0.33461441  1
  H+  H134  1  0.24035638  0.34732213  0.31116308  1
  H+  H135  1  0.33521735  0.14802751  0.80875840  1
  H+  H136  1  0.39025206  0.52291615  0.15207945  1
  H+  H137  1  0.88196638  0.11542075  0.66123833  1
  H+  H138  1  0.35800497  0.97871176  0.16916620  1
  H+  H139  1  0.22763786  0.36237282  0.50723463  1
  H+  H140  1  0.38978785  0.87740478  0.32801718  1
  H+  H141  1  0.86888502  0.47891162  0.67336876  1
  H+  H142  1  0.61104621  0.21916561  0.33546444  1
  H+  H143  1  0.66810149  0.36902769  0.51571708  1
  H+  H144  1  0.86470058  0.13237600  0.48966185  1
  H+  H145  1  0.63211165  0.85683452  0.49511217  1
  H+  H146  1  0.13012468  0.51222603  0.49311092  1
  H+  H147  1  0.87975831  0.87387523  0.84977903  1
  H+  H148  1  0.86775513  0.63756288  0.34657440  1
  H+  H149  1  0.36517143  0.48065605  0.50247094  1
  H+  H150  1  0.89534712  0.26835988  0.31737870  1
  H+  H151  1  0.03329830  0.64128220  0.34293856  1
  H+  H152  1  0.12845302  0.02607615  0.66299752  1
  H+  H153  1  0.75460305  0.63863635  0.12395059  1
  H+  H154  1  0.35745819  0.88961079  0.16747552  1
  H+  H155  1  0.85644023  0.98167230  0.66033142  1
  H+  H156  1  0.12843500  1.00499897  0.51229252  1
  H+  H157  1  0.12576456  0.50987501  0.65319041  1
  H+  H158  1  0.98835593  0.37088477  0.98398019  1
  H+  H159  1  0.62470790  0.61116649  0.84572322  1
  H+  H160  1  0.65196524  0.40065878  0.66559040  1
  H+  H161  1  0.12001173  0.12918459  0.34201515  1
  H+  H162  1  0.40804956  0.61154252  0.12612904  1
  H+  H163  1  0.64369275  0.27386705  0.99954351  1
  H+  H164  1  0.52727188  0.38823643  0.35186489  1
  H+  H165  1  0.87871944  0.78117041  0.84360154  1
  H+  H166  1  0.10852404  0.87567844  0.49867596  1
  H+  H167  1  0.88979921  0.36162718  0.50132736  1
  H+  H168  1  0.38070658  0.61102660  0.50853487  1
  H+  H169  1  0.75806306  0.89069211  0.34017287  1
  H+  H170  1  0.77795690  0.13238966  0.00129462  1
  H+  H171  1  0.86979258  0.77454805  0.19566039  1
  H+  H172  1  0.47096544  0.10727025  0.65619291  1
  H+  H173  1  0.02321537  0.38037256  0.48438360  1
  H+  H174  1  0.57715013  0.67041583  0.40116785  1
  H+  H175  1  0.14198828  0.61684133  0.32840408  1
  H+  H176  1  0.65534101  0.35943656  0.16494358  1
  H+  H177  1  0.87944272  0.10795994  0.32235633  1
  H+  H178  1  0.62551613  0.51055663  -0.00363241  1
  H+  H179  1  0.69229123  0.29206242  0.86150001  1
  H+  H180  1  0.39524602  0.02770668  0.50369984  1
  H+  H181  1  0.39824642  0.37146605  0.52039644  1
  H+  H182  1  0.16779154  0.32615670  0.60204963  1
  H+  H183  1  0.64320792  0.26458411  0.17176302  1
  H+  H184  1  0.97075399  0.34317939  0.15678635  1
  H+  H185  1  0.77863899  0.14544455  0.82841821  1
  H+  H186  1  0.37571970  0.28212361  0.83343971  1
  H+  H187  1  0.88423077  0.49151047  0.82357253  1
  H+  H188  1  0.90481839  0.60881095  0.98586618  1
  H+  H189  1  0.14299934  0.86488143  0.33165201  1
  H+  H190  1  0.11036624  0.62831652  0.49712185  1
  H+  H191  1  0.88326494  0.86021132  0.50056153  1
  H+  H192  1  0.36845263  0.06533167  0.86053802  1
  H+  H193  1  0.88797751  0.61571484  0.66084862  1
  H+  H194  1  0.01990440  0.89662662  0.67445920  1
  H+  H195  1  0.77079580  0.63931189  0.66610821  1
  H+  H196  1  0.61398117  0.38628800  0.33741994  1
  H+  H197  1  0.63376057  0.87931432  0.82720872  1
  H+  H198  1  0.61801870  0.07293442  0.84908811  1
  H+  H199  1  0.46761703  0.79017743  0.54990514  1
  H+  H200  1  0.10027972  0.13006087  0.67323850  1
  H+  H201  1  0.12988332  0.72594843  0.82992745  1
  H+  H202  1  0.01314220  0.89054410  0.83161959  1
  H+  H203  1  0.12196242  0.73147891  0.34271036  1
  H+  H204  1  0.38316722  0.62793062  0.33010110  1
  H+  H205  1  0.89696377  0.37027260  0.65555767  1
  H+  H206  1  0.12673303  0.41098649  1.00309935  1
  H+  H207  1  0.88364300  0.77499998  0.65581453  1
  H+  H208  1  0.91446110  0.57135162  0.27460101  1
  H+  H209  1  0.10314464  -0.02190630  0.83323771  1
  H+  H210  1  0.14246364  0.76974005  0.50808801  1
  H+  H211  1  0.58581404  0.62732936  0.00210162  1
  H+  H212  1  0.77961682  0.64070237  0.35570266  1
  H+  H213  1  0.36179023  0.12573565  0.00534965  1
  H+  H214  1  0.73985213  0.86439936  0.17915941  1
  H+  H215  1  0.63763341  1.02404008  0.17129294  1
  H+  H216  1  0.64055436  0.10955128  0.32454742  1
  H+  H217  1  0.52072708  0.64395651  0.34072634  1
  H+  H218  1  0.36349422  0.24040943  0.66908564  1
  H+  H219  1  0.27359506  0.64445656  0.34242657  1
  H+  H220  1  0.89220486  0.37329325  0.16955731  1
  H+  H221  1  0.87344672  0.47745630  1.01271219  1
  H+  H222  1  0.34670875  0.21050810  0.35958084  1
  H+  H223  1  0.10357444  0.13809313  0.83183459  1
  H+  H224  1  0.55207610  0.30325728  0.47207382  1
  H+  H225  1  0.65029776  0.02705909  0.50150659  1
  H+  H226  1  0.27916970  0.65216753  0.16005188  1
  H+  H227  1  0.10497911  0.87877376  1.01631011  1
  H+  H228  1  0.51599463  0.37066841  1.00414085  1
  H+  H229  1  0.33152460  0.19871708  0.15021582  1
  H+  H230  1  0.89601411  0.77760278  0.33383197  1
  H+  H231  1  0.89556210  0.51989063  0.33595946  1
  H+  H232  1  0.36979606  0.62846748  0.68227293  1
  H+  H233  1  0.20728133  0.11708892  0.84254892  1
  H+  H234  1  0.08740127  0.67058661  0.06682869  1
  H+  H235  1  0.63073663  0.77433378  0.32891544  1
  H+  H236  1  0.26016732  0.62566889  0.49944124  1
  H+  H237  1  0.24350789  0.59722813  0.84327185  1
  H+  H238  1  0.46243222  0.59094431  0.65820717  1
  H+  H239  1  0.57904011  0.92376563  0.10056436  1
  H+  H240  1  0.22794439  0.86211611  0.50239406  1
  H+  H241  1  0.88381733  0.76923244  -0.01230796  1
  H+  H242  1  0.64293288  0.61895939  0.35200595  1
  H+  H243  1  0.38799217  0.78687020  0.17462038  1
  H+  H244  1  0.07323991  0.16148988  0.73388736  1
  H+  H245  1  0.71454213  0.85531911  1.00090322  1
  H+  H246  1  0.47852918  0.35621321  0.51544260  1
  H+  H247  1  0.64513791  0.76832966  0.17540171  1
  H+  H248  1  0.37060708  0.38068460  0.00241682  1
  H+  H249  1  0.22318171  0.36291669  0.84145977  1
  H+  H250  1  0.68193832  0.08857360  0.55920391  1
  H+  H251  1  0.73010925  0.11064328  0.17055627  1
  H+  H252  1  0.73771218  0.12911841  0.65564297  1
  H+  H253  1  0.14019988  0.36636417  0.50371476  1
  H+  H254  1  0.14468237  0.77887149  0.66267835  1
  H+  H255  1  0.15980780  0.65229964  0.67523016  1
  H+  H256  1  0.36343670  0.39692294  0.83054719  1
  H+  H257  1  0.36266685  0.65684888  0.18339869  1
  H+  H258  1  1.02887931  0.64140865  0.16591719  1
  H+  H259  1  0.67251002  0.59271861  1.03656845  1
  H+  H260  1  0.85231455  0.87441814  0.01219293  1
  H+  H261  1  0.06752902  0.90481859  0.10778028  1
  H+  H262  1  0.96816184  0.10886566  0.66353222  1
  H+  H263  1  1.02587244  0.64568638  0.67633876  1
  H+  H264  1  0.39293062  0.01879484  1.00711877  1
  H+  H265  1  0.41022759  0.57961603  0.56793916  1
  H+  H266  1  0.77837065  0.39436115  0.01696908  1
  H+  H267  1  0.13065295  0.64076171  0.01331637  1
  H+  H268  1  0.67245040  0.82834450  0.90257034  1
  H+  H269  1  0.96875729  0.10469415  0.50957704  1
  H+  H270  1  0.16939046  0.83448895  0.27086716  1
  H+  H271  1  0.86903675  0.23350614  0.82686608  1
  H+  H272  1  0.65894668  0.82442905  0.55513822  1
  H+  H273  1  0.63069490  0.89898466  0.66683108  1
  H+  H274  1  0.78063391  0.62355882  -0.00985428  1
  H+  H275  1  0.76673472  0.88104324  0.48820694  1
  H+  H276  1  0.34328772  0.38163798  0.15573028  1
  H+  H277  1  0.61564935  0.38622280  0.83757623  1
  H+  H278  1  0.39191750  0.36530619  0.66986602  1
  H+  H279  1  0.60839812  0.17985575  0.80953085  1
  H+  H280  1  0.26635177  0.37560613  0.67159388  1
  H+  H281  1  0.38152601  0.25860071  0.99149317  1
  H+  H282  1  0.11981038  0.34933955  0.16882030  1
  H+  H283  1  0.26538941  0.43913323  0.37825998  1
  H+  H284  1  0.01075323  0.87733115  0.17001753  1
  H+  H285  1  0.91041708  0.07587067  0.56972985  1
  H+  H286  1  0.11553954  0.73243365  0.16590585  1
  H+  H287  1  0.57621174  0.67430224  0.74025757  1
  H+  H288  1  0.94480469  0.58563732  0.90618638  1
  H+  H289  1  0.92640074  0.33708781  0.23059444  1
  H+  H290  1  0.02675076  0.38909481  0.83107877  1
  H+  H291  1  0.04037103  0.42642289  0.63146024  1
  H+  H292  1  0.53564292  0.63961545  0.15324464  1
  H+  H293  1  0.16422694  0.83681082  0.94609189  1
  H+  H294  1  0.08848184  0.17912739  0.39410225  1
  H+  H295  1  0.84715677  0.65896161  0.04523695  1
  H+  H296  1  0.33841864  0.92837751  0.42458699  1
  H+  H297  1  0.36794352  0.46977712  -0.00190631  1
  H+  H298  1  0.38439066  0.78506055  0.33211302  1
  H+  H299  1  0.60959917  0.37669100  0.00332244  1
  H+  H300  1  0.69374303  0.33884833  0.59211673  1
  H+  H301  1  0.33039985  0.41482554  0.09164075  1
  H+  H302  1  0.66824977  0.58616881  0.56246506  1
  H+  H303  1  0.91764795  0.83863080  0.25138833  1
  H+  H304  1  0.59218702  0.16759514  0.07111715  1
  H+  H305  1  0.42771067  0.07184311  0.94583990  1
  H+  H306  1  0.91942018  0.33538629  0.59479906  1
  H+  H307  1  0.13988959  0.62017174  0.17172816  1
  H+  H308  1  0.68101052  0.60522352  0.23816638  1
  H+  H309  1  0.61712706  0.93030297  0.73146457  1
  H+  H310  1  0.42984041  0.34188918  0.61280647  1
  H+  H311  1  0.13364042  0.53573235  0.55997674  1
  H+  H312  1  0.81015723  0.91067863  0.71146318  1
  H+  H313  1  0.11835061  0.38274487  0.83411845  1
  H+  H314  1  0.32057165  0.14794598  0.06126260  1
  H+  H315  1  0.64995958  0.51994111  0.65220025  1
  H+  H316  1  0.63190485  0.01837117  0.99667419  1
  H+  H317  1  0.83531207  0.15678744  0.09568481  1
  H+  H318  1  0.83489221  0.66653048  0.43745170  1
  H+  H319  1  0.62369697  0.76893635  -0.00618316  1
  H+  H320  1  0.39930597  0.59733862  0.89094965  1
  H+  H321  1  0.15931082  0.07412797  0.27278056  1
  H+  H322  1  0.82267242  0.66950495  0.72825186  1
  H+  H323  1  0.58093992  0.91570548  0.42797490  1
  H+  H324  1  0.40615986  0.07570592  0.60174359  1
  H+  H325  1  0.08903297  0.66608357  0.43787828  1
  H+  H326  1  0.68104434  0.34063357  0.94315097  1
  H+  H327  1  0.66944422  0.07707236  0.90865043  1
  H+  H328  1  0.15406630  0.08070799  0.90575721  1
  H+  H329  1  0.84115441  0.42048437  0.10134903  1
  H+  H330  1  0.33522824  0.27683181  0.22486925  1
  H+  H331  1  0.23387791  0.09791954  0.50629843  1
  H+  H332  1  0.17215684  0.58902675  0.26817687  1
  H+  H333  1  0.18194901  0.83503592  0.59922946  1
  H+  H334  1  0.78224723  0.38690112  0.67258649  1
  H+  H335  1  0.17913089  0.31215820  0.25196957  1
  H+  H336  1  0.93000440  0.33929346  0.89546124  1
  H+  H337  1  0.08755691  0.67571599  0.73636490  1
  H+  H338  1  0.15948952  0.07263672  0.57116150  1
  H+  H339  1  0.91185938  0.83212661  0.56199630  1
  H+  H340  1  0.32894013  0.67141489  0.40405626  1
  H+  H341  1  0.57684060  0.16266004  0.71398916  1
  H+  H342  1  0.65888825  0.58645983  0.90489421  1
  H+  H343  1  0.32969120  0.91861561  0.07734305  1
  H+  H344  1  0.83882959  0.16541316  0.39345918  1
  H+  H345  1  0.47191501  0.36141053  0.84118678  1
  H+  H346  1  0.92090494  0.58709580  0.60281581  1
  H+  H347  1  0.08443503  0.40894014  0.42396536  1
  H+  H348  1  0.45324048  0.61435812  0.98932366  1
  H+  H349  1  0.41150779  0.32170232  0.93282901  1
  H+  H350  1  0.32489403  0.41404586  0.73221074  1
  H+  H351  1  0.41141051  0.76522816  0.83380277  1
  H+  H352  1  0.59910196  0.41639576  0.08902821  1
  H+  H353  1  0.58003938  0.38931874  0.43659762  1
  H+  H354  1  0.82331041  0.92355347  0.40117957  1
  H+  H355  1  0.21739613  0.65265170  0.62152697  1
  H+  H356  1  0.34120127  0.42315040  0.44392604  1
  H+  H357  1  0.67041604  0.33151631  0.26435151  1
  H+  H358  1  0.41702238  0.84478792  0.23456944  1
  H+  H359  1  0.37956268  0.79528726  0.96070276  1
  H+  H360  1  0.61544459  0.13411688  0.65901940  1
  H+  H361  1  0.77568587  0.38054329  0.50131104  1
  H+  H362  1  0.37448406  0.86026700  0.66927868  1
  H+  H363  1  0.57782526  0.40751643  0.70110332  1
  H+  H364  1  0.39243126  0.78193697  0.67666599  1
  H+  H365  1  0.84702858  0.92466334  0.79010361  1
  H+  H366  1  0.10959518  0.09048398  0.18240684  1
  H+  H367  1  0.06052545  0.77571241  0.88800232  1
  H+  H368  1  0.56955570  0.66779732  0.06100601  1
  H+  H369  1  0.84187316  0.17906897  0.73084930  1
  H+  H370  1  0.40856533  0.34927604  0.30454542  1
  H+  H371  1  0.31008438  0.13481185  0.43912192  1
  H+  H372  1  0.82734329  0.61615451  0.81585482  1
  H+  H373  1  0.84615585  0.42834380  0.76482570  1
  H+  H374  1  0.07410503  0.92671360  0.73602323  1
  H+  H375  1  0.67185382  0.08203021  0.26416627  1
  H+  H376  1  0.91264605  0.83765621  0.93482939  1
  H+  H377  1  0.91596532  0.07481613  0.26720997  1
  H+  H378  1  0.16818748  0.33740983  0.93950079  1
  H+  H379  1  0.35394630  0.14547387  0.66987442  1
  H+  H380  1  0.08760242  0.91218066  0.40468298  1
  H+  H381  1  0.66983841  0.82891544  0.24153475  1
  H+  H382  1  0.71269710  0.58953830  0.23971029  1
  H+  H383  1  0.41172210  0.59631772  0.27039369  1
  O2-  O384  1  0.02653333  0.11980916  0.16399726  1
  O2-  O385  1  0.05695128  0.19175196  0.46083245  1
  O2-  O386  1  0.07780659  0.17146092  0.81404742  1
  O2-  O387  1  0.03772289  0.34623340  0.11784846  1
  O2-  O388  1  0.08417271  0.40931797  0.46975549  1
  O2-  O389  1  0.09091801  0.41770879  0.81859234  1
  O2-  O390  1  0.08697082  0.67121698  0.14963189  1
  O2-  O391  1  0.08669790  0.66556216  0.48323562  1
  O2-  O392  1  0.10948564  0.66836287  0.81206030  1
  O2-  O393  1  0.07027171  0.90440192  0.15350780  1
  O2-  O394  1  0.08056116  0.90785182  0.48309022  1
  O2-  O395  1  0.07432301  0.91787570  0.81733074  1
  O2-  O396  1  0.30722949  0.13792308  0.13918511  1
  O2-  O397  1  0.30687708  0.13300769  0.48486202  1
  O2-  O398  1  0.30766971  0.18125187  0.79913897  1
  O2-  O399  1  0.32632052  0.42066534  0.13691756  1
  O2-  O400  1  0.33656342  0.41932276  0.48837160  1
  O2-  O401  1  0.32769214  0.42102363  0.81463525  1
  O2-  O402  1  0.34246069  0.68322198  0.15392314  1
  O2-  O403  1  0.32098297  0.65835448  0.48415094  1
  O2-  O404  1  0.35960754  0.64551783  0.82750522  1
  O2-  O405  1  0.32451303  0.91829392  0.15331347  1
  O2-  O406  1  0.33539337  0.92171772  0.47033067  1
  O2-  O407  1  0.34082069  0.89815040  0.80285790  1
  O2-  O408  1  0.58699254  0.16414803  0.14979603  1
  O2-  O409  1  0.56316967  0.20695336  0.47551907  1
  O2-  O410  1  0.55577025  0.17900038  0.79755642  1
  O2-  O411  1  0.62264042  0.43314642  0.13228499  1
  O2-  O412  1  0.56547592  0.36349151  0.47771364  1
  O2-  O413  1  0.57803871  0.40706831  0.82243565  1
  O2-  O414  1  0.59650558  0.67913895  0.14006139  1
  O2-  O415  1  0.57952420  0.65933039  0.47935257  1
  O2-  O416  1  0.58283325  0.66951459  0.81606624  1
  O2-  O417  1  0.58247029  0.92796343  0.14544239  1
  O2-  O418  1  0.58598800  0.91521222  0.47332579  1
  O2-  O419  1  0.60599867  0.91171478  0.81043390  1
  O2-  O420  1  0.83155890  0.15316069  0.14059738  1
  O2-  O421  1  0.83987970  0.16520304  0.47076577  1
  O2-  O422  1  0.83777703  0.17275941  0.81220360  1
  O2-  O423  1  0.84217382  0.41639079  0.14923627  1
  O2-  O424  1  0.83945896  0.41359089  0.47773442  1
  O2-  O425  1  0.84876730  0.43065625  0.81098634  1
  O2-  O426  1  0.87223205  0.68093673  0.12384946  1
  O2-  O427  1  0.82740274  0.66431357  0.48315778  1
  O2-  O428  1  0.81355515  0.66164540  0.81036919  1
  O2-  O429  1  0.83177232  0.91460271  0.15339393  1
  O2-  O430  1  0.82749237  0.91300744  0.47302706  1
  O2-  O431  1  0.83819818  0.92159757  0.83368075  1
  O2-  O432  1  0.14831629  0.06858801  0.19385889  1
  O2-  O433  1  0.16255692  0.06729478  0.52497548  1
  O2-  O434  1  0.14906132  0.08191276  0.85974183  1
  O2-  O435  1  0.16762153  0.35074062  0.19172144  1
  O2-  O436  1  0.16562213  0.33117359  0.51863551  1
  O2-  O437  1  0.16299970  0.33358607  0.85746534  1
  O2-  O438  1  0.17249376  0.59235540  0.18764036  1
  O2-  O439  1  0.15329601  0.56533001  0.51914425  1
  O2-  O440  1  0.18082394  0.57081312  0.84891585  1
  O2-  O441  1  0.16219514  0.82957521  0.19204008  1
  O2-  O442  1  0.17127565  0.83073146  0.52313901  1
  O2-  O443  1  0.11735344  0.81183902  0.87055154  1
  O2-  O444  1  0.41668661  0.08203119  0.19210366  1
  O2-  O445  1  0.41494805  0.08380495  0.52388380  1
  O2-  O446  1  0.41830565  0.05818127  0.86549588  1
  O2-  O447  1  0.36709487  0.30226758  0.18744256  1
  O2-  O448  1  0.42594725  0.34188430  0.53913320  1
  O2-  O449  1  0.41091199  0.33772692  0.85494612  1
  O2-  O450  1  0.42641190  0.58708895  0.15869423  1
  O2-  O451  1  0.41540092  0.58473440  0.52234773  1
  O2-  O452  1  0.40595343  0.60027285  0.84540771  1
  O2-  O453  1  0.41606030  0.84766738  0.18941331  1
  O2-  O454  1  0.43078677  0.81351570  0.53872674  1
  O2-  O455  1  0.43299893  0.82690924  0.83948101  1
  O2-  O456  1  0.67086507  0.08496213  0.18816295  1
  O2-  O457  1  0.68459043  0.08766499  0.51404272  1
  O2-  O458  1  0.67127842  0.07659906  0.86237281  1
  O2-  O459  1  0.67919426  0.32676692  0.18520318  1
  O2-  O460  1  0.69749890  0.33752157  0.52753278  1
  O2-  O461  1  0.69582627  0.34787777  0.86234863  1
  O2-  O462  1  0.69277139  0.60531133  0.11458592  1
  O2-  O463  1  0.67145568  0.59265953  0.51592079  1
  O2-  O464  1  0.65708659  0.58249740  0.86035855  1
  O2-  O465  1  0.67715722  0.82808780  0.19473419  1
  O2-  O466  1  0.66059283  0.82403007  0.50931581  1
  O2-  O467  1  0.67812036  0.82593227  0.85764462  1
  O2-  O468  1  0.93700493  0.08550582  0.18467583  1
  O2-  O469  1  0.90904472  0.07051414  0.52416761  1
  O2-  O470  1  0.91595334  0.08423697  0.85997738  1
  O2-  O471  1  0.92111041  0.33946188  0.18443780  1
  O2-  O472  1  0.92132792  0.33161205  0.51558633  1
  O2-  O473  1  0.93156273  0.34167177  0.84841425  1
  O2-  O474  1  0.87383946  0.56090966  0.19617628  1
  O2-  O475  1  0.91940906  0.58429258  0.52426471  1
  O2-  O476  1  0.94780580  0.59301391  0.85949654  1
  O2-  O477  1  0.90905393  0.83536207  0.20338004  1
  O2-  O478  1  0.91222386  0.82915189  0.51624848  1
  O2-  O479  1  0.91219471  0.83906488  0.86103840  1
  O2-  O480  1  0.16083302  0.07602415  0.31827222  1
  O2-  O481  1  0.15648164  0.08496143  0.64231779  1
  O2-  O482  1  0.15624668  0.07367094  0.97947599  1
  O2-  O483  1  0.20171310  0.29442428  0.28863442  1
  O2-  O484  1  0.17300049  0.32605624  0.64673438  1
  O2-  O485  1  0.17099049  0.34428608  0.98442904  1
  O2-  O486  1  0.17361208  0.58776252  0.31336807  1
  O2-  O487  1  0.20553791  0.63817701  0.66441670  1
  O2-  O488  1  0.17912970  0.59935553  1.00150410  1
  O2-  O489  1  0.17549090  0.83668138  0.31612021  1
  O2-  O490  1  0.18297794  0.83788185  0.64506493  1
  O2-  O491  1  0.16781561  0.83623988  0.99107280  1
  O2-  O492  1  0.42142334  0.11225444  0.31038140  1
  O2-  O493  1  0.40785069  0.07779155  0.64723830  1
  O2-  O494  1  0.42557925  0.07904617  0.99027038  1
  O2-  O495  1  0.40492222  0.33348516  0.34721247  1
  O2-  O496  1  0.42448189  0.33607234  0.65861352  1
  O2-  O497  1  0.41452059  0.32040370  0.97828821  1
  O2-  O498  1  0.41111516  0.59410904  0.31484844  1
  O2-  O499  1  0.40306904  0.56641107  0.64331919  1
  O2-  O500  1  0.39542297  0.57780758  0.97065855  1
  O2-  O501  1  0.41759246  0.84391739  0.31469478  1
  O2-  O502  1  0.40428716  0.83192708  0.65153896  1
  O2-  O503  1  0.38754823  0.80448765  1.00451374  1
  O2-  O504  1  0.67227525  0.08047000  0.31014253  1
  O2-  O505  1  0.67801681  0.09497798  0.63979306  1
  O2-  O506  1  0.66792979  0.07903607  0.98199909  1
  O2-  O507  1  0.66325338  0.33104818  0.30940004  1
  O2-  O508  1  0.68798065  0.33921361  0.64101914  1
  O2-  O509  1  0.67206122  0.33616941  0.98778158  1
  O2-  O510  1  0.67881820  0.59340263  0.36164464  1
  O2-  O511  1  0.66704321  0.58051884  0.63346068  1
  O2-  O512  1  0.65761595  0.57505503  0.99313159  1
  O2-  O513  1  0.66159794  0.83398947  0.31039927  1
  O2-  O514  1  0.66147489  0.82561525  0.62954836  1
  O2-  O515  1  0.65706657  0.83021710  0.98133944  1
  O2-  O516  1  0.90319194  0.06939504  0.31131793  1
  O2-  O517  1  0.90787810  0.08027011  0.64640878  1
  O2-  O518  1  0.93699119  0.07005726  0.97647128  1
  O2-  O519  1  0.92486478  0.32943150  0.30230297  1
  O2-  O520  1  0.92802387  0.34131241  0.63984772  1
  O2-  O521  1  0.93134407  0.33503252  0.96454497  1
  O2-  O522  1  0.92321206  0.57791926  0.31919012  1
  O2-  O523  1  0.92184209  0.58831366  0.64842715  1
  O2-  O524  1  0.93678755  0.57841186  0.97616865  1
  O2-  O525  1  0.92597662  0.83703662  0.31726547  1
  O2-  O526  1  0.91411820  0.83411927  0.63809790  1
  O2-  O527  1  0.91072190  0.83194366  0.98086887  1
  O2-  O528  1  0.04340401  0.21267021  0.05643405  1
  O2-  O529  1  0.09874319  0.17190813  0.34963496  1
  O2-  O530  1  0.06819559  0.15845090  0.68865992  1
  O2-  O531  1  0.09076522  0.43459331  0.01853340  1
  O2-  O532  1  0.09603343  0.41628472  0.34902597  1
  O2-  O533  1  0.09981434  0.46963343  0.61948833  1
  O2-  O534  1  0.09166446  0.66998631  0.02200905  1
  O2-  O535  1  0.09329280  0.67073693  0.35796537  1
  O2-  O536  1  0.08660059  0.68112847  0.69116391  1
  O2-  O537  1  0.07267181  0.90728288  0.03093084  1
  O2-  O538  1  0.08949564  0.91223659  0.35928734  1
  O2-  O539  1  0.07823774  0.93280896  0.69115419  1
  O2-  O540  1  0.32855902  0.15466938  0.01628839  1
  O2-  O541  1  0.31770367  0.14767276  0.36402325  1
  O2-  O542  1  0.32332604  0.17634762  0.68102390  1
  O2-  O543  1  0.34116264  0.41224361  0.01722807  1
  O2-  O544  1  0.31376403  0.43538125  0.36143537  1
  O2-  O545  1  0.32812073  0.41235737  0.68730227  1
  O2-  O546  1  0.24757047  0.62945770  0.04723681  1
  O2-  O547  1  0.33401461  0.67621562  0.35880049  1
  O2-  O548  1  0.35681136  0.66614545  0.70843915  1
  O2-  O549  1  0.33343659  0.91717517  0.03171202  1
  O2-  O550  1  0.34291653  0.93819707  0.34891803  1
  O2-  O551  1  0.32329875  0.92077754  0.69152387  1
  O2-  O552  1  0.59331036  0.16949064  0.02555895  1
  O2-  O553  1  0.58561409  0.16086582  0.35359906  1
  O2-  O554  1  0.57970616  0.16161067  0.66961652  1
  O2-  O555  1  0.57737004  0.40566273  0.01829404  1
  O2-  O556  1  0.58961080  0.41836803  0.35873346  1
  O2-  O557  1  0.63542789  0.44193517  0.68422556  1
  O2-  O558  1  0.55924259  0.66090549  0.01629034  1
  O2-  O559  1  0.58072855  0.67558956  0.35586912  1
  O2-  O560  1  0.56120999  0.68063928  0.69698315  1
  O2-  O561  1  0.57101645  0.91302863  0.01856909  1
  O2-  O562  1  0.58322580  0.91602847  0.34955128  1
  O2-  O563  1  0.61849320  0.94049887  0.68706315  1
  O2-  O564  1  0.83949736  0.16468340  0.01402356  1
  O2-  O565  1  0.83873657  0.16690923  0.34763248  1
  O2-  O566  1  0.84317969  0.17812330  0.68562498  1
  O2-  O567  1  0.83626308  0.42398463  0.03570617  1
  O2-  O568  1  0.81368130  0.36676934  0.36737675  1
  O2-  O569  1  0.84260218  0.41967470  0.69016256  1
  O2-  O570  1  0.84251172  0.65682042  0.00024524  1
  O2-  O571  1  0.84424432  0.67268549  0.36272933  1
  O2-  O572  1  0.82984465  0.67023335  0.68346948  1
  O2-  O573  1  0.82257910  0.90421530  0.02989513  1
  O2-  O574  1  0.81937600  0.92576597  0.35484615  1
  O2-  O575  1  0.82463303  0.91667248  0.66844087  1
