# generated using pymatgen
data_H2O
_symmetry_space_group_name_H-M   'P 1'
_cell_length_a   17.98735102
_cell_length_b   17.98865637
_cell_length_c   22.00754133
_cell_angle_alpha   90.01265883
_cell_angle_beta   89.99872836
_cell_angle_gamma   119.99187237
_symmetry_Int_Tables_number   1
_chemical_formula_structural   H2O
_chemical_formula_sum   'H384 O192'
_cell_volume   6167.42168259
_cell_formula_units_Z   192
loop_
 _symmetry_equiv_pos_site_id
 _symmetry_equiv_pos_as_xyz
  1  'x, y, z'
loop_
 _atom_type_symbol
 _atom_type_oxidation_number
  H+  1.0
  O2-  -2.0
loop_
 _atom_site_type_symbol
 _atom_site_label
 _atom_site_symmetry_multiplicity
 _atom_site_fract_x
 _atom_site_fract_y
 _atom_site_fract_z
 _atom_site_occupancy
  H+  H0  1  0.10789794  0.47095121  0.82919389  1
  H+  H1  1  0.69394676  0.84825753  0.83800456  1
  H+  H2  1  0.47739741  0.35175784  -0.00474815  1
  H+  H3  1  0.39123581  0.61645989  0.16398580  1
  H+  H4  1  0.72679367  0.36475327  0.32606680  1
  H+  H5  1  0.08088021  0.67037278  0.06492438  1
  H+  H6  1  0.23184832  0.85684116  0.17603244  1
  H+  H7  1  0.24715052  0.38288011  -0.00678999  1
  H+  H8  1  0.47514629  0.86077147  0.99384484  1
  H+  H9  1  0.80011501  0.18158283  0.48994017  1
  H+  H10  1  0.08896944  0.28951724  0.65388820  1
  H+  H11  1  0.43280450  0.58917291  0.21801901  1
  H+  H12  1  0.14181623  0.03036269  0.99505459  1
  H+  H13  1  0.91503188  0.05304825  0.83803139  1
  H+  H14  1  0.84085169  0.36799959  0.16876490  1
  H+  H15  1  0.11888603  -0.01226928  0.14417764  1
  H+  H16  1  0.61048612  0.37606489  0.83148276  1
  H+  H17  1  0.30625898  0.91663854  0.68888565  1
  H+  H18  1  0.52968763  0.13915313  0.33108467  1
  H+  H19  1  0.65036313  0.36250255  0.66369163  1
  H+  H20  1  0.06752980  0.08419575  0.27896511  1
  H+  H21  1  0.36861299  0.46713876  0.79812560  1
  H+  H22  1  0.10734271  0.11720260  0.29487783  1
  H+  H23  1  0.00002014  0.82298133  0.34778519  1
  H+  H24  1  0.87171123  0.22618250  0.67657642  1
  H+  H25  1  0.14202963  0.52630895  0.16450705  1
  H+  H26  1  0.15066245  0.31667463  0.55448854  1
  H+  H27  1  0.72099332  0.35666358  0.99854882  1
  H+  H28  1  0.47996612  0.13004037  0.81948501  1
  H+  H29  1  0.40882205  1.03746478  0.67313070  1
  H+  H30  1  0.39053024  0.32829365  0.57404814  1
  H+  H31  1  0.36304302  0.47866044  0.15372876  1
  H+  H32  1  0.91744043  0.83732406  0.61205600  1
  H+  H33  1  0.37330768  0.27010249  0.51529438  1
  H+  H34  1  0.27527991  0.63642159  0.00746242  1
  H+  H35  1  0.63995784  1.00804385  0.48367696  1
  H+  H36  1  0.37299571  0.38932356  0.00531741  1
  H+  H37  1  0.62285051  0.47577200  0.32798121  1
  H+  H38  1  0.61829704  0.74530323  0.15020238  1
  H+  H39  1  0.61330344  0.22575125  0.83507461  1
  H+  H40  1  0.14339317  0.76098299  0.33345543  1
  H+  H41  1  0.90299839  0.03669237  0.65688346  1
  H+  H42  1  0.02329135  0.63443726  0.15927774  1
  H+  H43  1  0.78001736  0.87287045  0.13149263  1
  H+  H44  1  0.12389606  -0.01185369  0.34194873  1
  H+  H45  1  0.72249540  0.86085013  0.65896024  1
  H+  H46  1  0.87407506  0.74405175  0.16416270  1
  H+  H47  1  0.31805604  0.90011636  0.49665079  1
  H+  H48  1  0.81970695  0.40429507  0.07302326  1
  H+  H49  1  0.13313022  0.61048693  0.66695881  1
  H+  H50  1  0.89158981  0.86633453  0.98620905  1
  H+  H51  1  0.38720092  0.77677961  0.33494555  1
  H+  H52  1  0.47632737  0.86480651  0.32673645  1
  H+  H53  1  0.22802858  0.61480472  0.34253071  1
  H+  H54  1  0.91003380  0.08054502  0.26274152  1
  H+  H55  1  0.87680966  0.60349126  0.84102610  1
  H+  H56  1  0.35074212  0.38554452  0.49420191  1
  H+  H57  1  0.27263417  0.63487333  0.67407804  1
  H+  H58  1  0.95251871  0.32917547  0.50321093  1
  H+  H59  1  0.09966435  0.89797354  0.67333280  1
  H+  H60  1  0.47050869  0.11409252  0.21796091  1
  H+  H61  1  0.41041592  0.03417380  0.51281571  1
  H+  H62  1  0.69661281  0.47438575  0.71640133  1
  H+  H63  1  1.00373521  0.13816848  0.84518442  1
  H+  H64  1  0.10165616  0.83540580  0.35580856  1
  H+  H65  1  0.27568547  0.63474715  0.15571312  1
  H+  H66  1  0.28302531  0.38163408  0.80404644  1
  H+  H67  1  0.27538117  0.12656340  0.66084585  1
  H+  H68  1  1.00181659  0.61557459  0.49494267  1
  H+  H69  1  0.15523386  0.12643141  0.16379007  1
  H+  H70  1  0.36182436  0.88489013  0.83539196  1
  H+  H71  1  0.98691085  0.36086964  0.65347498  1
  H+  H72  1  0.38576877  0.60216542  0.83385117  1
  H+  H73  1  0.63501099  0.77462759  0.33133477  1
  H+  H74  1  0.76412548  0.37752161  0.49326187  1
  H+  H75  1  0.46552522  0.85616686  0.84224537  1
  H+  H76  1  0.13321729  0.36207462  0.16886576  1
  H+  H77  1  0.52307053  0.88327019  0.68156098  1
  H+  H78  1  0.64207296  0.53079555  0.66256501  1
  H+  H79  1  0.86456907  0.72549224  0.67724684  1
  H+  H80  1  0.13584409  0.77851032  0.99208184  1
  H+  H81  1  0.60556673  0.42114384  0.74501308  1
  H+  H82  1  0.13915827  0.52404034  0.66662590  1
  H+  H83  1  0.72263558  0.86939229  0.51298467  1
  H+  H84  1  0.15790746  0.42397942  0.68739043  1
  H+  H85  1  0.62497720  0.37529621  0.32150301  1
  H+  H86  1  0.13451124  0.91146590  0.82015814  1
  H+  H87  1  0.88378145  0.88323648  0.15190454  1
  H+  H88  1  0.85916184  0.38490566  0.33735181  1
  H+  H89  1  0.09553032  0.62397690  0.50015977  1
  H+  H90  1  0.87904707  0.60502948  0.65894379  1
  H+  H91  1  0.13538137  0.61583960  1.00062366  1
  H+  H92  1  0.54666299  0.93112885  0.49241718  1
  H+  H93  1  0.62030965  0.13679224  0.67999451  1
  H+  H94  1  0.36691737  0.88703187  0.33558174  1
  H+  H95  1  0.92179858  0.33804605  0.90186832  1
  H+  H96  1  0.38849830  0.17379083  0.82518143  1
  H+  H97  1  0.28047888  0.63746880  0.82704388  1
  H+  H98  1  0.86972140  0.38458244  0.67399772  1
  H+  H99  1  0.86205458  0.14370409  0.33922914  1
  H+  H100  1  0.63914117  0.02895763  0.32553603  1
  H+  H101  1  0.83482188  0.92349739  0.60848900  1
  H+  H102  1  0.60351718  0.38935451  0.50520618  1
  H+  H103  1  0.65133631  0.14158680  0.48439989  1
  H+  H104  1  0.85362587  0.74401616  0.01135796  1
  H+  H105  1  0.63166145  0.61412082  0.66062371  1
  H+  H106  1  0.83822706  0.67918153  0.10961354  1
  H+  H107  1  0.51290895  0.61920284  0.82440327  1
  H+  H108  1  0.76334464  0.62250554  0.34080265  1
  H+  H109  1  0.59987077  0.70937305  0.82899523  1
  H+  H110  1  0.62909947  0.11028817  0.17390338  1
  H+  H111  1  0.75088357  0.61349566  0.49371519  1
  H+  H112  1  0.38456792  0.77310331  0.66900944  1
  H+  H113  1  0.91772399  0.31984683  0.59951685  1
  H+  H114  1  0.38128266  0.61142593  0.51431560  1
  H+  H115  1  0.12208772  0.39537617  0.00476418  1
  H+  H116  1  0.63481941  0.87863091  0.18001973  1
  H+  H117  1  0.34483857  0.71494834  0.51243934  1
  H+  H118  1  0.91246467  0.85135084  0.83721689  1
  H+  H119  1  0.60906606  0.72585181  0.67757669  1
  H+  H120  1  0.58965966  0.87154657  0.83599256  1
  H+  H121  1  0.62544946  0.60473727  -0.01085440  1
  H+  H122  1  0.89166334  0.27050136  0.99704184  1
  H+  H123  1  0.39377607  0.52663867  0.99002106  1
  H+  H124  1  0.96533793  0.87087608  0.51541528  1
  H+  H125  1  0.63968333  0.11343050  -0.00063753  1
  H+  H126  1  0.77778088  0.13495621  0.00996259  1
  H+  H127  1  0.77418893  0.14579512  0.83534585  1
  H+  H128  1  0.00979178  0.61963146  0.67398409  1
  H+  H129  1  0.40157403  0.89656662  0.49613883  1
  H+  H130  1  0.15978473  0.13007089  0.64623855  1
  H+  H131  1  0.86231985  0.47416930  0.82622514  1
  H+  H132  1  0.84475539  0.60783126  0.49318900  1
  H+  H133  1  0.38918223  0.15427977  0.14902397  1
  H+  H134  1  0.85574375  0.97003040  -0.00789675  1
  H+  H135  1  -0.00598401  0.15087144  0.33822396  1
  H+  H136  1  0.37202536  0.88827193  0.15913811  1
  H+  H137  1  0.86042655  0.99554044  0.50186991  1
  H+  H138  1  0.73584280  0.35818437  0.65959750  1
  H+  H139  1  0.88110224  0.26942217  0.17211864  1
  H+  H140  1  0.35509956  0.93028156  0.75119990  1
  H+  H141  1  0.60760489  0.37916025  0.00631718  1
  H+  H142  1  0.38651955  0.62321775  0.66306106  1
  H+  H143  1  0.60903400  0.72656601  0.49505466  1
  H+  H144  1  0.73078063  0.89868518  0.18842939  1
  H+  H145  1  0.88052988  0.02844456  0.32689858  1
  H+  H146  1  0.39243540  0.28231030  0.17010121  1
  H+  H147  1  0.61169772  0.88199747  0.68212745  1
  H+  H148  1  0.73758403  0.61343503  0.18350699  1
  H+  H149  1  0.52032293  0.13160897  1.00201215  1
  H+  H150  1  0.14640911  1.00575498  0.82240198  1
  H+  H151  1  0.52866808  0.38701835  0.32305422  1
  H+  H152  1  0.59723548  0.45786445  0.83125126  1
  H+  H153  1  0.49475767  0.12818057  0.66812852  1
  H+  H154  1  0.08829225  0.87544770  0.49948615  1
  H+  H155  1  0.62632073  0.51903185  0.50949477  1
  H+  H156  1  0.63477160  0.77166788  0.98963414  1
  H+  H157  1  0.08012330  0.41281464  0.09973472  1
  H+  H158  1  0.62389321  0.59585254  0.83757843  1
  H+  H159  1  0.13718365  0.10948464  0.49511074  1
  H+  H160  1  0.39278892  0.37929321  0.32672505  1
  H+  H161  1  0.90344224  0.14137184  0.51240883  1
  H+  H162  1  0.26778382  0.13974354  0.00723351  1
  H+  H163  1  0.37243914  0.34753103  0.69678804  1
  H+  H164  1  0.88067736  0.28171525  0.84061129  1
  H+  H165  1  0.27347515  0.88497942  0.00387728  1
  H+  H166  1  0.39449542  0.86822559  0.67261677  1
  H+  H167  1  0.87236249  0.50498529  0.50618684  1
  H+  H168  1  0.62529424  0.22868376  0.67482953  1
  H+  H169  1  0.37127046  0.52391870  0.32258430  1
  H+  H170  1  0.83726136  0.41132672  0.73420231  1
  H+  H171  1  0.29350544  0.14454095  0.14939612  1
  H+  H172  1  0.88812601  0.35711653  1.00084173  1
  H+  H173  1  0.17908409  0.83269234  0.51239080  1
  H+  H174  1  0.53056984  0.14591962  0.48915231  1
  H+  H175  1  0.84693899  0.36621044  0.49046819  1
  H+  H176  1  0.09443063  0.74273768  0.50786168  1
  H+  H177  1  0.35262376  0.58569319  0.28232586  1
  H+  H178  1  0.76485437  0.89161264  0.34663238  1
  H+  H179  1  0.52414563  0.63967988  -0.00275890  1
  H+  H180  1  0.09438220  0.24650156  0.33611813  1
  H+  H181  1  0.88226468  0.60157873  0.99271126  1
  H+  H182  1  0.22568275  0.36833812  0.66163614  1
  H+  H183  1  0.66589431  0.83899226  0.27365943  1
  H+  H184  1  0.88115597  0.87679687  0.52009147  1
  H+  H185  1  0.13087913  0.23875457  0.82891549  1
  H+  H186  1  0.61101128  0.88503623  0.00701579  1
  H+  H187  1  0.13802631  0.36741920  0.31130958  1
  H+  H188  1  0.77181354  0.71707383  0.05108588  1
  H+  H189  1  0.83773886  0.91743275  0.85581763  1
  H+  H190  1  0.63463910  0.27943580  0.50422425  1
  H+  H191  1  0.14083532  0.87050218  0.98950553  1
  H+  H192  1  0.40088922  0.11311935  0.31823866  1
  H+  H193  1  0.12536895  0.48605333  0.33999457  1
  H+  H194  1  0.65747170  1.01302137  0.85468018  1
  H+  H195  1  0.87893944  0.51477627  0.66027946  1
  H+  H196  1  0.27472259  0.13058101  0.49152330  1
  H+  H197  1  0.12008152  0.51628403  0.51829044  1
  H+  H198  1  0.97497973  0.87251836  0.67263305  1
  H+  H199  1  0.38506962  0.76788520  0.17194854  1
  H+  H200  1  0.38976380  0.10713413  0.98603015  1
  H+  H201  1  0.86626866  0.38757823  0.82882849  1
  H+  H202  1  0.58701995  0.21727577  0.16148661  1
  H+  H203  1  0.96727784  0.08289835  0.98888827  1
  H+  H204  1  0.62105859  0.14483904  0.33548608  1
  H+  H205  1  0.71346633  0.60675826  0.99237440  1
  H+  H206  1  0.88986838  0.28027671  0.32585705  1
  H+  H207  1  0.75812826  0.61758830  0.82540360  1
  H+  H208  1  0.84732508  0.18641855  0.39890541  1
  H+  H209  1  0.11120324  0.22658271  0.16182066  1
  H+  H210  1  0.89961153  0.56725731  0.56555543  1
  H+  H211  1  0.63870474  0.01607765  0.68241987  1
  H+  H212  1  0.11373542  0.72282476  0.16054459  1
  H+  H213  1  0.52395146  0.63953705  0.33836450  1
  H+  H214  1  0.38531072  0.86006453  0.99352985  1
  H+  H215  1  0.85743278  0.46550560  0.01470700  1
  H+  H216  1  0.25473862  0.14826528  0.84906140  1
  H+  H217  1  0.90113221  0.12426489  0.66564437  1
  H+  H218  1  0.09122036  0.71203065  0.67549765  1
  H+  H219  1  0.78467639  0.13567290  0.68230025  1
  H+  H220  1  0.02441139  0.90513157  0.14360471  1
  H+  H221  1  0.14305906  0.12178486  0.99801369  1
  H+  H222  1  1.02358590  0.63759505  1.00466319  1
  H+  H223  1  0.77325944  0.13510241  0.15845157  1
  H+  H224  1  0.37732531  0.13188607  0.66888707  1
  H+  H225  1  0.10502904  0.96673228  0.31185528  1
  H+  H226  1  0.83601704  0.16389153  0.10081351  1
  H+  H227  1  0.66606335  0.58706564  0.56463204  1
  H+  H228  1  0.38328173  0.98147905  0.15431970  1
  H+  H229  1  0.21857889  0.36538794  0.50064413  1
  H+  H230  1  0.11343051  0.22810215  0.48424979  1
  H+  H231  1  0.88351387  0.01676237  0.16655798  1
  H+  H232  1  0.51810605  0.88427598  0.16307067  1
  H+  H233  1  0.13616796  0.60703687  0.33458955  1
  H+  H234  1  0.61233842  0.88983598  0.33825057  1
  H+  H235  1  0.87968138  0.75147819  0.84270116  1
  H+  H236  1  0.48568489  0.62696058  0.66511724  1
  H+  H237  1  0.85497562  0.89588608  0.35039438  1
  H+  H238  1  0.13275751  0.77976582  0.83677281  1
  H+  H239  1  0.25639243  0.62518264  0.50757139  1
  H+  H240  1  0.29813074  0.14857144  0.30192228  1
  H+  H241  1  0.02767759  0.38623693  0.00554983  1
  H+  H242  1  0.13528180  0.52555924  0.99708196  1
  H+  H243  1  0.52922438  0.39634064  0.16364958  1
  H+  H244  1  1.04213169  0.15430823  0.65658313  1
  H+  H245  1  0.88178240  0.51790254  0.32806705  1
  H+  H246  1  0.04383842  0.19327566  0.01456971  1
  H+  H247  1  0.14262402  0.61473022  0.16124452  1
  H+  H248  1  0.01915559  0.62924098  0.33927428  1
  H+  H249  1  0.60935345  0.63762876  0.49448044  1
  H+  H250  1  0.15015425  0.37022957  0.83896793  1
  H+  H251  1  0.47055190  0.32469752  0.83725300  1
  H+  H252  1  0.63557552  0.60459265  0.32735637  1
  H+  H253  1  0.88556343  0.61499317  0.17683456  1
  H+  H254  1  0.63800758  1.02359752  0.00397477  1
  H+  H255  1  0.47341596  0.61520191  0.50937925  1
  H+  H256  1  0.71119857  0.35999531  0.21377863  1
  H+  H257  1  0.02450270  0.13349234  0.16154270  1
  H+  H258  1  0.16048528  0.29395765  0.99355790  1
  H+  H259  1  0.01904839  0.38412693  0.15839488  1
  H+  H260  1  0.39897789  0.29398582  0.33328152  1
  H+  H261  1  0.38809994  0.61277789  0.98766552  1
  H+  H262  1  0.64898353  0.52193744  0.17994365  1
  H+  H263  1  0.27014330  0.38789465  0.33571892  1
  H+  H264  1  0.72919002  0.36444495  0.84235455  1
  H+  H265  1  0.36434804  0.22107001  0.67643975  1
  H+  H266  1  0.51425209  0.38881675  0.50922183  1
  H+  H267  1  0.58332632  0.17705428  0.42477580  1
  H+  H268  1  0.09630813  0.37894920  0.49466110  1
  H+  H269  1  0.60542727  0.97660261  0.16113909  1
  H+  H270  1  0.36483501  0.72486728  0.00453904  1
  H+  H271  1  0.63154948  0.26871665  0.99476576  1
  H+  H272  1  0.97846380  0.36892896  0.32522170  1
  H+  H273  1  0.77317956  0.64060151  0.66996944  1
  H+  H274  1  0.22474070  0.36462573  0.16666205  1
  H+  H275  1  0.12879314  0.15007336  0.83110353  1
  H+  H276  1  0.72800917  0.11904670  0.32782845  1
  H+  H277  1  0.87888255  0.74565546  0.32413506  1
  H+  H278  1  0.45668383  0.23168600  0.37779996  1
  H+  H279  1  0.36700866  0.64733271  0.35905733  1
  H+  H280  1  0.18427884  0.84377173  0.65236972  1
  H+  H281  1  0.36050387  0.38856366  0.15830874  1
  H+  H282  1  0.47291652  0.81360912  0.52924233  1
  H+  H283  1  0.53364234  0.65435859  0.14692647  1
  H+  H284  1  0.10951102  0.64580262  0.83163173  1
  H+  H285  1  0.60269240  0.46586734  0.00431860  1
  H+  H286  1  0.35646842  0.47656164  0.49522475  1
  H+  H287  1  0.88428390  0.10641002  0.17111595  1
  H+  H288  1  0.39701256  1.02338422  0.31781477  1
  H+  H289  1  0.34376986  0.42084621  0.06478743  1
  H+  H290  1  0.43478956  0.09301341  0.57243138  1
  H+  H291  1  0.01986086  0.38253234  0.83089135  1
  H+  H292  1  0.63672432  0.27420812  0.32112255  1
  H+  H293  1  0.28196486  0.42568379  0.71614113  1
  H+  H294  1  0.82809948  0.18334133  0.77413157  1
  H+  H295  1  0.92742868  0.87479959  0.21501820  1
  H+  H296  1  0.86552386  0.13265548  1.00525770  1
  H+  H297  1  0.85327050  0.62007886  0.34196893  1
  H+  H298  1  0.72514464  0.86143489  0.98833487  1
  H+  H299  1  0.63625341  0.87047312  0.50899565  1
  H+  H300  1  0.09559999  0.94426012  0.73463365  1
  H+  H301  1  0.58642791  0.67525636  0.05624263  1
  H+  H302  1  0.92913361  0.10400852  0.56976199  1
  H+  H303  1  0.66834253  0.33327674  0.56655706  1
  H+  H304  1  0.82814293  0.93165820  0.44532766  1
  H+  H305  1  0.96976220  0.61102929  0.84135345  1
  H+  H306  1  0.40786513  0.82248392  0.90207675  1
  H+  H307  1  0.22761677  0.69818776  0.87903839  1
  H+  H308  1  0.08859895  0.92837680  0.05644600  1
  H+  H309  1  0.17480522  0.82473647  0.23556944  1
  H+  H310  1  0.20494420  0.09914674  0.21255416  1
  H+  H311  1  0.41307814  0.57059276  0.89280570  1
  H+  H312  1  0.36837459  0.72297855  0.82565999  1
  H+  H313  1  0.41197326  0.82584672  0.23273618  1
  H+  H314  1  0.33379023  0.66301266  0.73348793  1
  H+  H315  1  0.22791850  0.05240090  0.30106735  1
  H+  H316  1  0.59332207  0.16977442  0.77610404  1
  H+  H317  1  0.22863054  0.85703680  0.33644425  1
  H+  H318  1  0.16528671  0.32707409  0.25680141  1
  H+  H319  1  0.34015769  0.66771800  0.09880542  1
  H+  H320  1  0.83714156  0.91806484  0.05516512  1
  H+  H321  1  0.93476526  0.78813305  0.26590525  1
  H+  H322  1  0.18797659  0.10205711  0.90297865  1
  H+  H323  1  0.36706044  0.13720494  0.50256562  1
  H+  H324  1  0.18994233  0.35038187  0.89673573  1
  H+  H325  1  0.66544808  0.08619420  0.23160898  1
  H+  H326  1  0.41531780  0.31237578  0.93537311  1
  H+  H327  1  0.33124254  0.67222535  0.41735578  1
  H+  H328  1  0.67075748  0.06234452  0.62097721  1
  H+  H329  1  0.91093785  0.57877313  0.26923502  1
  H+  H330  1  0.45942486  0.35933142  0.67362625  1
  H+  H331  1  0.05331451  0.41419313  0.44686751  1
  H+  H332  1  0.34149909  0.17161899  0.06575301  1
  H+  H333  1  0.87038365  0.51903458  0.17775813  1
  H+  H334  1  0.07305042  0.66102172  0.76915156  1
  H+  H335  1  0.12598818  0.41595291  0.38544965  1
  H+  H336  1  0.65602338  0.82923275  0.60490230  1
  H+  H337  1  0.33472339  0.91404825  0.06289248  1
  H+  H338  1  0.38978262  0.01944260  0.99092464  1
  H+  H339  1  0.69083790  0.12807330  0.54314648  1
  H+  H340  1  0.58765190  0.41884618  0.10612206  1
  H+  H341  1  0.03234074  0.89752641  -0.00446348  1
  H+  H342  1  0.38574840  0.04912416  0.82756715  1
  H+  H343  1  0.69359632  0.06920134  0.91396769  1
  H+  H344  1  0.16672881  0.83778639  0.89670026  1
  H+  H345  1  0.08728691  0.17750225  0.07219239  1
  H+  H346  1  0.36884918  0.23707195  0.00241683  1
  H+  H347  1  0.06163598  0.18344017  0.40328923  1
  H+  H348  1  0.05725697  0.86944786  0.41399263  1
  H+  H349  1  0.02413814  0.14109545  0.49009130  1
  H+  H350  1  0.86467236  0.88835462  0.66196207  1
  H+  H351  1  0.92631228  0.08994721  0.92520464  1
  H+  H352  1  0.57823523  0.66442231  0.39954129  1
  H+  H353  1  0.16622419  0.07988932  0.55500007  1
  H+  H354  1  0.32641236  0.42221639  0.39703865  1
  H+  H355  1  0.65453003  0.56841166  0.89772607  1
  H+  H356  1  0.57930473  0.91107448  0.06752577  1
  H+  H357  1  0.27458016  0.88874337  0.82945799  1
  H+  H358  1  0.14248366  0.03334669  0.65602331  1
  H+  H359  1  0.67220843  0.57898263  0.26644229  1
  H+  H360  1  0.10559801  0.97150441  0.48578047  1
  H+  H361  1  0.07232411  0.65328959  0.40116278  1
  H+  H362  1  0.08740059  0.41508619  0.73485655  1
  H+  H363  1  0.42160265  0.59292317  0.60034824  1
  H+  H364  1  0.11623016  0.80854053  0.60079675  1
  H+  H365  1  0.15507907  0.57948169  0.57574601  1
  H+  H366  1  0.65119136  0.82198604  0.90401812  1
  H+  H367  1  0.17890957  0.61016094  0.91235814  1
  H+  H368  1  0.67027693  0.33610032  0.90300768  1
  H+  H369  1  0.42327486  0.83227643  0.58139664  1
  H+  H370  1  0.36852956  0.18721557  0.41236040  1
  H+  H371  1  0.41364971  0.33868735  0.23118827  1
  H+  H372  1  0.57512031  0.66067762  0.73583860  1
  H+  H373  1  0.57228934  0.16081697  0.06414818  1
  H+  H374  1  0.82128773  0.65206986  0.76703858  1
  H+  H375  1  0.57351122  0.91150494  0.77676605  1
  H+  H376  1  0.35156006  0.92619312  0.39545013  1
  H+  H377  1  0.81596454  0.64130421  0.42882658  1
  H+  H378  1  0.83588209  0.91903283  0.78478542  1
  H+  H379  1  0.91862452  0.82257073  0.93239869  1
  H+  H380  1  0.91207031  0.33217843  0.23016813  1
  H+  H381  1  0.58759411  0.92762604  0.39511803  1
  H+  H382  1  0.82539483  0.40839115  0.39786273  1
  H+  H383  1  0.91059407  0.57271969  0.93338099  1
  O2-  O384  1  0.08468725  0.16628965  0.14595249  1
  O2-  O385  1  0.08060128  0.16791288  0.46782316  1
  O2-  O386  1  0.09616957  0.17764463  0.81659804  1
  O2-  O387  1  0.08001934  0.41080721  0.14520824  1
  O2-  O388  1  0.05909980  0.40588341  0.49021111  1
  O2-  O389  1  0.08095221  0.41233478  0.81392621  1
  O2-  O390  1  0.08106676  0.66441159  0.14080097  1
  O2-  O391  1  0.06342971  0.65094616  0.48194360  1
  O2-  O392  1  0.07338050  0.66794580  0.81424228  1
  O2-  O393  1  0.08337419  0.92986426  0.12674476  1
  O2-  O394  1  0.06697561  0.90890840  0.47658339  1
  O2-  O395  1  0.11476573  0.94893855  0.80205562  1
  O2-  O396  1  0.35462377  0.17946045  0.13416401  1
  O2-  O397  1  0.33803329  0.16702196  0.48455861  1
  O2-  O398  1  0.36204938  0.21407688  0.82509049  1
  O2-  O399  1  0.32954361  0.41710502  0.14074480  1
  O2-  O400  1  0.32389145  0.41815153  0.47709474  1
  O2-  O401  1  0.33278027  0.41268526  0.77611822  1
  O2-  O402  1  0.33948693  0.66633864  0.14426805  1
  O2-  O403  1  0.31863266  0.65667836  0.49489531  1
  O2-  O404  1  0.33844192  0.66267235  0.80855715  1
  O2-  O405  1  0.34486971  0.92130622  0.14310996  1
  O2-  O406  1  0.37607104  0.93074010  0.48014931  1
  O2-  O407  1  0.33695578  0.91911669  0.81787924  1
  O2-  O408  1  0.55810518  0.15555806  0.15115361  1
  O2-  O409  1  0.58893153  0.17835033  0.47037310  1
  O2-  O410  1  0.58105038  0.16583997  0.81999939  1
  O2-  O411  1  0.58989198  0.42236695  0.15091404  1
  O2-  O412  1  0.57379731  0.42135124  0.49396460  1
  O2-  O413  1  0.57382338  0.39894129  0.81343185  1
  O2-  O414  1  0.59190396  0.68948357  0.12955358  1
  O2-  O415  1  0.57710756  0.66629549  0.47999698  1
  O2-  O416  1  0.57472739  0.65177133  0.80948257  1
  O2-  O417  1  0.57892146  0.91544459  0.14773187  1
  O2-  O418  1  0.60259581  0.94511705  0.47583914  1
  O2-  O419  1  0.56629495  0.90825131  0.82170690  1
  O2-  O420  1  0.83480487  0.16424173  0.14655520  1
  O2-  O421  1  0.86383521  0.21200914  0.48248903  1
  O2-  O422  1  0.80907441  0.19962107  0.81114267  1
  O2-  O423  1  0.80727618  0.39766998  0.15719188  1
  O2-  O424  1  0.82475738  0.40393319  0.47692168  1
  O2-  O425  1  0.83340887  0.41386142  0.81054176  1
  O2-  O426  1  0.84728144  0.68135984  0.15423346  1
  O2-  O427  1  0.81322358  0.63753394  0.47584446  1
  O2-  O428  1  0.81960216  0.64784567  0.81225012  1
  O2-  O429  1  0.83885800  0.92044403  0.12875564  1
  O2-  O430  1  0.82747334  0.93338069  0.49050098  1
  O2-  O431  1  0.87399195  0.93370434  0.81971287  1
  O2-  O432  1  0.19109562  0.09887262  0.16889308  1
  O2-  O433  1  0.16521367  0.07710872  0.50959645  1
  O2-  O434  1  0.19328369  0.10687947  0.85823602  1
  O2-  O435  1  0.16477503  0.33192658  0.18326558  1
  O2-  O436  1  0.15559272  0.33048549  0.51053093  1
  O2-  O437  1  0.18762368  0.34719294  0.85158672  1
  O2-  O438  1  0.17729454  0.58823921  0.17350405  1
  O2-  O439  1  0.15233443  0.57789621  0.52981197  1
  O2-  O440  1  0.19306977  0.63689502  0.87007098  1
  O2-  O441  1  0.17303515  0.81930913  0.19114683  1
  O2-  O442  1  0.11907271  0.80406875  0.52471041  1
  O2-  O443  1  0.16994664  0.83965275  0.85118646  1
  O2-  O444  1  0.46789317  0.11906403  0.17296246  1
  O2-  O445  1  0.43226153  0.09395952  0.52702959  1
  O2-  O446  1  0.41638299  0.10824675  0.81245549  1
  O2-  O447  1  0.41482759  0.34132849  0.18603185  1
  O2-  O448  1  0.39665381  0.33049261  0.52954737  1
  O2-  O449  1  0.41855878  0.28818589  0.86268190  1
  O2-  O450  1  0.42459834  0.58598621  0.17382073  1
  O2-  O451  1  0.41483448  0.58399866  0.52857485  1
  O2-  O452  1  0.41419903  0.56962904  0.84727091  1
  O2-  O453  1  0.41493573  0.82872808  0.18757202  1
  O2-  O454  1  0.42779857  0.82805006  0.53524950  1
  O2-  O455  1  0.40393848  0.82087445  0.85635307  1
  O2-  O456  1  0.66236481  0.08271536  0.18627259  1
  O2-  O457  1  0.68989485  0.11859684  0.49946190  1
  O2-  O458  1  0.71100110  0.05541221  0.87469244  1
  O2-  O459  1  0.71830785  0.33448694  0.17620699  1
  O2-  O460  1  0.66636573  0.33868477  0.52133104  1
  O2-  O461  1  0.66887321  0.33708021  0.85753098  1
  O2-  O462  1  0.67913528  0.57951550  0.20062283  1
  O2-  O463  1  0.66371121  0.58352396  0.51917396  1
  O2-  O464  1  0.65289419  0.56413065  0.85224439  1
  O2-  O465  1  0.67129554  0.85513024  0.19762912  1
  O2-  O466  1  0.66062206  0.83591287  0.52528287  1
  O2-  O467  1  0.63913439  0.81284653  0.85814495  1
  O2-  O468  1  0.91324796  0.07506382  0.18694608  1
  O2-  O469  1  0.92580404  0.10295686  0.52393989  1
  O2-  O470  1  0.94131791  0.10809150  0.85957681  1
  O2-  O471  1  0.90778918  0.33102756  0.18499705  1
  O2-  O472  1  0.89021540  0.29427669  0.51502107  1
  O2-  O473  1  0.92354940  0.34218832  0.85674910  1
  O2-  O474  1  0.90895056  0.57827076  0.19218390  1
  O2-  O475  1  0.89810525  0.56649091  0.51963144  1
  O2-  O476  1  0.90971336  0.57621556  0.85719337  1
  O2-  O477  1  0.91906393  0.85371162  0.17334639  1
  O2-  O478  1  0.91013299  0.84712565  0.53727103  1
  O2-  O479  1  0.91894270  0.80864110  0.86069137  1
  O2-  O480  1  0.26837890  0.09912171  0.27494625  1
  O2-  O481  1  0.18210701  0.09089126  0.63555372  1
  O2-  O482  1  0.17698811  0.09490958  0.98555202  1
  O2-  O483  1  0.16273266  0.32939687  0.30306974  1
  O2-  O484  1  0.12427672  0.27193322  0.63018221  1
  O2-  O485  1  0.18621979  0.35316266  0.97787804  1
  O2-  O486  1  0.16985847  0.57818276  0.32558672  1
  O2-  O487  1  0.16750214  0.58472823  0.65098158  1
  O2-  O488  1  0.16708299  0.58734570  0.98421282  1
  O2-  O489  1  0.16714335  0.82343711  0.32335634  1
  O2-  O490  1  0.12248751  0.81447261  0.64614045  1
  O2-  O491  1  0.16934412  0.83787518  0.97529252  1
  O2-  O492  1  0.43070948  0.08379031  0.30255111  1
  O2-  O493  1  0.43251146  0.09496141  0.65301515  1
  O2-  O494  1  0.42339623  0.07971434  0.97598318  1
  O2-  O495  1  0.42281137  0.34912832  0.31085507  1
  O2-  O496  1  0.39744289  0.32489552  0.66729420  1
  O2-  O497  1  0.41455303  0.31941151  0.98062689  1
  O2-  O498  1  0.39774663  0.58435447  0.30628257  1
  O2-  O499  1  0.42352050  0.59831671  0.64689734  1
  O2-  O500  1  0.42022728  0.58492847  0.97119143  1
  O2-  O501  1  0.41484327  0.83327977  0.31355349  1
  O2-  O502  1  0.41869699  0.83382540  0.65399657  1
  O2-  O503  1  0.41467382  0.82846519  0.97843586  1
  O2-  O504  1  0.66855696  0.08999313  0.31125386  1
  O2-  O505  1  0.67145696  0.07550730  0.66392437  1
  O2-  O506  1  0.67329481  0.08434215  0.99028374  1
  O2-  O507  1  0.66716531  0.33633854  0.30745015  1
  O2-  O508  1  0.67473618  0.32917407  0.64463593  1
  O2-  O509  1  0.66195634  0.33024956  0.98113751  1
  O2-  O510  1  0.66723104  0.57516836  0.31457502  1
  O2-  O511  1  0.66489506  0.58823428  0.64340797  1
  O2-  O512  1  0.65459482  0.57195605  0.97591702  1
  O2-  O513  1  0.66533907  0.83661363  0.31934111  1
  O2-  O514  1  0.65942936  0.82829774  0.65032264  1
  O2-  O515  1  0.66336072  0.83294747  0.97475745  1
  O2-  O516  1  0.91004121  0.08718496  0.30862440  1
  O2-  O517  1  0.93405710  0.09850083  0.64585095  1
  O2-  O518  1  0.91404373  0.07586913  0.97195783  1
  O2-  O519  1  0.91866260  0.34062791  0.31039650  1
  O2-  O520  1  0.92477407  0.32993561  0.64384862  1
  O2-  O521  1  0.92174044  0.33190942  0.98352748  1
  O2-  O522  1  0.91172776  0.57951814  0.31507042  1
  O2-  O523  1  0.90781060  0.57394723  0.64214789  1
  O2-  O524  1  0.91268063  0.57233669  0.97932257  1
  O2-  O525  1  0.92276878  0.80269308  0.30617924  1
  O2-  O526  1  0.91471964  0.83405235  0.65791826  1
  O2-  O527  1  0.92147412  0.83298178  0.97803639  1
  O2-  O528  1  0.09072554  0.18354399  0.02616910  1
  O2-  O529  1  0.04524731  0.19966551  0.36188244  1
  O2-  O530  1  0.10670421  0.19084658  0.65905777  1
  O2-  O531  1  0.08803471  0.42088776  0.02118945  1
  O2-  O532  1  0.09376945  0.42006030  0.35125344  1
  O2-  O533  1  0.09937386  0.41973697  0.69019269  1
  O2-  O534  1  0.08386209  0.67119560  0.01910136  1
  O2-  O535  1  0.07880073  0.65769577  0.35618802  1
  O2-  O536  1  0.06985604  0.65248435  0.69025045  1
  O2-  O537  1  0.09313347  0.93041027  0.00978881  1
  O2-  O538  1  0.04667108  0.82856077  0.37774369  1
  O2-  O539  1  0.08259930  0.93911290  0.68823289  1
  O2-  O540  1  0.33307122  0.17082608  0.01912718  1
  O2-  O541  1  0.39497965  0.20380116  0.37036204  1
  O2-  O542  1  0.33648431  0.15641869  0.67957484  1
  O2-  O543  1  0.34746179  0.42411788  0.01912136  1
  O2-  O544  1  0.32968445  0.42394905  0.35154276  1
  O2-  O545  1  0.24992147  0.42635280  0.67882851  1
  O2-  O546  1  0.33698809  0.66404138  0.01939124  1
  O2-  O547  1  0.33690796  0.67787461  0.37214070  1
  O2-  O548  1  0.33451967  0.66549981  0.68745053  1
  O2-  O549  1  0.33469739  0.91299609  0.01758527  1
  O2-  O550  1  0.33925437  0.92031417  0.35146856  1
  O2-  O551  1  0.36402517  0.93612300  0.70375243  1
  O2-  O552  1  0.58058793  0.16444674  0.01980097  1
  O2-  O553  1  0.58906529  0.17501207  0.34844894  1
  O2-  O554  1  0.59078111  0.16890890  0.69122991  1
  O2-  O555  1  0.57260563  0.40567066  0.01989813  1
  O2-  O556  1  0.59022140  0.41075569  0.33602939  1
  O2-  O557  1  0.63649253  0.44166072  0.70393010  1
  O2-  O558  1  0.58580630  0.66904487  0.01040907  1
  O2-  O559  1  0.58280839  0.66652085  0.35416211  1
  O2-  O560  1  0.57484167  0.66374593  0.68955592  1
  O2-  O561  1  0.57928453  0.91360541  0.02224122  1
  O2-  O562  1  0.58307836  0.92281433  0.35019214  1
  O2-  O563  1  0.58268304  0.91304137  0.69830359  1
  O2-  O564  1  0.83964828  0.16521048  0.02332085  1
  O2-  O565  1  0.83564502  0.17729384  0.35478368  1
  O2-  O566  1  0.84654157  0.16679442  0.69287458  1
  O2-  O567  1  0.82632253  0.40471310  0.02821717  1
  O2-  O568  1  0.82535376  0.41175135  0.35249415  1
  O2-  O569  1  0.83690892  0.41223624  0.68822054  1
  O2-  O570  1  0.80600096  0.69331681  0.03462299  1
  O2-  O571  1  0.82376064  0.65125383  0.35874636  1
  O2-  O572  1  0.83180818  0.66269584  0.68714152  1
  O2-  O573  1  0.82967982  0.91049588  0.00886098  1
  O2-  O574  1  0.82568532  0.92690956  0.36266549  1
  O2-  O575  1  0.83417253  0.92212011  0.65293153  1
