# generated using pymatgen
data_H2O
_symmetry_space_group_name_H-M   'P 1'
_cell_length_a   17.98918854
_cell_length_b   17.99203987
_cell_length_c   22.00006442
_cell_angle_alpha   90.01739966
_cell_angle_beta   90.02113064
_cell_angle_gamma   120.00727062
_symmetry_Int_Tables_number   1
_chemical_formula_structural   H2O
_chemical_formula_sum   'H384 O192'
_cell_volume   6166.15789572
_cell_formula_units_Z   192
loop_
 _symmetry_equiv_pos_site_id
 _symmetry_equiv_pos_as_xyz
  1  'x, y, z'
loop_
 _atom_type_symbol
 _atom_type_oxidation_number
  H+  1.0
  O2-  -2.0
loop_
 _atom_site_type_symbol
 _atom_site_label
 _atom_site_symmetry_multiplicity
 _atom_site_fract_x
 _atom_site_fract_y
 _atom_site_fract_z
 _atom_site_occupancy
  H+  H0  1  0.63234538  0.85660691  0.17472324  1
  H+  H1  1  0.56896910  0.94002651  0.48436226  1
  H+  H2  1  0.36419974  0.63871048  0.35042062  1
  H+  H3  1  0.02436060  0.38828746  0.16197218  1
  H+  H4  1  0.88096110  0.52419091  0.99848760  1
  H+  H5  1  0.36463798  0.63564046  0.15786836  1
  H+  H6  1  0.63729619  0.60900092  0.84044991  1
  H+  H7  1  0.76871467  0.86751295  0.01167730  1
  H+  H8  1  0.61199571  0.63823153  0.16048201  1
  H+  H9  1  0.85786238  0.87500041  0.83006913  1
  H+  H10  1  0.20151499  0.86002958  0.51586045  1
  H+  H11  1  0.33721386  0.39192210  0.45204663  1
  H+  H12  1  0.86415325  0.63777104  0.83012119  1
  H+  H13  1  0.10915056  0.88781872  0.00829126  1
  H+  H14  1  0.88696005  0.26801355  0.17263249  1
  H+  H15  1  0.35692870  0.14635696  0.67935613  1
  H+  H16  1  0.70540048  0.91683991  0.31880468  1
  H+  H17  1  0.13389114  0.24935965  0.66531671  1
  H+  H18  1  0.53874586  0.59546381  0.45722651  1
  H+  H19  1  0.13248792  0.10640892  0.84195743  1
  H+  H20  1  0.10556666  0.86834971  0.35850778  1
  H+  H21  1  -0.02130213  0.38295286  0.49225431  1
  H+  H22  1  0.61223251  0.69339038  0.00377543  1
  H+  H23  1  0.62748157  0.52328347  0.32838487  1
  H+  H24  1  0.09467390  0.73026254  0.50169998  1
  H+  H25  1  0.21460979  0.36937971  0.48914029  1
  H+  H26  1  0.36879858  0.47662118  0.67908338  1
  H+  H27  1  0.64571420  0.01267107  0.32238041  1
  H+  H28  1  0.25603026  0.15362831  0.52698494  1
  H+  H29  1  0.34995944  0.71174826  0.00457204  1
  H+  H30  1  0.13065711  0.27785064  0.33802362  1
  H+  H31  1  0.96870564  0.85577003  0.66614831  1
  H+  H32  1  1.02236190  0.63299935  0.67143997  1
  H+  H33  1  0.24139069  0.61695777  0.31916728  1
  H+  H34  1  0.46009577  0.09469647  0.47910484  1
  H+  H35  1  0.72871383  0.59946323  0.50785925  1
  H+  H36  1  0.14993295  0.01440312  0.49242909  1
  H+  H37  1  0.88913893  0.87502166  0.18407223  1
  H+  H38  1  1.01088320  0.13448493  0.34014941  1
  H+  H39  1  0.48548863  0.35140550  0.06817263  1
  H+  H40  1  0.61548375  0.39038357  0.67592023  1
  H+  H41  1  0.10815606  0.35195081  0.98678617  1
  H+  H42  1  0.88558926  0.11684187  0.32023378  1
  H+  H43  1  0.12293212  0.62206358  0.51447857  1
  H+  H44  1  0.11830772  0.48675533  1.00794807  1
  H+  H45  1  0.89405028  0.11500464  0.83407241  1
  H+  H46  1  0.41384137  0.82401558  0.90497630  1
  H+  H47  1  0.75840871  0.65835111  0.15297372  1
  H+  H48  1  0.09145666  0.73697414  0.81063022  1
  H+  H49  1  0.86136331  0.13271992  0.15624900  1
  H+  H50  1  0.01839157  0.62793835  0.35026349  1
  H+  H51  1  0.55794634  0.07851957  0.02717218  1
  H+  H52  1  0.81607980  0.89995635  0.73615633  1
  H+  H53  1  -0.00543382  0.90804166  0.36020991  1
  H+  H54  1  0.47637034  0.85413779  0.84673456  1
  H+  H55  1  0.88194714  0.18380564  -0.00071707  1
  H+  H56  1  0.63093464  0.35901569  0.50137871  1
  H+  H57  1  0.08552061  0.44013712  0.39316414  1
  H+  H58  1  0.60156651  0.39001194  0.33838784  1
  H+  H59  1  0.85811333  0.71386878  0.34290859  1
  H+  H60  1  0.83990141  0.95251494  0.67321358  1
  H+  H61  1  0.51299098  0.61857513  0.67299686  1
  H+  H62  1  0.10973363  0.22331053  0.16813339  1
  H+  H63  1  0.56462622  0.46091418  0.14093529  1
  H+  H64  1  0.67400425  0.53164044  0.18084380  1
  H+  H65  1  0.24857889  0.62868214  0.49271679  1
  H+  H66  1  0.58915618  0.96277888  -0.02921893  1
  H+  H67  1  0.30223542  0.88512006  0.31787690  1
  H+  H68  1  0.13060121  0.10783596  0.17535915  1
  H+  H69  1  0.54438958  0.87434882  0.32894510  1
  H+  H70  1  0.66981115  0.41778664  1.00981339  1
  H+  H71  1  0.86448718  0.12501465  0.65974462  1
  H+  H72  1  0.86676163  0.88082276  0.47511116  1
  H+  H73  1  0.45960583  0.34025146  0.17827413  1
  H+  H74  1  0.88038339  0.77154876  0.83636007  1
  H+  H75  1  0.25010130  0.13465094  0.34086612  1
  H+  H76  1  0.67856797  0.35155398  0.59802874  1
  H+  H77  1  0.12868117  0.61357887  0.99208221  1
  H+  H78  1  0.60211817  0.70666629  0.67223973  1
  H+  H79  1  0.84640505  0.71238953  -0.01151969  1
  H+  H80  1  0.38858878  0.87613658  0.65909970  1
  H+  H81  1  0.95745952  0.06209221  0.64811282  1
  H+  H82  1  0.85544782  0.61745335  0.49550377  1
  H+  H83  1  0.36165034  0.08970827  0.84498436  1
  H+  H84  1  0.89204305  0.28089319  0.48868863  1
  H+  H85  1  0.90596063  0.28389543  0.66034415  1
  H+  H86  1  0.54316377  0.18189405  0.67278661  1
  H+  H87  1  0.76155076  0.38253152  0.33821645  1
  H+  H88  1  0.24876043  0.37210953  0.66434757  1
  H+  H89  1  0.11150164  0.26468942  0.98851177  1
  H+  H90  1  0.47155270  0.61782873  0.17401518  1
  H+  H91  1  0.62380662  0.17191341  0.68845611  1
  H+  H92  1  0.61495698  0.94818711  0.68630590  1
  H+  H93  1  0.45680585  0.82850538  0.00559267  1
  H+  H94  1  0.79412278  0.15299765  0.48433018  1
  H+  H95  1  0.10451096  0.96946677  0.67949395  1
  H+  H96  1  0.66933460  0.83235012  0.92893639  1
  H+  H97  1  0.62993662  0.36127714  0.16651751  1
  H+  H98  1  0.42416276  0.09241836  0.61143749  1
  H+  H99  1  0.02837837  0.12476128  0.01418679  1
  H+  H100  1  0.85645787  -0.02341647  0.16275647  1
  H+  H101  1  0.70478773  0.02855860  0.48885060  1
  H+  H102  1  0.90417921  0.63789487  0.19064926  1
  H+  H103  1  0.51332157  0.62381216  0.01096463  1
  H+  H104  1  0.14168613  0.86002455  0.17123423  1
  H+  H105  1  0.48248140  0.62470285  0.33038026  1
  H+  H106  1  0.89951131  0.30717308  0.99370335  1
  H+  H107  1  0.03599243  0.14689397  0.82005834  1
  H+  H108  1  0.40978243  0.38313576  0.91061031  1
  H+  H109  1  0.12271605  0.12148879  0.32247492  1
  H+  H110  1  0.13738752  0.90986950  0.34300596  1
  H+  H111  1  0.03580696  0.18257411  0.67481721  1
  H+  H112  1  0.13128963  0.35981661  0.17944670  1
  H+  H113  1  0.35661269  0.84021327  0.50723518  1
  H+  H114  1  0.29481560  0.44418056  0.52301799  1
  H+  H115  1  0.61551059  0.72919114  0.33300056  1
  H+  H116  1  0.38392183  0.52930906  0.17870323  1
  H+  H117  1  0.13099662  0.39892233  0.66768076  1
  H+  H118  1  0.07954476  0.00686401  0.35069770  1
  H+  H119  1  0.39954390  0.53607409  0.35272355  1
  H+  H120  1  0.48773880  0.35040458  -0.00290149  1
  H+  H121  1  0.35942364  0.12649770  0.00922909  1
  H+  H122  1  0.77375790  0.11135785  0.80738186  1
  H+  H123  1  0.86792163  0.39695697  0.82571828  1
  H+  H124  1  0.72840663  0.86027378  0.17277729  1
  H+  H125  1  0.77378796  0.38433767  0.16327857  1
  H+  H126  1  0.66660014  0.57367441  0.60725187  1
  H+  H127  1  0.84436120  0.15140155  0.75511088  1
  H+  H128  1  0.38765304  0.76865717  0.16586640  1
  H+  H129  1  0.33618032  0.91576418  0.06758341  1
  H+  H130  1  0.64517838  0.27989939  -0.00338246  1
  H+  H131  1  0.72666307  0.61107856  0.83924332  1
  H+  H132  1  0.09648611  0.43123877  0.76324289  1
  H+  H133  1  0.21807461  0.10339903  0.17759291  1
  H+  H134  1  0.63107654  0.27301249  0.16842619  1
  H+  H135  1  0.08464712  0.65917145  0.10111346  1
  H+  H136  1  0.85794143  0.37422963  0.16112216  1
  H+  H137  1  1.10228027  0.72008990  1.00890511  1
  H+  H138  1  -0.02576885  0.11114127  0.16991613  1
  H+  H139  1  0.63103955  0.75940235  0.84100401  1
  H+  H140  1  0.77807680  0.13805374  0.33406968  1
  H+  H141  1  0.36304707  0.38648682  0.34072005  1
  H+  H142  1  0.38058908  0.60298516  0.99450306  1
  H+  H143  1  0.41445679  0.31818842  0.58233554  1
  H+  H144  1  0.27176537  0.39070380  0.17225360  1
  H+  H145  1  0.61628378  0.47907035  0.83465202  1
  H+  H146  1  0.87554649  0.75948291  0.51026484  1
  H+  H147  1  0.38537002  0.38801452  0.00811530  1
  H+  H148  1  0.12663999  0.14218593  0.49831970  1
  H+  H149  1  0.07817681  0.91209287  0.06879998  1
  H+  H150  1  0.60160513  0.12424865  0.49689661  1
  H+  H151  1  0.13754902  0.62622556  0.83756133  1
  H+  H152  1  0.98543373  0.38539323  0.83570533  1
  H+  H153  1  0.37364066  0.27108407  0.33283142  1
  H+  H154  1  0.39044191  0.36519923  0.66849959  1
  H+  H155  1  0.25126756  0.10604172  0.83509688  1
  H+  H156  1  0.62401409  -0.02660279  0.99430355  1
  H+  H157  1  0.21374738  0.85385375  0.66592454  1
  H+  H158  1  0.86451256  0.94427827  0.01177035  1
  H+  H159  1  0.91733938  0.50076967  0.19149484  1
  H+  H160  1  0.27656615  0.39275744  0.82714600  1
  H+  H161  1  0.58278156  0.82482153  0.50992633  1
  H+  H162  1  0.72385928  0.10770293  0.16899459  1
  H+  H163  1  0.38657255  0.10902071  0.16860462  1
  H+  H164  1  0.36073604  0.87482522  0.82988566  1
  H+  H165  1  0.64576851  0.07578669  0.73910065  1
  H+  H166  1  0.47988749  0.85385041  0.48781168  1
  H+  H167  1  0.50962508  0.12336716  0.31489979  1
  H+  H168  1  0.11424450  0.39756108  0.34108337  1
  H+  H169  1  0.65488066  0.30059558  0.66103487  1
  H+  H170  1  0.86501064  0.23145446  0.33249503  1
  H+  H171  1  0.12501852  0.76570935  0.66328270  1
  H+  H172  1  0.89582782  0.11598243  0.50052328  1
  H+  H173  1  0.74068249  0.36247041  0.99693535  1
  H+  H174  1  0.27646133  0.88513066  0.00868172  1
  H+  H175  1  0.69299716  0.90229750  0.48225604  1
  H+  H176  1  0.47794522  0.36008535  0.66944061  1
  H+  H177  1  0.70691461  0.56854621  0.98946234  1
  H+  H178  1  0.11574850  0.47646016  0.16322062  1
  H+  H179  1  0.60811455  0.47339396  0.67987825  1
  H+  H180  1  0.89072389  0.97622148  0.47592746  1
  H+  H181  1  0.72150401  0.60843235  0.32838923  1
  H+  H182  1  0.87602628  0.84874767  0.66691264  1
  H+  H183  1  0.34002827  0.58586499  0.51158632  1
  H+  H184  1  0.33966759  0.96064027  0.68825621  1
  H+  H185  1  0.71261078  0.83983867  0.65867533  1
  H+  H186  1  0.22741543  0.11249197  0.99888635  1
  H+  H187  1  0.38152925  0.01868439  0.99317811  1
  H+  H188  1  0.35295924  0.95964274  0.83096874  1
  H+  H189  1  0.78796346  0.39772227  0.67025385  1
  H+  H190  1  0.27212291  0.63729441  0.83104814  1
  H+  H191  1  0.64835616  0.61244868  0.51531889  1
  H+  H192  1  0.88212235  0.36416666  0.32541659  1
  H+  H193  1  0.97505575  0.37166912  0.32443605  1
  H+  H194  1  0.87669797  0.61037480  -0.00718708  1
  H+  H195  1  -0.03112240  0.60474570  0.50891061  1
  H+  H196  1  0.61335751  0.96641097  0.16448975  1
  H+  H197  1  0.11721460  0.69756623  0.34229836  1
  H+  H198  1  0.33844546  0.95761016  0.47435612  1
  H+  H199  1  0.42100907  0.03784361  0.31029015  1
  H+  H200  1  0.60496581  0.46850669  0.49651819  1
  H+  H201  1  0.38631875  0.52201148  0.84062891  1
  H+  H202  1  0.14911480  0.61665355  0.17041392  1
  H+  H203  1  0.46497153  0.35953122  0.33031509  1
  H+  H204  1  0.76126121  0.87415949  0.30476989  1
  H+  H205  1  0.16683806  0.83462434  0.31977840  1
  H+  H206  1  0.10564126  0.50146041  0.49569356  1
  H+  H207  1  0.24024622  0.61607689  0.16757961  1
  H+  H208  1  0.52321599  0.13763075  0.15502551  1
  H+  H209  1  0.86418260  0.59516934  0.18395656  1
  H+  H210  1  0.61257541  0.43641213  0.09055753  1
  H+  H211  1  0.10393535  0.88103660  0.67319761  1
  H+  H212  1  0.88791259  0.60980289  0.65980223  1
  H+  H213  1  0.63513476  0.12726091  0.34024147  1
  H+  H214  1  0.51726028  0.37823523  0.49883539  1
  H+  H215  1  0.14359378  0.28486348  0.83249063  1
  H+  H216  1  0.63391933  0.76050719  0.16635386  1
  H+  H217  1  0.59833947  0.74722505  0.50284150  1
  H+  H218  1  0.41368584  0.86332615  0.31706304  1
  H+  H219  1  0.47621260  0.38383492  0.85956062  1
  H+  H220  1  0.35736235  0.38765379  0.17173697  1
  H+  H221  1  0.78345444  0.13755525  0.66633377  1
  H+  H222  1  0.68201210  0.90662951  0.97264223  1
  H+  H223  1  0.51881540  0.63166211  0.82929168  1
  H+  H224  1  0.45654387  0.09998600  0.84861669  1
  H+  H225  1  0.67144431  0.07261795  0.95913000  1
  H+  H226  1  0.47183386  0.86535741  0.65720937  1
  H+  H227  1  0.37295034  0.08575461  0.50399584  1
  H+  H228  1  0.38457315  0.61033910  0.84213365  1
  H+  H229  1  0.85541855  0.96409749  0.82853406  1
  H+  H230  1  0.87999222  0.78516909  0.17374317  1
  H+  H231  1  0.22037116  0.11462714  0.66811280  1
  H+  H232  1  0.43479115  0.18149703  0.59257651  1
  H+  H233  1  0.72217631  0.84969969  0.84069643  1
  H+  H234  1  0.28232531  0.63959458  0.67631608  1
  H+  H235  1  0.13622415  0.02597353  1.00015985  1
  H+  H236  1  0.12181094  0.72342909  0.15788578  1
  H+  H237  1  0.90358328  0.82151195  0.56660383  1
  H+  H238  1  0.37114237  -0.02282680  0.15943722  1
  H+  H239  1  0.89273923  0.52254197  0.66127371  1
  H+  H240  1  0.63638144  0.36669331  0.84170447  1
  H+  H241  1  0.40315564  0.07301342  0.93063249  1
  H+  H242  1  0.13258026  0.11535060  0.66156541  1
  H+  H243  1  0.50623500  0.11706339  0.99627897  1
  H+  H244  1  0.88514425  0.06066919  0.97610097  1
  H+  H245  1  0.10603539  0.41281735  0.49037444  1
  H+  H246  1  0.36928789  0.88618345  0.16010666  1
  H+  H247  1  0.38194853  0.60759476  0.66823721  1
  H+  H248  1  0.63153133  0.27019666  0.50528339  1
  H+  H249  1  0.13614329  0.53580191  0.83564676  1
  H+  H250  1  0.88137563  0.51857930  0.33494962  1
  H+  H251  1  0.77390330  0.62904139  0.67631608  1
  H+  H252  1  0.67273445  0.22325309  0.35958577  1
  H+  H253  1  0.85652491  0.62478599  0.33860734  1
  H+  H254  1  0.38230523  0.85398522  0.99787229  1
  H+  H255  1  0.65448530  0.14827732  0.96264635  1
  H+  H256  1  0.97254956  0.85067347  0.99269789  1
  H+  H257  1  0.34913288  0.20940364  0.16496718  1
  H+  H258  1  0.98482664  0.80431326  0.30802582  1
  H+  H259  1  1.01858713  0.64231508  0.82581682  1
  H+  H260  1  0.10858949  0.21881775  0.49543844  1
  H+  H261  1  0.77692903  0.95876816  0.44825512  1
  H+  H262  1  0.12188337  0.40117215  0.82402033  1
  H+  H263  1  0.59368758  0.13878853  0.81756884  1
  H+  H264  1  0.61205674  0.87384206  0.83425063  1
  H+  H265  1  0.88487513  0.52453059  0.84012786  1
  H+  H266  1  0.78974733  0.17430610  -0.00915705  1
  H+  H267  1  0.11136458  -0.02822753  0.16369970  1
  H+  H268  1  0.61516116  0.27548746  0.31708046  1
  H+  H269  1  0.36394869  0.72227394  0.83247075  1
  H+  H270  1  0.88051136  0.84214545  -0.00271127  1
  H+  H271  1  1.00778901  0.58681349  0.19069174  1
  H+  H272  1  0.14478653  0.52653736  0.31606512  1
  H+  H273  1  0.14479970  0.53091047  0.65864228  1
  H+  H274  1  0.38349179  0.46875566  -0.01833685  1
  H+  H275  1  0.34113321  0.71062722  0.49623431  1
  H+  H276  1  0.76772631  0.38224298  0.49428015  1
  H+  H277  1  0.37014335  0.21800230  0.02370502  1
  H+  H278  1  0.77458908  0.39053849  0.82377392  1
  H+  H279  1  0.63495115  0.10760495  0.16964690  1
  H+  H280  1  0.26122738  0.62453415  1.00461789  1
  H+  H281  1  0.60114168  0.22638110  0.83944789  1
  H+  H282  1  0.57734442  0.81895073  0.02250790  1
  H+  H283  1  0.63265081  0.60378476  0.66454998  1
  H+  H284  1  0.57210558  0.41592659  0.39974758  1
  H+  H285  1  0.35370400  0.23061748  0.68475663  1
  H+  H286  1  1.10412190  0.87210561  0.83904096  1
  H+  H287  1  0.60244863  0.85530825  0.67671882  1
  H+  H288  1  0.91045730  0.82972685  0.89575358  1
  H+  H289  1  0.52279221  0.87648229  0.16844928  1
  H+  H290  1  0.91540534  0.33032795  0.23096038  1
  H+  H291  1  0.18115352  0.10183737  0.57542846  1
  H+  H292  1  0.08910107  0.42643357  0.06864265  1
  H+  H293  1  0.86214919  0.02111282  0.31137751  1
  H+  H294  1  0.58289365  0.04248755  0.68313306  1
  H+  H295  1  0.31686707  0.13819452  0.38936016  1
  H+  H296  1  0.86231820  0.71888313  0.67475874  1
  H+  H297  1  0.43397908  0.09188915  0.22446865  1
  H+  H298  1  0.48411924  0.62758557  0.42411364  1
  H+  H299  1  0.90470251  0.37127887  0.66439076  1
  H+  H300  1  0.84171709  0.42291607  0.73241494  1
  H+  H301  1  0.90531854  0.06108080  0.59022642  1
  H+  H302  1  0.82762972  0.90713989  0.10768888  1
  H+  H303  1  0.11986883  0.91308880  0.49114168  1
  H+  H304  1  0.14767126  0.07654090  0.26755224  1
  H+  H305  1  0.32953839  0.66013362  0.09642543  1
  H+  H306  1  0.87664515  0.37047264  0.49307745  1
  H+  H307  1  0.93161999  0.56982204  0.27701508  1
  H+  H308  1  0.59958377  0.90332136  0.38899556  1
  H+  H309  1  0.39575683  0.56831363  0.60636386  1
  H+  H310  1  0.99149474  0.39174923  0.99703184  1
  H+  H311  1  0.09754007  0.17849642  0.76211138  1
  H+  H312  1  0.03856360  0.39403628  0.66966482  1
  H+  H313  1  0.93839120  0.04465801  0.92975472  1
  H+  H314  1  0.12202107  0.13994022  0.01422212  1
  H+  H315  1  0.27237888  0.87046942  0.43859616  1
  H+  H316  1  0.66817803  0.07414301  0.26322160  1
  H+  H317  1  0.83269466  0.17019914  0.09979550  1
  H+  H318  1  0.84528999  0.66286833  0.14019355  1
  H+  H319  1  0.42013225  0.82200588  0.22824415  1
  H+  H320  1  0.32064818  0.89860274  0.74509221  1
  H+  H321  1  0.14316816  0.83341518  0.57426447  1
  H+  H322  1  0.08476970  0.86799410  0.76914172  1
  H+  H323  1  0.91025098  0.57181630  0.56893412  1
  H+  H324  1  0.83492346  0.41930672  0.07124880  1
  H+  H325  1  0.41855315  0.57102082  0.50696259  1
  H+  H326  1  0.18317232  0.58674594  0.24827525  1
  H+  H327  1  0.63204512  0.00873760  0.82655003  1
  H+  H328  1  0.67358309  0.33763797  0.89680195  1
  H+  H329  1  0.58401557  0.16739480  0.09713184  1
  H+  H330  1  0.68973959  0.07040655  0.54825320  1
  H+  H331  1  0.93219194  0.36490826  0.89685323  1
  H+  H332  1  0.39750941  0.76830563  0.32502334  1
  H+  H333  1  0.81904247  0.40742932  0.39928493  1
  H+  H334  1  0.36776930  0.39420250  0.83183558  1
  H+  H335  1  0.22262652  0.36356809  0.34225259  1
  H+  H336  1  0.15989669  0.33254526  0.24052530  1
  H+  H337  1  0.92778463  0.83050297  0.27050319  1
  H+  H338  1  0.80695142  0.66597474  0.04987335  1
  H+  H339  1  0.15556198  0.33511938  0.89372444  1
  H+  H340  1  0.57610915  0.65729780  0.76869904  1
  H+  H341  1  0.96235965  0.15984787  0.88581345  1
  H+  H342  1  0.14025483  0.61805586  0.66208469  1
  H+  H343  1  0.67279387  0.09931219  0.86250723  1
  H+  H344  1  0.23332872  0.86376586  0.16557540  1
  H+  H345  1  0.33866124  0.41671616  0.73986632  1
  H+  H346  1  0.36530574  0.93187216  0.37382505  1
  H+  H347  1  0.08489294  0.16714982  0.10652129  1
  H+  H348  1  0.41860970  0.58429800  0.93422010  1
  H+  H349  1  0.07872361  0.66499387  0.73279346  1
  H+  H350  1  0.66723789  0.58184023  0.23808990  1
  H+  H351  1  0.32156179  0.14986056  0.10492332  1
  H+  H352  1  0.98036653  0.10909106  0.50591450  1
  H+  H353  1  0.15973250  0.58737095  0.93109247  1
  H+  H354  1  0.39868303  0.21818378  0.48653138  1
  H+  H355  1  0.15455098  0.07564601  0.90316797  1
  H+  H356  1  0.15798250  0.58853831  0.57186682  1
  H+  H357  1  0.61478140  0.64558083  0.31119851  1
  H+  H358  1  0.20660781  0.35084388  0.59842143  1
  H+  H359  1  0.85035633  0.18053736  0.42398762  1
  H+  H360  1  0.31749631  0.66410348  0.39996940  1
  H+  H361  1  1.02358104  0.88348431  0.16474210  1
  H+  H362  1  0.40372342  0.31799113  0.23844681  1
  H+  H363  1  0.58772969  0.15684814  0.43460057  1
  H+  H364  1  0.40211474  0.82972403  0.56666188  1
  H+  H365  1  0.87488981  0.40375027  0.00944535  1
  H+  H366  1  1.01231681  0.63288711  1.00909462  1
  H+  H367  1  0.58210248  0.66509642  0.09856454  1
  H+  H368  1  0.18851067  0.81582847  0.25459374  1
  H+  H369  1  0.07559197  0.66904482  0.44213433  1
  H+  H370  1  0.91278356  0.08336776  0.22818666  1
  H+  H371  1  0.33605398  0.66084448  0.73767857  1
  H+  H372  1  0.06888440  0.95643134  0.41967563  1
  H+  H373  1  0.57735729  0.41338906  0.77878903  1
  H+  H374  1  0.57585586  0.89202702  0.77332822  1
  H+  H375  1  0.65487224  0.33668177  0.26065017  1
  H+  H376  1  0.55742499  0.85740048  0.08128927  1
  H+  H377  1  0.64776062  0.80957906  0.59983990  1
  H+  H378  1  0.82430328  0.64703967  0.43584464  1
  H+  H379  1  0.31588927  0.14681495  0.77941568  1
  H+  H380  1  0.07227874  0.16091596  0.39935486  1
  H+  H381  1  0.85923746  0.47316828  0.49601587  1
  H+  H382  1  0.83506323  0.66296242  0.76863027  1
  H+  H383  1  0.91456709  0.58222513  0.90109637  1
  O2-  O384  1  0.08043558  0.16297992  0.15210894  1
  O2-  O385  1  0.08621516  0.16028946  0.48078391  1
  O2-  O386  1  0.09706704  0.17702068  0.80711910  1
  O2-  O387  1  0.08530603  0.41629814  0.14794838  1
  O2-  O388  1  0.07653553  0.44144140  0.47396479  1
  O2-  O389  1  0.09359497  0.43334073  0.80843825  1
  O2-  O390  1  0.09520187  0.66179854  0.14605770  1
  O2-  O391  1  0.07167822  0.66958258  0.48802811  1
  O2-  O392  1  0.07756633  0.67601546  0.80803009  1
  O2-  O393  1  0.08316670  0.91098694  0.14864547  1
  O2-  O394  1  0.12484291  0.96195963  0.46668324  1
  O2-  O395  1  0.09524542  0.83790552  0.80259698  1
  O2-  O396  1  0.32050153  0.14841759  0.15071436  1
  O2-  O397  1  0.38196840  0.21643524  0.52931780  1
  O2-  O398  1  0.31339263  0.13473220  0.82319221  1
  O2-  O399  1  0.33294224  0.42392930  0.16034134  1
  O2-  O400  1  0.38504271  0.42381971  0.42332835  1
  O2-  O401  1  0.33648277  0.42231679  0.81087135  1
  O2-  O402  1  0.33250847  0.66569633  0.14208581  1
  O2-  O403  1  0.30869707  0.65218988  0.47723143  1
  O2-  O404  1  0.33275167  0.66167581  0.81698661  1
  O2-  O405  1  0.33855655  0.91609808  0.14510534  1
  O2-  O406  1  0.30338333  0.89288770  0.47665289  1
  O2-  O407  1  0.32849325  0.90134306  0.81252450  1
  O2-  O408  1  0.58582862  0.16943163  0.14202839  1
  O2-  O409  1  0.57310053  0.15331398  0.47881341  1
  O2-  O410  1  0.56445654  0.16248145  0.84099938  1
  O2-  O411  1  0.57268228  0.41334995  0.12809595  1
  O2-  O412  1  0.57478300  0.40906975  0.47931595  1
  O2-  O413  1  0.58192396  0.41563244  0.82365616  1
  O2-  O414  1  0.58838980  0.67365818  0.14515278  1
  O2-  O415  1  0.51538524  0.63343695  0.46345181  1
  O2-  O416  1  0.57966385  0.66299357  0.81388840  1
  O2-  O417  1  0.58522855  0.90351673  0.15589579  1
  O2-  O418  1  0.54056364  0.88007061  0.47147155  1
  O2-  O419  1  0.58176420  0.90390878  0.81814020  1
  O2-  O420  1  0.82952167  0.16340706  0.14450001  1
  O2-  O421  1  0.85480283  0.18644637  0.46983726  1
  O2-  O422  1  0.83574101  0.13620959  0.79886621  1
  O2-  O423  1  0.83348745  0.41104094  0.14801680  1
  O2-  O424  1  0.82842557  0.41226595  0.47830749  1
  O2-  O425  1  0.83498795  0.42466633  0.80883678  1
  O2-  O426  1  0.81416235  0.69345727  0.13118678  1
  O2-  O427  1  0.82187612  0.64496258  0.48108574  1
  O2-  O428  1  0.83363345  0.66724649  0.81381833  1
  O2-  O429  1  0.82582176  0.91325504  0.15295918  1
  O2-  O430  1  0.86068911  0.92430600  0.45090898  1
  O2-  O431  1  0.82390859  0.90490592  0.81418539  1
  O2-  O432  1  0.15695419  0.07445184  0.19236855  1
  O2-  O433  1  0.19351600  0.11393511  0.53028537  1
  O2-  O434  1  0.14907720  0.06584107  0.85871242  1
  O2-  O435  1  0.15868031  0.32730638  0.19572181  1
  O2-  O436  1  0.25780045  0.37949492  0.51969409  1
  O2-  O437  1  0.17014650  0.34420581  0.84912385  1
  O2-  O438  1  0.17914940  0.58546098  0.18607254  1
  O2-  O439  1  0.15120309  0.58747580  0.52546315  1
  O2-  O440  1  0.16575731  0.59490052  0.85392497  1
  O2-  O441  1  0.17351908  0.82961641  0.18231606  1
  O2-  O442  1  0.14107521  0.83618774  0.52838781  1
  O2-  O443  1  0.16737477  0.82976368  0.91938364  1
  O2-  O444  1  0.42429897  0.08436925  0.17915009  1
  O2-  O445  1  0.39632227  0.06333481  0.47383938  1
  O2-  O446  1  0.39575479  0.06202733  0.86157901  1
  O2-  O447  1  0.40041950  0.31309201  0.19278274  1
  O2-  O448  1  0.41449812  0.31054870  0.53593716  1
  O2-  O449  1  0.41521498  0.35989239  0.87077742  1
  O2-  O450  1  0.41194440  0.59217357  0.18829649  1
  O2-  O451  1  0.36278132  0.54918724  0.52832491  1
  O2-  O452  1  0.41774743  0.58258762  0.85678292  1
  O2-  O453  1  0.41916216  0.82867865  0.18316647  1
  O2-  O454  1  0.38852481  0.81226003  0.52220824  1
  O2-  O455  1  0.41515725  0.82407948  0.85942241  1
  O2-  O456  1  0.66356877  0.07601080  0.18483598  1
  O2-  O457  1  0.68999910  0.07343879  0.50395846  1
  O2-  O458  1  0.66373163  0.07338835  0.82154914  1
  O2-  O459  1  0.65941304  0.33312466  0.18513503  1
  O2-  O460  1  0.66450161  0.33176274  0.51625998  1
  O2-  O461  1  0.66839895  0.33530745  0.85196193  1
  O2-  O462  1  0.66863857  0.58145042  0.19163945  1
  O2-  O463  1  0.66742633  0.57180339  0.52495464  1
  O2-  O464  1  0.66688522  0.57853633  0.85499989  1
  O2-  O465  1  0.66485518  0.82404222  0.18472732  1
  O2-  O466  1  0.62245306  0.80378120  0.52253273  1
  O2-  O467  1  0.66230468  0.82047595  0.85764385  1
  O2-  O468  1  0.91202454  0.08115400  0.18250508  1
  O2-  O469  1  0.91887732  0.08087822  0.51811785  1
  O2-  O470  1  0.93852173  0.10839904  0.86043329  1
  O2-  O471  1  0.91675292  0.32944811  0.18561957  1
  O2-  O472  1  0.91573450  0.34340651  0.50351478  1
  O2-  O473  1  0.92612910  0.35839137  0.85219859  1
  O2-  O474  1  0.96509414  0.54150330  0.21779096  1
  O2-  O475  1  0.90773398  0.56817829  0.52279184  1
  O2-  O476  1  0.91593555  0.58514567  0.85583860  1
  O2-  O477  1  0.91641702  0.84036051  0.19577901  1
  O2-  O478  1  0.90287212  0.82056469  0.52156152  1
  O2-  O479  1  0.90524780  0.83219469  0.85097543  1
  O2-  O480  1  0.14506496  0.08141148  0.31326954  1
  O2-  O481  1  0.16191370  0.08401859  0.64833781  1
  O2-  O482  1  0.16616193  0.08653331  0.98584743  1
  O2-  O483  1  0.16394199  0.33954182  0.32561157  1
  O2-  O484  1  0.19093281  0.34451280  0.64193554  1
  O2-  O485  1  0.10931518  0.30711464  0.96125851  1
  O2-  O486  1  0.18232883  0.58598300  0.29798499  1
  O2-  O487  1  0.17228979  0.59150720  0.64315729  1
  O2-  O488  1  0.15981899  0.58445504  0.97670743  1
  O2-  O489  1  0.19987558  0.81195562  0.29933124  1
  O2-  O490  1  0.15448451  0.82708086  0.64863965  1
  O2-  O491  1  0.16509328  0.83203807  0.97797104  1
  O2-  O492  1  0.45148684  0.09899493  0.29835842  1
  O2-  O493  1  0.44466410  0.15058197  0.62602176  1
  O2-  O494  1  0.41123910  0.07898530  0.97749543  1
  O2-  O495  1  0.40499314  0.32971080  0.31415531  1
  O2-  O496  1  0.41654414  0.32990858  0.65411230  1
  O2-  O497  1  0.44911621  0.32667200  1.03183131  1
  O2-  O498  1  0.42947306  0.59950449  0.35644625  1
  O2-  O499  1  0.40945276  0.57422164  0.65047040  1
  O2-  O500  1  0.41813705  0.58066650  0.97975141  1
  O2-  O501  1  0.43662778  0.82502933  0.30570561  1
  O2-  O502  1  0.43237336  0.87527589  0.63196282  1
  O2-  O503  1  0.40478961  0.81735743  0.98156971  1
  O2-  O504  1  0.67261934  0.07434812  0.30873829  1
  O2-  O505  1  0.64375693  0.07382233  0.69403116  1
  O2-  O506  1  0.69672742  0.13286261  0.94632608  1
  O2-  O507  1  0.65288985  0.33588427  0.30660876  1
  O2-  O508  1  0.68514609  0.35999868  0.64260837  1
  O2-  O509  1  0.68018754  0.33722646  0.97964047  1
  O2-  O510  1  0.66232704  0.58220657  0.31048489  1
  O2-  O511  1  0.66671786  0.57571794  0.65227710  1
  O2-  O512  1  0.65033094  0.51425183  0.99332983  1
  O2-  O513  1  0.76136256  0.92819482  0.30228868  1
  O2-  O514  1  0.65109551  0.80911719  0.64513420  1
  O2-  O515  1  0.67683447  0.84998045  0.97386140  1
  O2-  O516  1  0.91059291  0.08114796  0.30602837  1
  O2-  O517  1  0.90227959  0.05575121  0.63632990  1
  O2-  O518  1  0.92621565  0.04038082  0.97387622  1
  O2-  O519  1  0.91460254  0.33610852  0.31045402  1
  O2-  O520  1  0.93825261  0.34484186  0.64894405  1
  O2-  O521  1  0.93138856  0.36725172  0.97957299  1
  O2-  O522  1  0.91423738  0.57833236  0.31935806  1
  O2-  O523  1  0.91990946  0.58192679  0.64279584  1
  O2-  O524  1  0.91211570  0.58387737  0.98162421  1
  O2-  O525  1  0.94132634  0.82104279  0.31357372  1
  O2-  O526  1  0.90832306  0.82168460  0.65058611  1
  O2-  O527  1  0.91311936  0.81899177  0.97569379  1
  O2-  O528  1  0.08617956  0.16501870  0.02968626  1
  O2-  O529  1  0.07179085  0.16855337  0.35468098  1
  O2-  O530  1  0.09227790  0.18871039  0.68091335  1
  O2-  O531  1  0.08622567  0.42613738  0.02338752  1
  O2-  O532  1  0.08632034  0.43322051  0.34830913  1
  O2-  O533  1  0.10076957  0.42825212  0.68334103  1
  O2-  O534  1  0.07338593  0.66041689  0.02419080  1
  O2-  O535  1  0.07627003  0.65223265  0.36928821  1
  O2-  O536  1  0.08283107  0.66437259  0.68701831  1
  O2-  O537  1  0.07635961  0.91476326  0.02349880  1
  O2-  O538  1  0.03513341  0.96338103  0.38150414  1
  O2-  O539  1  0.07274832  0.90848170  0.69180182  1
  O2-  O540  1  0.32982282  0.15546560  0.02843026  1
  O2-  O541  1  0.30990814  0.16974655  0.35619009  1
  O2-  O542  1  0.32066259  0.16809787  0.69591754  1
  O2-  O543  1  0.36624637  0.40802543  -0.02661798  1
  O2-  O544  1  0.34101660  0.41945703  0.36538820  1
  O2-  O545  1  0.34053673  0.41511991  0.69330031  1
  O2-  O546  1  0.32151098  0.65150420  0.02031060  1
  O2-  O547  1  0.32739283  0.66621704  0.35475806  1
  O2-  O548  1  0.34088544  0.66109714  0.69250948  1
  O2-  O549  1  0.33720738  0.91598210  0.02200591  1
  O2-  O550  1  0.36416776  0.92449322  0.32988731  1
  O2-  O551  1  0.31637288  0.90008445  0.69739697  1
  O2-  O552  1  0.56668935  0.13389838  0.01326920  1
  O2-  O553  1  0.61844415  0.16896020  0.35934538  1
  O2-  O554  1  0.59889459  0.20904395  0.69397310  1
  O2-  O555  1  0.67383575  0.46627427  0.03543343  1
  O2-  O556  1  0.57144976  0.41960533  0.35440791  1
  O2-  O557  1  0.57831894  0.41184631  0.69308315  1
  O2-  O558  1  0.57210852  0.64716762  0.02992997  1
  O2-  O559  1  0.58524175  0.67961917  0.30641519  1
  O2-  O560  1  0.57351721  0.64700125  0.68888230  1
  O2-  O561  1  0.53103179  0.81949914  0.04576374  1
  O2-  O562  1  0.60445268  0.90967205  0.34445948  1
  O2-  O563  1  0.57604053  0.88766839  0.69622076  1
  O2-  O564  1  0.84128867  0.19753431  0.01807207  1
  O2-  O565  1  0.83850177  0.17165372  0.34927293  1
  O2-  O566  1  0.84453825  0.16373155  0.67593037  1
  O2-  O567  1  0.83371487  0.42196208  0.02569447  1
  O2-  O568  1  0.82095953  0.40686978  0.35395828  1
  O2-  O569  1  0.84754966  0.42337618  0.68681404  1
  O2-  O570  1  0.81073322  0.65375768  0.00655846  1
  O2-  O571  1  0.82408965  0.65283455  0.35507201  1
  O2-  O572  1  0.83517480  0.65791555  0.68949394  1
  O2-  O573  1  0.82575964  0.88837084  0.03169950  1
  O2-  O574  1  0.72237131  0.95662849  0.45896739  1
  O2-  O575  1  0.81205471  0.89402709  0.69071453  1
