# generated using pymatgen
data_H2O
_symmetry_space_group_name_H-M   'P 1'
_cell_length_a   17.97587848
_cell_length_b   17.97962727
_cell_length_c   21.97371174
_cell_angle_alpha   90.02923282
_cell_angle_beta   89.90236933
_cell_angle_gamma   120.06034933
_symmetry_Int_Tables_number   1
_chemical_formula_structural   H2O
_chemical_formula_sum   'H384 O192'
_cell_volume   6146.66824142
_cell_formula_units_Z   192
loop_
 _symmetry_equiv_pos_site_id
 _symmetry_equiv_pos_as_xyz
  1  'x, y, z'
loop_
 _atom_type_symbol
 _atom_type_oxidation_number
  H+  1.0
  O2-  -2.0
loop_
 _atom_site_type_symbol
 _atom_site_label
 _atom_site_symmetry_multiplicity
 _atom_site_fract_x
 _atom_site_fract_y
 _atom_site_fract_z
 _atom_site_occupancy
  H+  H0  1  0.62211305  0.37743600  0.49436397  1
  H+  H1  1  0.12557712  -0.02067185  0.51148002  1
  H+  H2  1  0.39021282  0.50718316  0.66127711  1
  H+  H3  1  0.35852915  0.88268960  0.66618617  1
  H+  H4  1  0.38153539  0.26446934  0.15958947  1
  H+  H5  1  0.36367625  0.42460339  0.38627566  1
  H+  H6  1  0.63735503  0.78299935  0.99535441  1
  H+  H7  1  0.91462634  0.36666663  -0.02647008  1
  H+  H8  1  0.63548785  0.88152343  0.34226071  1
  H+  H9  1  0.59038819  0.87551840  0.01168901  1
  H+  H10  1  0.03038525  0.87407616  0.16120944  1
  H+  H11  1  0.08163812  0.68914878  0.39933763  1
  H+  H12  1  0.88820481  0.39607902  0.82152134  1
  H+  H13  1  0.85998523  0.72466428  0.34565477  1
  H+  H14  1  0.39139962  0.27093394  0.31123461  1
  H+  H15  1  0.50780655  0.88871888  0.33203039  1
  H+  H16  1  0.64002241  0.37111953  0.32635788  1
  H+  H17  1  0.65502140  0.33297014  0.23522358  1
  H+  H18  1  0.65549048  0.27708324  0.66620157  1
  H+  H19  1  0.26154709  0.86897114  0.66854676  1
  H+  H20  1  0.89389753  0.28318800  0.32404085  1
  H+  H21  1  -0.02802721  0.11061646  0.32238578  1
  H+  H22  1  0.13482487  0.02201446  1.00016153  1
  H+  H23  1  1.00985932  0.37231649  0.82501833  1
  H+  H24  1  0.87783863  0.47087923  0.00931589  1
  H+  H25  1  0.36054476  0.86106347  0.48092823  1
  H+  H26  1  0.53733281  0.64610693  0.34896251  1
  H+  H27  1  0.41795279  0.59269203  0.22185606  1
  H+  H28  1  0.86203429  0.97636419  0.67647990  1
  H+  H29  1  0.53130682  0.14681133  0.32813481  1
  H+  H30  1  0.46939756  0.35482054  0.66210859  1
  H+  H31  1  0.07184605  0.15874383  0.10993752  1
  H+  H32  1  -0.07197022  0.84468504  0.58247874  1
  H+  H33  1  0.89033849  0.60311745  0.00192131  1
  H+  H34  1  0.02298799  0.65902812  0.34064527  1
  H+  H35  1  0.60242880  0.00375196  1.00419144  1
  H+  H36  1  0.13838458  0.01210238  0.15706903  1
  H+  H37  1  0.86923374  0.72072522  0.49925917  1
  H+  H38  1  0.89287929  0.51577907  0.49682460  1
  H+  H39  1  0.98322844  0.12980134  0.83638470  1
  H+  H40  1  0.38545051  0.14658448  0.32678284  1
  H+  H41  1  0.13262533  0.10503419  0.66156650  1
  H+  H42  1  0.63979853  0.28054451  0.32319787  1
  H+  H43  1  0.65300880  0.88241601  0.83664638  1
  H+  H44  1  0.95518270  0.11784294  0.99225509  1
  H+  H45  1  0.42995904  1.04117470  0.82344981  1
  H+  H46  1  0.90613051  0.87847232  0.51613975  1
  H+  H47  1  0.96752273  0.59685172  0.17397157  1
  H+  H48  1  0.89327007  0.60469906  0.49894332  1
  H+  H49  1  0.61069818  0.09717675  0.99499458  1
  H+  H50  1  0.47299841  0.12825588  0.97528164  1
  H+  H51  1  0.47601248  0.62492802  0.16369276  1
  H+  H52  1  0.35593801  0.90177176  0.16806540  1
  H+  H53  1  0.85545517  0.86764788  0.99748849  1
  H+  H54  1  0.19112994  0.34201508  0.91890615  1
  H+  H55  1  0.03693992  0.98594169  0.40707544  1
  H+  H56  1  0.12745998  0.86051792  0.66172630  1
  H+  H57  1  0.77022071  0.79855446  0.22218809  1
  H+  H58  1  0.41827871  0.79306589  0.32858264  1
  H+  H59  1  0.53406789  0.37891488  0.49624378  1
  H+  H60  1  0.12027760  0.88417951  0.50964108  1
  H+  H61  1  0.19524888  0.07852848  0.39051498  1
  H+  H62  1  0.65269841  0.06824453  0.84377605  1
  H+  H63  1  0.74869120  0.12839985  0.15119737  1
  H+  H64  1  0.53474381  0.65361742  0.01120761  1
  H+  H65  1  0.84612742  0.99427284  0.00033688  1
  H+  H66  1  0.15134985  0.62517222  0.67196603  1
  H+  H67  1  0.12284534  0.42292142  0.62829876  1
  H+  H68  1  0.51228490  0.64847205  0.50017980  1
  H+  H69  1  0.26786967  0.13271201  0.66889729  1
  H+  H70  1  0.96411712  0.35067047  0.50333097  1
  H+  H71  1  0.36777906  0.37314050  0.67796131  1
  H+  H72  1  0.74703044  0.35897642  0.84967632  1
  H+  H73  1  0.63666309  0.26256441  0.50488167  1
  H+  H74  1  0.61780792  0.64929755  0.16686184  1
  H+  H75  1  0.83469098  0.92160745  0.15499736  1
  H+  H76  1  0.86873336  0.72824551  0.83621133  1
  H+  H77  1  0.14518563  0.53464844  0.65955905  1
  H+  H78  1  0.51665830  0.47144542  0.70396596  1
  H+  H79  1  0.62419655  0.36232156  0.17418185  1
  H+  H80  1  0.40312758  0.61946006  0.32694234  1
  H+  H81  1  0.59153928  0.66155690  0.57732596  1
  H+  H82  1  0.66356446  0.87940649  0.50640583  1
  H+  H83  1  0.49506594  0.63638239  0.85087755  1
  H+  H84  1  0.02317428  0.41812877  0.32308613  1
  H+  H85  1  0.30934140  0.23377592  0.81533863  1
  H+  H86  1  0.06843088  0.77061995  0.23066602  1
  H+  H87  1  0.62070607  0.73659411  0.35552528  1
  H+  H88  1  0.27844918  0.63282983  0.66909276  1
  H+  H89  1  0.50606756  0.40446620  0.82891948  1
  H+  H90  1  0.50210122  0.87519416  0.49751636  1
  H+  H91  1  0.39727851  0.03467673  0.31568327  1
  H+  H92  1  0.02351554  0.61544312  0.84279200  1
  H+  H93  1  0.55707727  0.89974923  0.07272190  1
  H+  H94  1  0.14170304  0.09785054  0.49709273  1
  H+  H95  1  0.11245166  0.76556724  0.65263629  1
  H+  H96  1  0.40719839  0.53328521  0.32035992  1
  H+  H97  1  0.41819971  0.09139224  0.25392883  1
  H+  H98  1  0.71869758  0.09460193  0.59079173  1
  H+  H99  1  0.60287946  0.22616708  0.15845578  1
  H+  H100  1  0.35203821  0.12580616  0.66800006  1
  H+  H101  1  0.40314339  0.87746786  0.81901054  1
  H+  H102  1  0.12401360  0.19668368  0.31512938  1
  H+  H103  1  0.38356196  0.41186385  -0.00662240  1
  H+  H104  1  0.81714799  0.16387510  0.40209788  1
  H+  H105  1  0.87791232  0.35378973  0.50324026  1
  H+  H106  1  0.14067617  0.40950554  0.52942979  1
  H+  H107  1  0.60398057  0.13758015  0.15600556  1
  H+  H108  1  0.60130619  0.48470262  0.83524355  1
  H+  H109  1  0.35141654  0.40506688  0.74399156  1
  H+  H110  1  0.86247505  0.72018402  0.02018903  1
  H+  H111  1  0.72970192  0.61414515  1.00653014  1
  H+  H112  1  0.39233392  0.13907185  0.96487921  1
  H+  H113  1  0.28966660  0.39875096  0.33399778  1
  H+  H114  1  0.29744630  0.90306583  0.82993164  1
  H+  H115  1  0.08000183  0.09346156  0.30840949  1
  H+  H116  1  0.89444176  0.75786210  0.18411307  1
  H+  H117  1  0.88838239  0.51791644  0.84466282  1
  H+  H118  1  0.61620378  0.87097941  0.68279545  1
  H+  H119  1  0.66334153  0.84662779  0.93666771  1
  H+  H120  1  0.14161289  0.47755649  0.82019276  1
  H+  H121  1  0.08367872  0.10181795  0.01836524  1
  H+  H122  1  0.64651584  0.78370382  0.51204198  1
  H+  H123  1  0.37365751  0.73522477  0.81681679  1
  H+  H124  1  0.74574751  0.38122750  0.16550654  1
  H+  H125  1  0.26960443  0.86921710  0.01152504  1
  H+  H126  1  0.79204457  0.84126172  0.23827698  1
  H+  H127  1  0.52396795  0.13347732  0.48647697  1
  H+  H128  1  0.13471044  0.76389861  -0.00579064  1
  H+  H129  1  0.52664255  0.62438518  0.63238681  1
  H+  H130  1  0.16983931  0.36540077  0.82891799  1
  H+  H131  1  0.37717765  0.02532557  0.16520257  1
  H+  H132  1  0.12114492  0.63418833  1.00699352  1
  H+  H133  1  0.29699163  0.14586606  0.33488417  1
  H+  H134  1  0.57176044  0.16567765  0.05999702  1
  H+  H135  1  0.56194149  0.43703343  0.74781981  1
  H+  H136  1  0.29513129  0.41123406  -0.00548552  1
  H+  H137  1  0.38352084  0.26001696  0.65743205  1
  H+  H138  1  0.61598185  0.47874508  1.00541879  1
  H+  H139  1  0.92997930  0.12976413  0.51176704  1
  H+  H140  1  0.88349510  0.61066458  0.33135543  1
  H+  H141  1  0.62054423  0.14744152  0.32911981  1
  H+  H142  1  0.86915936  0.97800618  0.49997217  1
  H+  H143  1  0.83726486  0.66750302  0.77820150  1
  H+  H144  1  0.02115345  0.63039108  0.49026879  1
  H+  H145  1  0.83427433  0.66351835  0.40398079  1
  H+  H146  1  0.83442507  0.13787283  1.00193821  1
  H+  H147  1  0.24976872  0.36479832  0.16289927  1
  H+  H148  1  0.85541453  0.88768491  0.34158523  1
  H+  H149  1  0.99046525  0.13227218  0.18159275  1
  H+  H150  1  0.23798509  0.11453629  0.50362176  1
  H+  H151  1  0.38730253  0.29151688  -0.01955465  1
  H+  H152  1  0.27394447  0.13480704  0.14742181  1
  H+  H153  1  0.15951850  0.53368820  0.99339914  1
  H+  H154  1  0.64070116  0.76734955  0.64621546  1
  H+  H155  1  0.25985209  0.83797839  0.30486213  1
  H+  H156  1  0.65217513  0.61360035  0.64246077  1
  H+  H157  1  0.12276115  0.46895647  0.15276488  1
  H+  H158  1  0.11513553  -0.02497548  0.67145214  1
  H+  H159  1  0.62092176  0.47991851  0.34235422  1
  H+  H160  1  0.08648622  0.27016382  0.47214235  1
  H+  H161  1  0.13607930  0.85352685  -0.00624743  1
  H+  H162  1  0.72777394  0.35858556  0.99978992  1
  H+  H163  1  0.35715132  0.65247503  0.15899649  1
  H+  H164  1  0.11289291  0.61203148  0.84077260  1
  H+  H165  1  0.22586250  0.85414257  0.50450108  1
  H+  H166  1  0.89565937  0.37305639  0.65948862  1
  H+  H167  1  0.40186321  0.49497698  0.47935459  1
  H+  H168  1  0.65517081  0.51353441  0.50660269  1
  H+  H169  1  0.26959258  0.15263844  -0.00356809  1
  H+  H170  1  0.65258532  0.79398049  0.84346401  1
  H+  H171  1  0.36757922  0.72454699  0.49342004  1
  H+  H172  1  0.08226631  -0.01761970  0.30960586  1
  H+  H173  1  0.88330170  0.24444612  0.67255378  1
  H+  H174  1  0.78082595  0.62911590  0.49768139  1
  H+  H175  1  0.00912372  0.37950953  -0.02125937  1
  H+  H176  1  0.87762763  0.48711481  0.68057798  1
  H+  H177  1  0.16292510  0.90379593  0.34781179  1
  H+  H178  1  0.38762048  0.10456006  0.49161621  1
  H+  H179  1  0.70707456  0.88482567  0.18506937  1
  H+  H180  1  0.65423145  0.14748397  0.66832635  1
  H+  H181  1  0.11982876  0.21619634  0.67791368  1
  H+  H182  1  0.50685664  0.89177027  0.16452053  1
  H+  H183  1  0.82374226  0.20903089  0.50435629  1
  H+  H184  1  0.14017620  0.32810387  0.32809006  1
  H+  H185  1  0.38569578  0.36280613  0.30979862  1
  H+  H186  1  0.56737071  0.13495718  0.82832288  1
  H+  H187  1  0.78411401  0.90531250  0.83279718  1
  H+  H188  1  0.73162411  0.12661975  0.31751758  1
  H+  H189  1  0.03296668  0.39476073  0.66141276  1
  H+  H190  1  0.38640346  0.66735966  1.00844593  1
  H+  H191  1  0.86127769  0.62810559  0.17059822  1
  H+  H192  1  0.61078036  0.22586062  1.00205535  1
  H+  H193  1  0.45085432  0.09183072  0.64247664  1
  H+  H194  1  0.12678463  0.22929465  0.82505581  1
  H+  H195  1  0.19979455  0.04741612  0.37019954  1
  H+  H196  1  0.73461470  0.11660163  0.00785446  1
  H+  H197  1  0.49846104  0.88541848  0.66365442  1
  H+  H198  1  0.63351018  0.65176209  0.83953683  1
  H+  H199  1  0.77986354  0.63579834  0.68215032  1
  H+  H200  1  0.44934648  0.81549052  0.01011622  1
  H+  H201  1  0.85370302  0.34770016  0.16709741  1
  H+  H202  1  1.03192909  0.87999516  0.82509640  1
  H+  H203  1  0.48088863  0.37439250  0.98047768  1
  H+  H204  1  0.62241186  0.02172908  0.16934085  1
  H+  H205  1  0.21594072  0.60630693  0.18431118  1
  H+  H206  1  0.59316022  0.88640279  0.16834026  1
  H+  H207  1  0.15224092  0.35010496  0.67845015  1
  H+  H208  1  0.64689781  0.36098137  0.66545320  1
  H+  H209  1  0.16825506  0.75364922  0.31591858  1
  H+  H210  1  0.82517432  0.07674133  0.52666003  1
  H+  H211  1  0.40782336  0.36647104  0.50292981  1
  H+  H212  1  0.61562365  0.38908279  0.00348469  1
  H+  H213  1  0.17590460  0.42164776  0.30459603  1
  H+  H214  1  0.28168807  0.62336727  0.34009522  1
  H+  H215  1  0.89004657  0.60857608  0.84835880  1
  H+  H216  1  0.16777875  0.29063817  -0.01820336  1
  H+  H217  1  0.64097325  0.52681407  0.66789660  1
  H+  H218  1  0.73248162  0.61619606  0.84991202  1
  H+  H219  1  0.67306792  0.03607695  0.65007707  1
  H+  H220  1  0.16772997  0.91507860  0.31452708  1
  H+  H221  1  0.72188694  0.87789024  0.33864975  1
  H+  H222  1  -0.00429944  0.04925645  0.05294822  1
  H+  H223  1  0.13557886  0.38829523  0.14679864  1
  H+  H224  1  0.32573993  0.69069145  0.10744553  1
  H+  H225  1  1.02440802  0.88092827  1.00854523  1
  H+  H226  1  0.64454334  0.62111885  0.33409400  1
  H+  H227  1  0.27066295  0.64203224  0.49450592  1
  H+  H228  1  0.40487549  0.63290599  0.84602196  1
  H+  H229  1  0.09442414  0.69895090  0.16589083  1
  H+  H230  1  0.77449596  0.88454032  0.67691630  1
  H+  H231  1  0.77401472  0.63519597  0.17071110  1
  H+  H232  1  0.37778371  0.78846766  0.18235851  1
  H+  H233  1  0.83870252  0.22229129  0.14910935  1
  H+  H234  1  0.47196796  0.48108874  0.44703945  1
  H+  H235  1  0.07882337  0.43683017  0.42882211  1
  H+  H236  1  0.40244761  0.55216868  0.99636726  1
  H+  H237  1  0.02858104  0.01201401  0.87971952  1
  H+  H238  1  0.77248799  0.37624828  0.49079711  1
  H+  H239  1  0.13699334  0.62415316  0.50553709  1
  H+  H240  1  0.52277620  0.38895246  0.15452093  1
  H+  H241  1  0.77266880  0.38764230  0.33436588  1
  H+  H242  1  0.52952632  0.87617727  0.78166148  1
  H+  H243  1  0.37191069  0.22726890  0.49092541  1
  H+  H244  1  0.64405667  0.62222961  0.00368580  1
  H+  H245  1  0.95725414  0.86598005  0.34653421  1
  H+  H246  1  1.02544906  0.13034687  0.67413268  1
  H+  H247  1  0.89225398  0.87393422  0.84051093  1
  H+  H248  1  0.90076753  0.62063512  0.68311063  1
  H+  H249  1  0.61961634  0.94032453  0.43524061  1
  H+  H250  1  0.24131567  0.61229886  0.83918213  1
  H+  H251  1  0.58651119  0.67418617  0.45128518  1
  H+  H252  1  0.36418312  0.13759170  0.14832182  1
  H+  H253  1  0.13950738  0.40196125  -0.00482661  1
  H+  H254  1  -0.01090270  0.62085181  0.68976498  1
  H+  H255  1  0.25744035  0.35666076  0.83559381  1
  H+  H256  1  0.11626340  0.03264544  0.24478070  1
  H+  H257  1  0.89224285  0.03999950  0.83595232  1
  H+  H258  1  0.10631113  0.72470583  0.49656371  1
  H+  H259  1  0.13321337  0.28967617  0.46400617  1
  H+  H260  1  0.57136667  0.13914370  0.70043090  1
  H+  H261  1  0.75751499  0.90352692  0.00785842  1
  H+  H262  1  0.78926762  0.88439941  0.49875547  1
  H+  H263  1  0.90074919  0.25971455  0.82322764  1
  H+  H264  1  0.66649397  0.99538685  0.49525830  1
  H+  H265  1  0.91768080  0.09365387  0.24317182  1
  H+  H266  1  0.12131512  0.59048624  0.18203838  1
  H+  H267  1  0.43553648  0.61549868  0.93916040  1
  H+  H268  1  0.64324394  0.03598778  0.32229566  1
  H+  H269  1  0.88096014  1.02246456  0.32691060  1
  H+  H270  1  0.16627600  0.88329410  0.84276319  1
  H+  H271  1  0.37106933  0.60242488  0.50448623  1
  H+  H272  1  0.79699956  0.15226782  0.67343518  1
  H+  H273  1  0.85974278  0.13972371  0.34697348  1
  H+  H274  1  0.63653363  0.53027188  0.17555798  1
  H+  H275  1  0.37382821  0.71238485  0.66670410  1
  H+  H276  1  0.86303681  0.47547275  0.33984509  1
  H+  H277  1  0.00800534  0.08275792  0.46569554  1
  H+  H278  1  0.97962541  0.86714714  0.66757601  1
  H+  H279  1  0.39394503  0.90585903  0.33273717  1
  H+  H280  1  0.34247608  0.84644385  0.02020987  1
  H+  H281  1  0.10677717  -0.02669605  0.82748782  1
  H+  H282  1  0.15426067  0.73475671  0.71989869  1
  H+  H283  1  0.37658264  0.48147527  0.14733848  1
  H+  H284  1  0.40363233  1.06125007  0.54745592  1
  H+  H285  1  0.36429383  1.00336217  0.65238152  1
  H+  H286  1  0.10405283  0.48966915  0.48968651  1
  H+  H287  1  0.09768666  0.09758200  0.84838074  1
  H+  H288  1  0.45103234  0.11013791  0.87421110  1
  H+  H289  1  0.68816839  0.56926425  0.56748265  1
  H+  H290  1  0.07764790  0.64627914  0.10349529  1
  H+  H291  1  0.09347328  0.65602818  0.76104008  1
  H+  H292  1  0.19120565  0.84758358  0.90073266  1
  H+  H293  1  0.84622261  0.42087624  0.76710785  1
  H+  H294  1  0.89444034  0.31994720  0.22013782  1
  H+  H295  1  0.08367734  0.90514901  0.06738824  1
  H+  H296  1  0.16824063  0.59504460  0.56545251  1
  H+  H297  1  0.35097129  0.42599700  0.08594057  1
  H+  H298  1  0.02820073  0.62705162  0.00849739  1
  H+  H299  1  0.38842262  0.35965082  0.15862577  1
  H+  H300  1  0.07076176  0.11918571  0.40855412  1
  H+  H301  1  0.88523384  1.05379726  0.17155132  1
  H+  H302  1  0.78774210  0.39658033  0.67356207  1
  H+  H303  1  0.40035261  0.56602390  0.56219762  1
  H+  H304  1  0.56661452  0.97732594  0.38705505  1
  H+  H305  1  0.85629675  0.18978437  0.76170398  1
  H+  H306  1  0.11484106  0.42646923  0.75652841  1
  H+  H307  1  0.60499574  0.67947839  0.77918363  1
  H+  H308  1  0.66928320  0.26357314  0.85440367  1
  H+  H309  1  0.88458552  0.36586595  0.31953980  1
  H+  H310  1  0.91197144  0.84116189  0.90184003  1
  H+  H311  1  0.38774462  0.59492456  0.65789803  1
  H+  H312  1  0.65248791  0.03112627  0.90597996  1
  H+  H313  1  0.61468324  0.73733334  0.16982512  1
  H+  H314  1  0.05601706  0.91370872  0.42403321  1
  H+  H315  1  0.16562368  0.79634788  0.23377300  1
  H+  H316  1  0.33945627  0.92018424  0.76351240  1
  H+  H317  1  0.29570717  0.16838897  0.76509522  1
  H+  H318  1  0.90073299  0.84794560  0.18543342  1
  H+  H319  1  0.10763986  0.42450300  0.05772954  1
  H+  H320  1  0.59495213  0.68358696  0.07040780  1
  H+  H321  1  0.73048641  0.61623872  0.33074280  1
  H+  H322  1  0.67207336  0.32443174  0.56486442  1
  H+  H323  1  0.87191977  0.51478904  0.17771048  1
  H+  H324  1  0.83012906  0.40507035  0.42974161  1
  H+  H325  1  0.66670902  0.58713160  0.23710234  1
  H+  H326  1  0.89675212  0.11925375  0.66661382  1
  H+  H327  1  0.67768205  0.33274323  0.93657946  1
  H+  H328  1  0.32739571  0.91722010  0.10376767  1
  H+  H329  1  0.40918284  0.32596401  0.24171366  1
  H+  H330  1  0.46932753  0.11570517  0.16384774  1
  H+  H331  1  0.14074929  0.52060289  0.26858014  1
  H+  H332  1  0.92074746  0.83033732  0.27917772  1
  H+  H333  1  0.42041159  0.32674227  0.56568872  1
  H+  H334  1  0.19371230  0.34687579  0.22420623  1
  H+  H335  1  0.88917866  0.86780782  0.66701479  1
  H+  H336  1  0.66272772  0.08711878  0.22659674  1
  H+  H337  1  0.12324022  0.22982908  0.16324720  1
  H+  H338  1  0.64592553  0.17139971  0.78159933  1
  H+  H339  1  0.24165587  0.35220909  0.67852119  1
  H+  H340  1  0.17984007  0.37051918  0.57705950  1
  H+  H341  1  0.67291030  0.59060177  0.90983392  1
  H+  H342  1  0.90828769  0.10046778  0.92767826  1
  H+  H343  1  0.88135637  0.15439395  0.82476563  1
  H+  H344  1  0.59542991  0.41801789  0.40009339  1
  H+  H345  1  0.42314227  0.85089374  0.23943621  1
  H+  H346  1  0.45565958  0.85747014  0.86831340  1
  H+  H347  1  0.86533922  0.72764786  0.68328760  1
  H+  H348  1  0.16651870  0.08099190  0.60043186  1
  H+  H349  1  0.17247957  0.83501308  0.56859481  1
  H+  H350  1  0.79981902  0.41711910  0.10407850  1
  H+  H351  1  0.91321046  0.58040717  0.27201342  1
  H+  H352  1  0.33696872  0.66676212  0.39856226  1
  H+  H353  1  0.58527862  0.42128320  0.09721486  1
  H+  H354  1  0.24279439  0.62917996  0.99343870  1
  H+  H355  1  0.80315174  0.15893685  0.07976011  1
  H+  H356  1  0.08694799  0.16400338  0.76782321  1
  H+  H357  1  0.83716132  0.66113201  0.07913810  1
  H+  H358  1  0.48611287  0.95054263  0.62517032  1
  H+  H359  1  0.28057649  0.80292747  0.44065866  1
  H+  H360  1  0.65403700  0.84523262  0.24665173  1
  H+  H361  1  0.13685571  0.07474205  0.94209807  1
  H+  H362  1  0.39174211  0.35491235  0.88455203  1
  H+  H363  1  0.87914175  0.40097990  0.05418484  1
  H+  H364  1  0.83891609  0.92692406  0.77126353  1
  H+  H365  1  0.33433562  0.17995596  0.05151844  1
  H+  H366  1  0.80536546  0.77956645  0.96509225  1
  H+  H367  1  0.91627117  0.33609151  0.59830314  1
  H+  H368  1  0.34543246  0.92361780  0.38597719  1
  H+  H369  1  0.00793505  0.88129819  0.52232627  1
  H+  H370  1  0.95354480  0.34748413  0.88847779  1
  H+  H371  1  0.91015083  0.07991408  0.60566223  1
  H+  H372  1  0.81579327  0.95586587  0.09499508  1
  H+  H373  1  0.34640239  0.17451654  0.42867847  1
  H+  H374  1  0.44441580  0.85072110  0.55612955  1
  H+  H375  1  0.08865282  0.91737870  0.73295110  1
  H+  H376  1  0.58764960  0.17251160  0.43043566  1
  H+  H377  1  0.11535297  0.87079963  0.16099091  1
  H+  H378  1  0.18530166  0.57817235  0.90033874  1
  H+  H379  1  0.34255343  0.66410386  0.76501127  1
  H+  H380  1  0.83970594  0.92390548  0.40345663  1
  H+  H381  1  0.91627749  0.57366992  0.94013291  1
  H+  H382  1  0.67921923  0.84417974  0.60113271  1
  H+  H383  1  0.13373506  0.09994908  0.16280360  1
  O2-  O384  1  0.08077319  0.16709731  0.15494770  1
  O2-  O385  1  0.05781283  0.08437781  0.44655476  1
  O2-  O386  1  0.08249412  0.16894565  0.81302046  1
  O2-  O387  1  0.10367734  0.41487211  0.12979870  1
  O2-  O388  1  0.07599866  0.42969499  0.47352425  1
  O2-  O389  1  0.11287553  0.41851251  0.80102036  1
  O2-  O390  1  0.06965117  0.63951433  0.14874515  1
  O2-  O391  1  0.08485637  0.66760351  0.47780847  1
  O2-  O392  1  0.08296998  0.64263763  0.82635786  1
  O2-  O393  1  0.08891064  0.90308062  0.14246270  1
  O2-  O394  1  0.08641015  0.91560932  0.50260784  1
  O2-  O395  1  0.09090958  0.91659874  0.80918291  1
  O2-  O396  1  0.33422628  0.16933706  0.13270260  1
  O2-  O397  1  0.33836508  0.16772697  0.47328997  1
  O2-  O398  1  0.26792329  0.17551559  0.80132838  1
  O2-  O399  1  0.35066423  0.42145791  0.13202426  1
  O2-  O400  1  0.41045570  0.45114307  0.45595582  1
  O2-  O401  1  0.34916642  0.39868546  0.81812313  1
  O2-  O402  1  0.32330863  0.68163711  0.15202223  1
  O2-  O403  1  0.33088122  0.66542721  0.47786235  1
  O2-  O404  1  0.34289835  0.67179968  0.80973248  1
  O2-  O405  1  0.32749263  0.93045282  0.14826926  1
  O2-  O406  1  0.30921535  0.85847029  0.46128259  1
  O2-  O407  1  0.35450090  0.92626301  0.80714391  1
  O2-  O408  1  0.57335703  0.16721092  0.14045387  1
  O2-  O409  1  0.58582807  0.17006466  0.47541820  1
  O2-  O410  1  0.63260619  0.15981931  0.82499373  1
  O2-  O411  1  0.58439704  0.42300618  0.14295865  1
  O2-  O412  1  0.59372583  0.41029043  0.47989875  1
  O2-  O413  1  0.56628826  0.42818723  0.81516280  1
  O2-  O414  1  0.58912372  0.68004347  0.14982858  1
  O2-  O415  1  0.57593247  0.68020471  0.49502865  1
  O2-  O416  1  0.60779892  0.68685655  0.82317849  1
  O2-  O417  1  0.56766186  0.91781259  0.14783309  1
  O2-  O418  1  0.62114501  0.93655984  0.48095558  1
  O2-  O419  1  0.58312262  0.87876978  0.76552484  1
  O2-  O420  1  0.80885176  0.16025259  0.13208976  1
  O2-  O421  1  0.77993099  0.15676904  0.48232915  1
  O2-  O422  1  0.85971453  0.19365230  0.80841817  1
  O2-  O423  1  0.80693228  0.41425027  0.14804322  1
  O2-  O424  1  0.83313066  0.40550147  0.47521710  1
  O2-  O425  1  0.85128870  0.42121885  0.81265169  1
  O2-  O426  1  0.83553085  0.66397933  0.15627207  1
  O2-  O427  1  0.84183184  0.66434756  0.47975243  1
  O2-  O428  1  0.83802463  0.66690894  0.82395002  1
  O2-  O429  1  0.81684499  0.96185162  0.14129672  1
  O2-  O430  1  0.85142458  0.91851004  0.48505157  1
  O2-  O431  1  0.84461875  0.93345215  0.81661190  1
  O2-  O432  1  0.16642491  0.07140226  0.17473554  1
  O2-  O433  1  0.17814655  0.08182468  0.52123536  1
  O2-  O434  1  0.09046084  0.04664697  0.87311816  1
  O2-  O435  1  0.19008247  0.33275659  0.18037619  1
  O2-  O436  1  0.17443656  0.42076522  0.56723118  1
  O2-  O437  1  0.19212002  0.33060268  0.84839525  1
  O2-  O438  1  0.15617261  0.56498998  0.19732966  1
  O2-  O439  1  0.16899767  0.59431940  0.52026244  1
  O2-  O440  1  0.18191182  0.57267795  0.85490715  1
  O2-  O441  1  0.11834583  0.79107654  0.20395880  1
  O2-  O442  1  0.16867735  0.83634951  0.52331903  1
  O2-  O443  1  0.20383594  0.86160052  0.85689927  1
  O2-  O444  1  0.40904418  0.08900011  0.17973278  1
  O2-  O445  1  0.41421036  0.06989177  0.50341798  1
  O2-  O446  1  0.46800395  0.10287639  0.83212072  1
  O2-  O447  1  0.41282819  0.32533246  0.17748026  1
  O2-  O448  1  0.42562485  0.32681366  0.52000501  1
  O2-  O449  1  0.38852177  0.34796563  0.83946920  1
  O2-  O450  1  0.41455842  0.59219625  0.17681956  1
  O2-  O451  1  0.40490370  0.57459588  0.51701809  1
  O2-  O452  1  0.43687071  0.60983198  0.86849092  1
  O2-  O453  1  0.41273123  0.84983875  0.19452491  1
  O2-  O454  1  0.44128262  0.84226955  0.51156082  1
  O2-  O455  1  0.43715961  0.84591789  0.82594601  1
  O2-  O456  1  0.65685970  0.08423646  0.18071929  1
  O2-  O457  1  0.75484914  0.08413675  0.52536472  1
  O2-  O458  1  0.65885444  0.02171529  0.86262448  1
  O2-  O459  1  0.65149461  0.32892801  0.18892132  1
  O2-  O460  1  0.67102223  0.32481208  0.51991736  1
  O2-  O461  1  0.68902253  0.32381274  0.86735464  1
  O2-  O462  1  0.66862685  0.59033845  0.19127260  1
  O2-  O463  1  0.68836596  0.57352561  0.52250272  1
  O2-  O464  1  0.67178355  0.59202212  0.86428524  1
  O2-  O465  1  0.65036672  0.84203590  0.20095813  1
  O2-  O466  1  0.68818610  0.84450201  0.52425332  1
  O2-  O467  1  0.68056292  0.85454957  0.85852209  1
  O2-  O468  1  0.92703142  0.10626086  0.19614841  1
  O2-  O469  1  0.88745322  0.07414346  0.52843438  1
  O2-  O470  1  0.92116564  0.10123756  0.85058465  1
  O2-  O471  1  0.88182647  0.31359285  0.17592560  1
  O2-  O472  1  0.90547507  0.32126835  0.52115254  1
  O2-  O473  1  0.94938751  0.34449763  0.84136265  1
  O2-  O474  1  0.90868230  0.57537327  0.19200555  1
  O2-  O475  1  0.92653440  0.57652573  0.51042249  1
  O2-  O476  1  0.91681936  0.57596652  0.86488264  1
  O2-  O477  1  0.93195751  0.81975796  0.19894288  1
  O2-  O478  1  0.93706033  0.84927028  0.53515293  1
  O2-  O479  1  0.92163492  0.84354578  0.85743262  1
  O2-  O480  1  0.07296958  0.01563254  0.27806832  1
  O2-  O481  1  0.16314724  0.07471417  0.64544662  1
  O2-  O482  1  0.15184030  0.08140556  0.98660901  1
  O2-  O483  1  0.18827639  0.37224783  0.30485390  1
  O2-  O484  1  0.18085997  0.31954740  0.66305449  1
  O2-  O485  1  0.19156741  0.34849387  0.96549027  1
  O2-  O486  1  0.15078673  0.49663722  0.30754441  1
  O2-  O487  1  0.17837909  0.59698723  0.64848306  1
  O2-  O488  1  0.18372925  0.59413619  0.97731805  1
  O2-  O489  1  0.21623409  0.78411447  0.28558114  1
  O2-  O490  1  0.15441499  0.82627093  0.64510039  1
  O2-  O491  1  0.16627977  0.82409286  0.97851404  1
  O2-  O492  1  0.42394539  0.09522183  0.30005320  1
  O2-  O493  1  0.38989458  0.06181991  0.63278594  1
  O2-  O494  1  0.42222928  0.10998157  0.94887210  1
  O2-  O495  1  0.41155148  0.32894115  0.29038735  1
  O2-  O496  1  0.41296147  0.32130481  0.64141494  1
  O2-  O497  1  0.42123866  0.35199459  0.96499572  1
  O2-  O498  1  0.43733548  0.59494730  0.30900437  1
  O2-  O499  1  0.41500238  0.56378875  0.63946615  1
  O2-  O500  1  0.43357704  0.61469895  0.98594585  1
  O2-  O501  1  0.44548414  0.85256377  0.31382150  1
  O2-  O502  1  0.45599911  0.88969670  0.63604653  1
  O2-  O503  1  0.38938071  0.77827589  0.99282849  1
  O2-  O504  1  0.67228667  0.09505399  0.30090177  1
  O2-  O505  1  0.70092439  0.09535266  0.63520936  1
  O2-  O506  1  0.63922935  0.06218668  0.98703127  1
  O2-  O507  1  0.66984302  0.34105636  0.30723299  1
  O2-  O508  1  0.67906127  0.33567200  0.64800433  1
  O2-  O509  1  0.66976603  0.33536643  0.98289274  1
  O2-  O510  1  0.67020476  0.58915834  0.31451592  1
  O2-  O511  1  0.68378476  0.58149106  0.64739482  1
  O2-  O512  1  0.67160932  0.58944506  0.98786143  1
  O2-  O513  1  0.66057339  0.84746281  0.32574111  1
  O2-  O514  1  0.67135264  0.83150556  0.64613368  1
  O2-  O515  1  0.66125295  0.84439985  0.98223352  1
  O2-  O516  1  0.91025890  0.08304399  0.30991996  1
  O2-  O517  1  0.91818184  0.08125742  0.65086241  1
  O2-  O518  1  0.89847599  0.09593030  0.97282584  1
  O2-  O519  1  0.91908140  0.33978160  0.30344439  1
  O2-  O520  1  0.92444827  0.34103331  0.64369835  1
  O2-  O521  1  0.95240073  0.34635082  0.95753433  1
  O2-  O522  1  0.91520976  0.58121854  0.31729152  1
  O2-  O523  1  0.93198204  0.59041895  0.67102941  1
  O2-  O524  1  0.91945429  0.57259067  0.98607450  1
  O2-  O525  1  0.90371541  0.83008407  0.32221199  1
  O2-  O526  1  0.91954473  0.83772194  0.65033560  1
  O2-  O527  1  0.86312516  0.82052830  0.97955471  1
  O2-  O528  1  0.03673633  0.10799231  0.04045593  1
  O2-  O529  1  0.07786045  0.14302510  0.33157935  1
  O2-  O530  1  0.08470713  0.15413581  0.69082521  1
  O2-  O531  1  0.10913770  0.43115686  0.01149361  1
  O2-  O532  1  0.07312085  0.46693307  0.34557157  1
  O2-  O533  1  0.09651561  0.42450529  0.66899521  1
  O2-  O534  1  0.08771828  0.65973151  0.02504855  1
  O2-  O535  1  0.07776494  0.70632660  0.35702380  1
  O2-  O536  1  0.10836027  0.67530222  0.71477922  1
  O2-  O537  1  0.08412329  0.91259613  0.02181545  1
  O2-  O538  1  0.03768779  0.93570444  0.38940856  1
  O2-  O539  1  0.08383696  0.91385734  0.68714532  1
  O2-  O540  1  0.33123226  0.18745899  0.00691061  1
  O2-  O541  1  0.35816799  0.18162314  0.34380179  1
  O2-  O542  1  0.32926576  0.16282581  0.68226125  1
  O2-  O543  1  0.35419034  0.44182678  0.01211056  1
  O2-  O544  1  0.35161862  0.41875192  0.34135699  1
  O2-  O545  1  0.34679664  0.40950129  0.69768833  1
  O2-  O546  1  0.35293155  0.69548539  0.02501934  1
  O2-  O547  1  0.34048437  0.66371722  0.35327570  1
  O2-  O548  1  0.33983159  0.65449992  0.68311892  1
  O2-  O549  1  0.32637346  0.88965729  0.03094364  1
  O2-  O550  1  0.35732506  0.93237755  0.34195803  1
  O2-  O551  1  0.32216780  0.90538289  0.68214933  1
  O2-  O552  1  0.57472884  0.16451135  0.01479270  1
  O2-  O553  1  0.59018838  0.17705682  0.34569135  1
  O2-  O554  1  0.63206197  0.17913790  0.69305651  1
  O2-  O555  1  0.58292605  0.41736919  0.01827948  1
  O2-  O556  1  0.59342026  0.41878263  0.35487173  1
  O2-  O557  1  0.55247166  0.44481495  0.70167549  1
  O2-  O558  1  0.59662600  0.68204209  0.02492996  1
  O2-  O559  1  0.59496905  0.67582940  0.36887913  1
  O2-  O560  1  0.58941587  0.65904210  0.62235618  1
  O2-  O561  1  0.54917464  0.89281568  0.02736931  1
  O2-  O562  1  0.59198485  0.95091080  0.36188186  1
  O2-  O563  1  0.58786617  0.90245867  0.70077909  1
  O2-  O564  1  0.79666584  0.15619674  0.02203215  1
  O2-  O565  1  0.83209473  0.17343392  0.35818242  1
  O2-  O566  1  0.85609491  0.18468201  0.69118975  1
  O2-  O567  1  0.84833129  0.40772169  0.02009972  1
  O2-  O568  1  0.83263054  0.41285972  0.35079299  1
  O2-  O569  1  0.84691801  0.42313708  0.69018003  1
  O2-  O570  1  0.83675935  0.66001082  0.03333374  1
  O2-  O571  1  0.83176880  0.66309903  0.35821703  1
  O2-  O572  1  0.83830481  0.66938311  0.70125789  1
  O2-  O573  1  0.81950556  0.93782017  0.02269893  1
  O2-  O574  1  0.83356095  0.92522130  0.35841738  1
  O2-  O575  1  0.83489322  0.91613971  0.69264493  1
