# generated using pymatgen
data_H2O
_symmetry_space_group_name_H-M   'P 1'
_cell_length_a   17.99073719
_cell_length_b   17.99637985
_cell_length_c   22.00312220
_cell_angle_alpha   90.01608564
_cell_angle_beta   90.00185884
_cell_angle_gamma   119.99175131
_symmetry_Int_Tables_number   1
_chemical_formula_structural   H2O
_chemical_formula_sum   'H384 O192'
_cell_volume   6169.99936721
_cell_formula_units_Z   192
loop_
 _symmetry_equiv_pos_site_id
 _symmetry_equiv_pos_as_xyz
  1  'x, y, z'
loop_
 _atom_type_symbol
 _atom_type_oxidation_number
  H+  1.0
  O2-  -2.0
loop_
 _atom_site_type_symbol
 _atom_site_label
 _atom_site_symmetry_multiplicity
 _atom_site_fract_x
 _atom_site_fract_y
 _atom_site_fract_z
 _atom_site_occupancy
  H+  H0  1  0.74016046  0.36796599  -0.00519708  1
  H+  H1  1  0.47887566  0.11609369  0.17967168  1
  H+  H2  1  0.86807415  0.73149349  0.15912779  1
  H+  H3  1  0.10346290  0.87093960  0.82671172  1
  H+  H4  1  0.61272031  0.96918793  0.00719040  1
  H+  H5  1  0.62342313  -0.00714948  0.50873867  1
  H+  H6  1  0.12713619  0.00281653  0.83536185  1
  H+  H7  1  0.86094767  0.47721892  0.81723880  1
  H+  H8  1  0.35829630  0.73081308  0.34203618  1
  H+  H9  1  0.73851614  0.12362588  0.14666949  1
  H+  H10  1  0.64224179  0.09540187  0.50018530  1
  H+  H11  1  0.67591570  0.60066708  0.90197905  1
  H+  H12  1  0.10169220  0.10867477  0.82144626  1
  H+  H13  1  0.73091307  0.11039128  0.83857976  1
  H+  H14  1  0.36885573  0.14078289  0.15354707  1
  H+  H15  1  0.88817486  0.38886332  0.33458186  1
  H+  H16  1  0.07319097  0.65998891  0.73479836  1
  H+  H17  1  0.11719110  0.38056502  0.33424100  1
  H+  H18  1  0.84562168  0.87268174  0.35256086  1
  H+  H19  1  0.25367109  0.87031099  0.35547288  1
  H+  H20  1  -0.02586244  0.35596595  0.65935860  1
  H+  H21  1  0.39881319  0.77265676  0.83394692  1
  H+  H22  1  0.48322334  0.36661308  0.67058053  1
  H+  H23  1  -0.01606923  0.61835487  0.17059913  1
  H+  H24  1  0.39701048  0.87488554  0.66471166  1
  H+  H25  1  0.03314273  0.39354784  0.15354732  1
  H+  H26  1  0.39131080  0.52519287  0.99221007  1
  H+  H27  1  0.77261122  0.38248995  0.67074831  1
  H+  H28  1  0.77287437  0.14067763  0.66843258  1
  H+  H29  1  0.03237778  0.14482390  0.14557149  1
  H+  H30  1  0.11043666  0.19979094  0.82908119  1
  H+  H31  1  0.88107887  0.61015762  0.66713016  1
  H+  H32  1  0.65800908  0.54245722  0.52201045  1
  H+  H33  1  0.24025603  0.13300249  0.66472290  1
  H+  H34  1  0.36581876  0.96717355  0.82973938  1
  H+  H35  1  0.14346076  0.76491197  0.66533023  1
  H+  H36  1  0.21743317  0.09295838  0.83452920  1
  H+  H37  1  0.14354751  0.27944809  0.16662807  1
  H+  H38  1  0.16818475  0.82904229  0.93287050  1
  H+  H39  1  0.64216504  0.62043591  -0.00472621  1
  H+  H40  1  0.04654454  0.88850141  0.31536194  1
  H+  H41  1  0.61929839  0.63770278  0.68105940  1
  H+  H42  1  0.89403834  0.27840878  0.98574950  1
  H+  H43  1  0.13518328  0.53581019  0.83527121  1
  H+  H44  1  0.11802784  0.38379915  0.00002461  1
  H+  H45  1  0.59279580  0.42347170  0.91926932  1
  H+  H46  1  0.40121875  0.28022345  0.16548508  1
  H+  H47  1  0.22825556  0.85610360  -0.00836872  1
  H+  H48  1  0.64234079  0.40119421  0.51634985  1
  H+  H49  1  0.36565405  0.97272801  0.15378531  1
  H+  H50  1  0.13665847  0.77072577  0.84033147  1
  H+  H51  1  0.41356122  0.32842505  0.92598138  1
  H+  H52  1  0.10122035  0.40798383  0.82573489  1
  H+  H53  1  0.35929288  0.13245472  0.67272730  1
  H+  H54  1  0.64141122  0.52364178  0.31838073  1
  H+  H55  1  0.86724064  0.63774807  0.01132733  1
  H+  H56  1  0.86205406  0.22845674  0.66891436  1
  H+  H57  1  0.91901278  0.58713200  0.26558616  1
  H+  H58  1  0.00332380  0.12203733  0.49311410  1
  H+  H59  1  0.39513040  0.35406780  0.83433405  1
  H+  H60  1  0.41326172  0.83033531  0.23055320  1
  H+  H61  1  0.73240755  0.61979614  -0.00473305  1
  H+  H62  1  0.53681690  0.90903560  0.68073895  1
  H+  H63  1  0.22872562  0.86929777  0.51268290  1
  H+  H64  1  0.88600601  0.11632952  0.66341851  1
  H+  H65  1  0.82730300  0.87196904  0.82071812  1
  H+  H66  1  0.86800750  0.09072840  0.51298433  1
  H+  H67  1  0.27586136  0.62983796  0.00625370  1
  H+  H68  1  0.21834669  0.85908600  0.16158780  1
  H+  H69  1  0.86941438  0.14458768  0.14041129  1
  H+  H70  1  0.50783351  0.39061681  0.52543196  1
  H+  H71  1  0.26046777  0.63714213  0.16071871  1
  H+  H72  1  0.73235444  0.60991535  0.32987607  1
  H+  H73  1  0.11596919  0.97952896  0.53641772  1
  H+  H74  1  0.33503097  0.41617678  0.06105610  1
  H+  H75  1  0.27113635  0.64375436  0.34369604  1
  H+  H76  1  0.40380648  0.63025491  0.83988249  1
  H+  H77  1  1.02201292  0.63361422  0.83383501  1
  H+  H78  1  0.53030631  0.38270523  0.83275532  1
  H+  H79  1  0.36704877  0.38653240  0.15363590  1
  H+  H80  1  0.40450465  0.49431094  0.34196967  1
  H+  H81  1  0.11941512  0.13615149  0.33126668  1
  H+  H82  1  0.70644992  0.83951389  0.51315147  1
  H+  H83  1  0.86998299  0.13918813  -0.00543114  1
  H+  H84  1  0.27864464  0.87958977  0.67498970  1
  H+  H85  1  0.17386727  0.09752282  0.25624279  1
  H+  H86  1  0.84842103  0.92317456  0.08302096  1
  H+  H87  1  0.17300455  0.58915595  0.89698756  1
  H+  H88  1  0.86550546  0.72557763  0.00376279  1
  H+  H89  1  0.05975428  -0.09852172  0.65993971  1
  H+  H90  1  0.13802746  0.58874749  0.49995461  1
  H+  H91  1  0.06833487  0.63175854  0.42688166  1
  H+  H92  1  0.87586469  0.51276988  0.51212130  1
  H+  H93  1  0.48427938  0.60590401  0.67075429  1
  H+  H94  1  0.87979130  -0.09850436  0.14547432  1
  H+  H95  1  0.61518471  0.72699009  0.00334393  1
  H+  H96  1  0.15504998  0.82518450  0.22090482  1
  H+  H97  1  0.38684936  0.85996896  0.16923312  1
  H+  H98  1  0.61179769  0.12686476  0.82682908  1
  H+  H99  1  0.64893078  0.25659138  0.34024625  1
  H+  H100  1  0.38174318  1.02309122  0.66524035  1
  H+  H101  1  0.62308959  0.48523483  -0.02452802  1
  H+  H102  1  0.15666036  0.33229326  0.83771704  1
  H+  H103  1  0.14082757  0.13133463  0.66496504  1
  H+  H104  1  0.88558865  1.02613453  0.65736477  1
  H+  H105  1  0.89884999  0.52825456  0.32476381  1
  H+  H106  1  0.86803363  0.89399269  0.67052199  1
  H+  H107  1  0.63648217  0.12013731  0.65266181  1
  H+  H108  1  0.02155524  0.13413327  0.67263861  1
  H+  H109  1  0.88361829  0.63643463  0.85094399  1
  H+  H110  1  0.73725934  0.61334866  0.17227529  1
  H+  H111  1  0.28179859  0.64909209  0.50131937  1
  H+  H112  1  0.64954356  0.29011823  0.19374553  1
  H+  H113  1  0.89609162  0.02790060  0.14405689  1
  H+  H114  1  0.12128091  0.14353174  0.15111571  1
  H+  H115  1  0.78701617  0.14065986  0.33020892  1
  H+  H116  1  0.62138432  0.38478250  0.83312816  1
  H+  H117  1  0.35889486  0.12545354  0.82632757  1
  H+  H118  1  0.13297775  0.11589276  0.51068509  1
  H+  H119  1  0.63580734  0.86054524  0.99136841  1
  H+  H120  1  0.78835247  0.68049710  0.83791335  1
  H+  H121  1  0.88174115  0.36361993  0.83583354  1
  H+  H122  1  0.13957826  0.26819566  0.99184911  1
  H+  H123  1  0.65389886  0.20952043  0.49119851  1
  H+  H124  1  0.79881637  0.77782382  0.28224550  1
  H+  H125  1  0.63175503  0.26902744  0.66246751  1
  H+  H126  1  0.03144127  0.64407975  0.33002667  1
  H+  H127  1  0.12177566  0.73056396  0.32306931  1
  H+  H128  1  0.47347355  0.34993041  0.30903230  1
  H+  H129  1  0.11910788  0.89164687  0.53766325  1
  H+  H130  1  0.77477077  0.88313152  0.99108482  1
  H+  H131  1  0.27770605  0.38643850  0.15629821  1
  H+  H132  1  0.62370162  0.15489392  0.16441207  1
  H+  H133  1  0.35897222  0.14411433  -0.00029333  1
  H+  H134  1  0.27858513  0.64084265  0.82322270  1
  H+  H135  1  0.64717568  0.01700016  0.84290935  1
  H+  H136  1  0.36574055  0.46803656  0.67791678  1
  H+  H137  1  0.61267508  0.97588956  0.33966143  1
  H+  H138  1  0.65456465  0.83615732  0.92686220  1
  H+  H139  1  0.59004267  0.69980164  0.50509194  1
  H+  H140  1  0.28537251  0.36155354  0.82995851  1
  H+  H141  1  0.65840253  0.12508461  0.31691684  1
  H+  H142  1  0.14331197  0.52086597  0.98823670  1
  H+  H143  1  0.96844164  0.09871275  0.83250756  1
  H+  H144  1  0.98388987  0.36676613  0.98757998  1
  H+  H145  1  0.01021033  0.86173436  0.82064419  1
  H+  H146  1  0.36045930  0.23350438  -0.00108895  1
  H+  H147  1  0.90712041  0.22650555  0.51790519  1
  H+  H148  1  0.64043619  0.10820663  -0.01366056  1
  H+  H149  1  0.13688871  0.27614990  0.32198933  1
  H+  H150  1  0.69554642  0.88200833  0.82520815  1
  H+  H151  1  0.62203083  0.63848431  0.34771350  1
  H+  H152  1  0.22983981  0.35918819  -0.00846549  1
  H+  H153  1  0.47898775  0.85154418  0.99282420  1
  H+  H154  1  0.53077180  0.39177822  0.17235385  1
  H+  H155  1  0.37539839  0.10888730  0.51334556  1
  H+  H156  1  0.60628921  0.88438762  0.34449681  1
  H+  H157  1  0.09081327  0.41735539  0.05899487  1
  H+  H158  1  0.84237208  0.41877294  1.06812538  1
  H+  H159  1  0.72235056  0.85350279  0.65963818  1
  H+  H160  1  0.78069394  0.13916573  -0.00491264  1
  H+  H161  1  0.35975733  0.10439053  0.32534889  1
  H+  H162  1  0.47712412  0.12894357  1.01389199  1
  H+  H163  1  0.85341338  0.75304003  0.32414197  1
  H+  H164  1  0.36655230  0.86794810  0.00070581  1
  H+  H165  1  0.61802177  0.38118572  0.32699651  1
  H+  H166  1  0.53384506  0.25306145  0.05809444  1
  H+  H167  1  0.44757073  0.46056973  0.39200748  1
  H+  H168  1  0.39548194  0.52031478  0.17390518  1
  H+  H169  1  0.14256923  0.02955072  0.16382153  1
  H+  H170  1  0.03332828  0.63524947  0.00757736  1
  H+  H171  1  0.33782593  0.91354550  0.73462939  1
  H+  H172  1  0.47332649  0.86986242  0.32541882  1
  H+  H173  1  0.00922550  0.39740260  0.82414282  1
  H+  H174  1  0.32713492  0.36329610  0.48753885  1
  H+  H175  1  0.89609351  0.28116065  0.16169238  1
  H+  H176  1  0.51672609  0.13509998  0.67318815  1
  H+  H177  1  0.14324779  0.02548335  0.30584005  1
  H+  H178  1  0.11539099  0.72771132  0.15482323  1
  H+  H179  1  0.43511532  0.08503594  0.33470722  1
  H+  H180  1  0.36816027  0.22699490  0.67448173  1
  H+  H181  1  0.62103020  0.63703771  0.15695232  1
  H+  H182  1  0.36453197  0.38824793  1.00039112  1
  H+  H183  1  0.27439101  0.38013906  0.67298763  1
  H+  H184  1  0.47855085  0.10666464  0.84125495  1
  H+  H185  1  0.87474595  0.48579499  0.16054681  1
  H+  H186  1  0.11288145  0.63761928  0.83127552  1
  H+  H187  1  0.01448093  0.63210120  0.67512886  1
  H+  H188  1  0.17505769  0.31152079  0.90443663  1
  H+  H189  1  0.39005608  0.76129887  -0.00744155  1
  H+  H190  1  0.89522189  0.78614763  0.67277591  1
  H+  H191  1  0.36728827  0.23159981  0.48650280  1
  H+  H192  1  0.87109929  0.38409457  0.49584322  1
  H+  H193  1  0.36015432  0.73171450  0.15920420  1
  H+  H194  1  0.87386170  0.14084498  0.34209680  1
  H+  H195  1  0.64119672  0.03452929  0.66274960  1
  H+  H196  1  0.15169872  0.85818336  0.66451727  1
  H+  H197  1  0.61267581  0.96418499  0.16057056  1
  H+  H198  1  0.65265011  0.07602797  0.11013930  1
  H+  H199  1  0.12316045  0.60504857  0.66130337  1
  H+  H200  1  0.13668678  0.52716918  0.32041242  1
  H+  H201  1  0.22966330  0.12968951  0.50849272  1
  H+  H202  1  0.62116141  0.84567335  0.50880956  1
  H+  H203  1  0.19357329  0.57779573  0.66986449  1
  H+  H204  1  0.52603669  0.59854222  0.50736510  1
  H+  H205  1  0.64485268  0.62239944  0.51447781  1
  H+  H206  1  0.52184173  0.64247735  0.83184173  1
  H+  H207  1  0.87691117  0.60227010  0.51047582  1
  H+  H208  1  0.56685971  0.16452940  0.33022485  1
  H+  H209  1  0.88500776  0.85540412  0.97914798  1
  H+  H210  1  0.14521235  0.36912317  0.16730086  1
  H+  H211  1  0.86260481  0.22575789  0.82409400  1
  H+  H212  1  0.63489085  0.84894181  0.18194058  1
  H+  H213  1  0.40965909  0.79350629  0.66938504  1
  H+  H214  1  0.51384144  0.88002874  0.49635280  1
  H+  H215  1  0.58548243  0.65520888  0.40992435  1
  H+  H216  1  -0.01365282  0.10651688  0.33710536  1
  H+  H217  1  0.71002315  0.38334208  0.36259050  1
  H+  H218  1  0.52165359  0.87786110  0.16159284  1
  H+  H219  1  0.77883173  0.64446549  0.49863402  1
  H+  H220  1  0.89735720  0.37036628  0.16867429  1
  H+  H221  1  0.33763263  0.39882946  0.76851843  1
  H+  H222  1  -0.02648290  0.85417579  -0.01861910  1
  H+  H223  1  0.13238708  0.88848696  0.29650144  1
  H+  H224  1  0.39013442  0.06220151  1.04224362  1
  H+  H225  1  0.86421634  0.97180188  0.99041986  1
  H+  H226  1  0.65686479  0.37680495  0.97692317  1
  H+  H227  1  0.14172180  0.61910015  0.16950964  1
  H+  H228  1  0.38657152  0.77347741  0.50703513  1
  H+  H229  1  0.65320890  0.54172924  0.84257027  1
  H+  H230  1  0.74377270  0.35988263  0.49977849  1
  H+  H231  1  0.61779407  0.72358039  0.16472315  1
  H+  H232  1  0.80025664  0.38805646  0.33144155  1
  H+  H233  1  0.88384055  0.10809057  0.83335306  1
  H+  H234  1  0.64712632  0.53320278  0.66178143  1
  H+  H235  1  0.12015224  0.27919582  0.50793696  1
  H+  H236  1  0.48495587  0.61190654  0.32767860  1
  H+  H237  1  0.14469939  0.61097567  0.99159865  1
  H+  H238  1  0.61090519  0.26093994  0.01987199  1
  H+  H239  1  0.91665486  0.33807890  0.89561077  1
  H+  H240  1  1.00943577  0.59965824  0.48563662  1
  H+  H241  1  0.39663011  0.49799990  0.51316076  1
  H+  H242  1  0.02411652  0.37952566  0.33103893  1
  H+  H243  1  0.35658206  0.22367575  0.33371465  1
  H+  H244  1  0.89759858  0.27052568  0.31877568  1
  H+  H245  1  0.87279045  0.39044254  1.00721805  1
  H+  H246  1  0.71812176  0.86156788  0.34374678  1
  H+  H247  1  0.53991173  0.87638431  0.83359825  1
  H+  H248  1  0.22006746  0.10912341  -0.01311499  1
  H+  H249  1  0.84632470  0.96847043  0.82316291  1
  H+  H250  1  0.31694267  0.66489111  0.64345961  1
  H+  H251  1  0.88703063  0.36453365  0.65606281  1
  H+  H252  1  0.39344998  0.26365657  0.83812004  1
  H+  H253  1  0.36961529  0.89150331  0.49986810  1
  H+  H254  1  0.98411959  0.85925968  0.53238052  1
  H+  H255  1  0.61687026  0.38794793  0.67678756  1
  H+  H256  1  0.62694171  0.39383896  0.18188972  1
  H+  H257  1  0.47783716  0.36514971  -0.01986578  1
  H+  H258  1  0.12190660  0.48248210  0.15353863  1
  H+  H259  1  0.72971443  0.35591175  0.83449480  1
  H+  H260  1  0.48092242  0.61435920  -0.00281063  1
  H+  H261  1  0.86343662  0.96852826  0.36305128  1
  H+  H262  1  0.36506622  0.61809783  0.66876426  1
  H+  H263  1  0.78636191  0.39801366  0.16617081  1
  H+  H264  1  0.08954589  0.90679333  0.72783405  1
  H+  H265  1  0.33209286  0.96227988  0.34285455  1
  H+  H266  1  0.97700450  0.11092550  0.98673041  1
  H+  H267  1  0.92082504  0.58838283  0.94432846  1
  H+  H268  1  0.84819564  0.94733704  0.51568084  1
  H+  H269  1  0.77885046  0.64642497  0.68233334  1
  H+  H270  1  0.62931966  0.49108047  0.17469041  1
  H+  H271  1  0.38352042  1.02520108  0.51495299  1
  H+  H272  1  0.12206524  0.72399941  0.00443607  1
  H+  H273  1  0.26432424  0.13714655  0.33378267  1
  H+  H274  1  0.58590698  0.66612179  0.76465757  1
  H+  H275  1  0.89504638  0.61995884  0.17048173  1
  H+  H276  1  0.45532262  0.46863220  0.54038634  1
  H+  H277  1  0.88987314  0.84796426  0.51747547  1
  H+  H278  1  0.64216945  0.30246101  0.48316013  1
  H+  H279  1  0.98374717  0.86940008  0.16947320  1
  H+  H280  1  0.61387332  0.21664198  0.82763600  1
  H+  H281  1  0.86647000  0.63540683  0.34346879  1
  H+  H282  1  0.13630497  0.27043788  0.66142499  1
  H+  H283  1  0.61646923  0.72637105  0.67912303  1
  H+  H284  1  0.11037741  0.88028843  0.00134647  1
  H+  H285  1  0.87389534  0.72241028  0.49848810  1
  H+  H286  1  0.10580812  0.38769444  0.48395248  1
  H+  H287  1  0.36624246  0.63064578  1.01080825  1
  H+  H288  1  0.59374591  0.42234700  0.73679943  1
  H+  H289  1  0.67000944  0.07605932  0.92934792  1
  H+  H290  1  0.43349684  0.55995521  0.61014677  1
  H+  H291  1  0.65304789  0.81536803  0.60647010  1
  H+  H292  1  0.40771699  0.08252719  0.60493920  1
  H+  H293  1  0.44191238  0.35939173  0.58133852  1
  H+  H294  1  0.33456933  0.91893059  0.44242552  1
  H+  H295  1  0.68001765  0.60182168  0.60685361  1
  H+  H296  1  0.60128840  0.93125002  0.73681744  1
  H+  H297  1  0.67918466  0.58835920  0.23399867  1
  H+  H298  1  0.33865703  0.91018533  0.09532867  1
  H+  H299  1  0.33013020  0.15796865  0.76789839  1
  H+  H300  1  0.67392637  0.08023269  0.26001563  1
  H+  H301  1  0.09029513  0.16312488  0.39281316  1
  H+  H302  1  0.17162610  0.58738041  0.22961248  1
  H+  H303  1  0.32663002  0.17006692  0.42879812  1
  H+  H304  1  0.43421960  0.60234540  0.90105531  1
  H+  H305  1  0.39096169  0.36210171  0.66664638  1
  H+  H306  1  0.65945661  0.06801310  0.57066526  1
  H+  H307  1  0.91692181  0.08121653  0.92695895  1
  H+  H308  1  0.07586749  0.40618527  0.40514649  1
  H+  H309  1  0.91528902  0.83757560  0.22503934  1
  H+  H310  1  0.57711599  0.91407046  0.43644044  1
  H+  H311  1  0.91675628  0.09204397  0.20113444  1
  H+  H312  1  0.91210496  0.05128585  0.29028924  1
  H+  H313  1  0.36931522  0.88028623  0.82845445  1
  H+  H314  1  0.67776592  0.32526776  0.89714904  1
  H+  H315  1  0.33715021  0.68229058  0.44063566  1
  H+  H316  1  0.82700973  0.92105575  0.72476749  1
  H+  H317  1  0.08959025  0.66343252  0.09829171  1
  H+  H318  1  0.39622076  0.36407720  0.32497349  1
  H+  H319  1  0.13510490  0.61612795  0.31835851  1
  H+  H320  1  0.21008573  0.36362576  0.50166989  1
  H+  H321  1  0.11337280  0.88975520  0.15246007  1
  H+  H322  1  0.16265271  0.33341692  0.60375535  1
  H+  H323  1  0.58678132  0.19789597  0.11931214  1
  H+  H324  1  0.40423404  0.07626573  0.22916256  1
  H+  H325  1  0.42476402  0.83960135  0.56612479  1
  H+  H326  1  0.17438153  0.82670701  0.57137246  1
  H+  H327  1  0.83939313  0.68111297  0.74108992  1
  H+  H328  1  0.83648680  0.67010539  0.10081150  1
  H+  H329  1  0.22695850  0.85849056  0.83919249  1
  H+  H330  1  0.32965865  0.41521123  0.42969056  1
  H+  H331  1  0.42808816  0.57018278  0.26669526  1
  H+  H332  1  0.62205370  0.16728393  0.42572859  1
  H+  H333  1  0.89696479  0.79907676  0.89055008  1
  H+  H334  1  0.84666944  0.41118494  0.43240740  1
  H+  H335  1  0.41734744  0.07694561  0.89936011  1
  H+  H336  1  0.91827720  0.83274055  0.60982121  1
  H+  H337  1  0.59076347  0.67194499  0.06580411  1
  H+  H338  1  0.41774697  0.33396943  0.22689429  1
  H+  H339  1  0.68640037  0.35519368  0.25052828  1
  H+  H340  1  0.85982209  0.47474613  0.67118243  1
  H+  H341  1  0.06950315  0.40803704  0.72950058  1
  H+  H342  1  0.82638019  0.90059234  0.45090332  1
  H+  H343  1  0.62213904  0.43689089  0.45809261  1
  H+  H344  1  0.92398962  0.34110299  0.57537539  1
  H+  H345  1  0.63264805  0.77055695  0.34312683  1
  H+  H346  1  0.65763094  0.82002840  0.24384525  1
  H+  H347  1  0.17831034  0.10900622  0.59974539  1
  H+  H348  1  0.83362627  0.41588706  0.75874380  1
  H+  H349  1  0.10807181  0.96810383  -0.00162382  1
  H+  H350  1  0.83181245  0.16744378  0.76423873  1
  H+  H351  1  0.61842151  0.64072837  0.82940415  1
  H+  H352  1  0.57883215  0.16109854  0.73101410  1
  H+  H353  1  0.08081002  0.91829585  0.09443505  1
  H+  H354  1  0.83511876  0.66314572  0.40450328  1
  H+  H355  1  0.92931525  0.33277364  0.25886906  1
  H+  H356  1  0.58341382  0.90845038  0.06695095  1
  H+  H357  1  0.07896524  0.15839088  0.73384908  1
  H+  H358  1  0.01485215  0.38515987  0.48150452  1
  H+  H359  1  0.56396837  0.40908165  0.37145208  1
  H+  H360  1  0.23238307  0.11898171  0.16335836  1
  H+  H361  1  0.05856741  0.88321413  0.43912119  1
  H+  H362  1  0.16969343  0.58078979  0.56547006  1
  H+  H363  1  0.42689677  0.82591477  0.89592484  1
  H+  H364  1  0.48487540  0.60734721  0.17562885  1
  H+  H365  1  0.10260468  0.37026031  0.67551776  1
  H+  H366  1  0.89517089  0.52541386  1.00133808  1
  H+  H367  1  0.06064241  0.86425929  0.40907909  1
  H+  H368  1  0.01939668  0.05624831  0.45704458  1
  H+  H369  1  0.16637657  0.33729312  0.26386306  1
  H+  H370  1  0.33894386  0.17379692  0.09463340  1
  H+  H371  1  0.16047157  0.07220655  0.92763177  1
  H+  H372  1  0.11037050  0.13120385  -0.00225718  1
  H+  H373  1  0.82336578  0.54666342  0.87734278  1
  H+  H374  1  0.37076673  0.95815443  -0.00189233  1
  H+  H375  1  0.38215761  0.86562334  0.32577104  1
  H+  H376  1  0.33530058  0.66326684  0.76321734  1
  H+  H377  1  0.22806793  0.84512153  0.27984279  1
  H+  H378  1  0.90587160  0.57774879  0.60563013  1
  H+  H379  1  0.66494639  0.32651764  0.60290130  1
  H+  H380  1  0.84222296  0.18001667  0.08394041  1
  H+  H381  1  0.32819247  0.66574622  0.09676536  1
  H+  H382  1  0.92053300  0.11040481  0.57532436  1
  H+  H383  1  0.08742019  0.16648760  0.05790458  1
  O2-  O384  1  0.09455721  0.17668167  0.13454404  1
  O2-  O385  1  0.04880754  0.11604018  0.47040960  1
  O2-  O386  1  0.07459293  0.14342966  0.80841432  1
  O2-  O387  1  0.09333598  0.42266826  0.13762078  1
  O2-  O388  1  0.07134682  0.40739278  0.46034840  1
  O2-  O389  1  0.07029508  0.43402751  0.80796697  1
  O2-  O390  1  0.08773343  0.66465825  0.14376686  1
  O2-  O391  1  0.05084438  0.59167406  0.46136343  1
  O2-  O392  1  0.07928836  0.66527801  0.81610775  1
  O2-  O393  1  0.08496622  0.92339810  0.13964982  1
  O2-  O394  1  0.08272863  0.91878993  0.54741393  1
  O2-  O395  1  0.07145093  0.89868166  0.81018935  1
  O2-  O396  1  0.34266814  0.17552871  0.14001772  1
  O2-  O397  1  0.32708675  0.17231630  0.47455625  1
  O2-  O398  1  0.32764742  0.15533762  0.81324345  1
  O2-  O399  1  0.33664527  0.41576555  0.13799363  1
  O2-  O400  1  0.30685172  0.40131120  0.47272359  1
  O2-  O401  1  0.34381749  0.39651107  0.81330550  1
  O2-  O402  1  0.32457971  0.67011557  0.14317169  1
  O2-  O403  1  0.34267937  0.68600396  0.48595567  1
  O2-  O404  1  0.33889408  0.66886494  0.80801624  1
  O2-  O405  1  0.33658990  0.91177312  0.14060954  1
  O2-  O406  1  0.33982029  0.92355493  0.48727262  1
  O2-  O407  1  0.33490480  0.90688092  0.81491014  1
  O2-  O408  1  0.59122214  0.18632974  0.16317042  1
  O2-  O409  1  0.61628896  0.15546835  0.47032487  1
  O2-  O410  1  0.58003941  0.15604784  0.81303600  1
  O2-  O411  1  0.59609402  0.42402243  0.16391285  1
  O2-  O412  1  0.61449448  0.43418241  0.50201438  1
  O2-  O413  1  0.59434762  0.42119578  0.82706049  1
  O2-  O414  1  0.59055467  0.66651123  0.14247981  1
  O2-  O415  1  0.57623689  0.64471513  0.48629887  1
  O2-  O416  1  0.58610558  0.66847441  0.81217056  1
  O2-  O417  1  0.58174495  0.90468077  0.14561617  1
  O2-  O418  1  0.57732731  0.90993143  0.48187990  1
  O2-  O419  1  0.60263408  0.91034864  0.82135068  1
  O2-  O420  1  0.83942353  0.17728981  0.12973930  1
  O2-  O421  1  0.87165676  0.25264246  0.50818126  1
  O2-  O422  1  0.83246898  0.16513681  0.80981648  1
  O2-  O423  1  0.84367883  0.42407592  0.14669747  1
  O2-  O424  1  0.83631472  0.40801315  0.47711322  1
  O2-  O425  1  0.83302818  0.41664404  0.80507291  1
  O2-  O426  1  0.83727424  0.66952903  0.14642608  1
  O2-  O427  1  0.83673612  0.66352982  0.48061540  1
  O2-  O428  1  0.85042372  0.70738815  0.82567267  1
  O2-  O429  1  0.85779283  0.93709180  0.12714894  1
  O2-  O430  1  0.82121467  0.89113230  0.49635085  1
  O2-  O431  1  0.80700885  0.91014163  0.80567314  1
  O2-  O432  1  0.17198766  0.09081188  0.17797701  1
  O2-  O433  1  0.17420705  0.10310178  0.53168358  1
  O2-  O434  1  0.15705315  0.06389655  0.84976618  1
  O2-  O435  1  0.17413380  0.33859646  0.18421854  1
  O2-  O436  1  0.15211418  0.33853130  0.52180865  1
  O2-  O437  1  0.17766802  0.29934813  0.85921473  1
  O2-  O438  1  0.17484348  0.59013305  0.18314152  1
  O2-  O439  1  0.18343739  0.58325399  0.52161223  1
  O2-  O440  1  0.17184560  0.59502703  0.85158871  1
  O2-  O441  1  0.15689334  0.82939520  0.17280909  1
  O2-  O442  1  0.16891358  0.83839991  0.52791796  1
  O2-  O443  1  0.16695697  0.83127037  0.85518974  1
  O2-  O444  1  0.41535624  0.08202036  0.18459445  1
  O2-  O445  1  0.40735401  0.08408485  0.53253504  1
  O2-  O446  1  0.41673197  0.07572699  0.85496864  1
  O2-  O447  1  0.43097341  0.34020478  0.18204214  1
  O2-  O448  1  0.44792803  0.37283337  0.53637243  1
  O2-  O449  1  0.42670804  0.32439801  0.85226935  1
  O2-  O450  1  0.42735515  0.57636910  0.19480314  1
  O2-  O451  1  0.44652092  0.51895457  0.54026575  1
  O2-  O452  1  0.44126704  0.60871997  0.85600500  1
  O2-  O453  1  0.41434200  0.82688007  0.18475785  1
  O2-  O454  1  0.42270381  0.83906444  0.52112150  1
  O2-  O455  1  0.43240663  0.83225951  0.85079707  1
  O2-  O456  1  0.67321547  0.09058679  0.15194586  1
  O2-  O457  1  0.66026746  0.05772400  0.52422781  1
  O2-  O458  1  0.67110771  0.07798039  0.85581956  1
  O2-  O459  1  0.68090970  0.35231403  0.20496869  1
  O2-  O460  1  0.68165778  0.32996484  0.51708780  1
  O2-  O461  1  0.67060581  0.32425057  0.85211246  1
  O2-  O462  1  0.67637408  0.58061277  0.18848686  1
  O2-  O463  1  0.68427834  0.60377069  0.53258849  1
  O2-  O464  1  0.67849502  0.60225378  0.85588627  1
  O2-  O465  1  0.66038635  0.81615643  0.19913295  1
  O2-  O466  1  0.64516311  0.81046057  0.52532911  1
  O2-  O467  1  0.63867090  0.85873650  0.84589313  1
  O2-  O468  1  0.92288836  0.09285946  0.15723902  1
  O2-  O469  1  0.92480627  0.12753343  0.53040458  1
  O2-  O470  1  0.90860570  0.07277918  0.84871533  1
  O2-  O471  1  0.92830435  0.33930294  0.18057762  1
  O2-  O472  1  0.92741907  0.34297248  0.52642852  1
  O2-  O473  1  0.91480079  0.33571833  0.84990729  1
  O2-  O474  1  0.92326752  0.58792173  0.18600430  1
  O2-  O475  1  0.90391472  0.57121341  0.52976964  1
  O2-  O476  1  0.88329291  0.58351660  0.86555984  1
  O2-  O477  1  0.92100344  0.83758194  0.18049922  1
  O2-  O478  1  0.91937452  0.81794930  0.53285654  1
  O2-  O479  1  0.89096510  0.79862831  0.84443867  1
  O2-  O480  1  0.17005480  0.09042153  0.30157523  1
  O2-  O481  1  0.17859525  0.10841310  0.64683342  1
  O2-  O482  1  0.15948603  0.07488534  0.97316395  1
  O2-  O483  1  0.16245949  0.33674986  0.30918479  1
  O2-  O484  1  0.16872322  0.33173435  0.64850819  1
  O2-  O485  1  0.16967910  0.32823956  0.97481719  1
  O2-  O486  1  0.16542996  0.58495063  0.30234426  1
  O2-  O487  1  0.14823601  0.57206532  0.64275591  1
  O2-  O488  1  0.17576321  0.58225346  0.97450438  1
  O2-  O489  1  0.16753611  0.82425055  0.28785667  1
  O2-  O490  1  0.18082076  0.82502509  0.65116317  1
  O2-  O491  1  0.16718754  0.82777421  0.97852844  1
  O2-  O492  1  0.38375054  0.06683331  0.31027168  1
  O2-  O493  1  0.40997441  0.08423766  0.65143682  1
  O2-  O494  1  0.41831884  0.08166391  1.00277260  1
  O2-  O495  1  0.41026864  0.32370413  0.30225239  1
  O2-  O496  1  0.42418959  0.33342278  0.65301930  1
  O2-  O497  1  0.41526711  0.33329361  0.97199345  1
  O2-  O498  1  0.42722309  0.56897316  0.31305591  1
  O2-  O499  1  0.42497302  0.57153191  0.65304192  1
  O2-  O500  1  0.42114406  0.58726293  0.98048544  1
  O2-  O501  1  0.41509011  0.84129856  0.30643945  1
  O2-  O502  1  0.43321457  0.84961851  0.64986852  1
  O2-  O503  1  0.41946413  0.82099345  0.97564654  1
  O2-  O504  1  0.67676715  0.08316432  0.30431642  1
  O2-  O505  1  0.66825632  0.09087430  0.63861123  1
  O2-  O506  1  0.66995061  0.07698859  0.97574552  1
  O2-  O507  1  0.67755211  0.34839900  0.32785036  1
  O2-  O508  1  0.66394637  0.33023357  0.64751367  1
  O2-  O509  1  0.68041123  0.33659809  0.97721634  1
  O2-  O510  1  0.67436820  0.58647259  0.31007059  1
  O2-  O511  1  0.67697667  0.59547778  0.65246114  1
  O2-  O512  1  0.67359326  0.59265031  0.97663027  1
  O2-  O513  1  0.65916571  0.83059236  0.32683213  1
  O2-  O514  1  0.66044106  0.81499830  0.65110006  1
  O2-  O515  1  0.66399338  0.83153329  0.97066086  1
  O2-  O516  1  0.92140272  0.07019725  0.33243784  1
  O2-  O517  1  0.91825855  0.08915349  0.64560587  1
  O2-  O518  1  0.91591002  0.08159968  0.97250200  1
  O2-  O519  1  0.93078130  0.33283930  0.30438880  1
  O2-  O520  1  0.91388618  0.33157262  0.63960577  1
  O2-  O521  1  0.92297695  0.34007268  0.97301772  1
  O2-  O522  1  0.91930530  0.58797538  0.31101786  1
  O2-  O523  1  0.90770519  0.57684171  0.65143460  1
  O2-  O524  1  0.92555225  0.58757735  0.98905461  1
  O2-  O525  1  0.85500540  0.80302732  0.30180099  1
  O2-  O526  1  0.92223043  0.84422892  0.65452648  1
  O2-  O527  1  0.91288727  0.82145504  0.96615077  1
  O2-  O528  1  0.08275377  0.16444443  0.01231418  1
  O2-  O529  1  0.08810435  0.16555062  0.34812514  1
  O2-  O530  1  0.08234893  0.16436609  0.68803453  1
  O2-  O531  1  0.08878016  0.41589118  0.01341612  1
  O2-  O532  1  0.08380226  0.41050255  0.35062356  1
  O2-  O533  1  0.05895202  0.38570615  0.68763470  1
  O2-  O534  1  0.09496821  0.66353958  0.02001640  1
  O2-  O535  1  0.09257942  0.67128702  0.34229768  1
  O2-  O536  1  0.07513831  0.66054691  0.68980609  1
  O2-  O537  1  0.07621825  0.90773402  0.01364439  1
  O2-  O538  1  0.10341286  0.92508260  0.29862108  1
  O2-  O539  1  0.11006217  0.91606299  0.68538607  1
  O2-  O540  1  0.32871672  0.17307014  0.01552909  1
  O2-  O541  1  0.32442196  0.16436713  0.35149879  1
  O2-  O542  1  0.33061483  0.16589432  0.68773601  1
  O2-  O543  1  0.33337456  0.41751463  0.01532563  1
  O2-  O544  1  0.39360419  0.43796843  0.36974339  1
  O2-  O545  1  0.33411372  0.40577030  0.68928060  1
  O2-  O546  1  0.33447717  0.66048603  0.02551592  1
  O2-  O547  1  0.32786278  0.67547535  0.36336999  1
  O2-  O548  1  0.33394284  0.64908686  0.68120798  1
  O2-  O549  1  0.33738465  0.90035293  0.01548640  1
  O2-  O550  1  0.31610444  0.90649842  0.36255089  1
  O2-  O551  1  0.34022567  0.91697383  0.68941254  1
  O2-  O552  1  0.56136963  0.21979362  0.04730706  1
  O2-  O553  1  0.62428368  0.19027953  0.34746679  1
  O2-  O554  1  0.57878730  0.16586704  0.68590347  1
  O2-  O555  1  0.59529693  0.42268170  -0.03594425  1
  O2-  O556  1  0.57928471  0.41111671  0.32877690  1
  O2-  O557  1  0.59035260  0.42191118  0.69193000  1
  O2-  O558  1  0.58761868  0.66756489  0.02009063  1
  O2-  O559  1  0.59173007  0.66687374  0.36524979  1
  O2-  O560  1  0.58580220  0.66450446  0.69692990  1
  O2-  O561  1  0.58221570  0.90873018  0.02142108  1
  O2-  O562  1  0.57760767  0.91765860  0.35715676  1
  O2-  O563  1  0.59685010  0.94650179  0.69466527  1
  O2-  O564  1  0.84160859  0.17256008  0.00838842  1
  O2-  O565  1  0.84609454  0.17592697  0.34609958  1
  O2-  O566  1  0.83242162  0.16848843  0.68545456  1
  O2-  O567  1  0.84155809  0.41981405  0.02256326  1
  O2-  O568  1  0.85706364  0.41816155  0.35108434  1
  O2-  O569  1  0.83328432  0.41309627  0.68534367  1
  O2-  O570  1  0.83464467  0.66705165  0.02299101  1
  O2-  O571  1  0.83231704  0.66183860  0.35865054  1
  O2-  O572  1  0.83968181  0.67346865  0.69675415  1
  O2-  O573  1  0.83615783  0.91051208  0.00368921  1
  O2-  O574  1  0.82663515  0.90774548  0.37620343  1
  O2-  O575  1  0.83471174  0.92441643  0.67987881  1
