# generated using pymatgen
data_H2O
_symmetry_space_group_name_H-M   'P 1'
_cell_length_a   17.98280100
_cell_length_b   17.99291343
_cell_length_c   22.00140494
_cell_angle_alpha   90.00130014
_cell_angle_beta   89.98822807
_cell_angle_gamma   120.00903211
_symmetry_Int_Tables_number   1
_chemical_formula_structural   H2O
_chemical_formula_sum   'H384 O192'
_cell_volume   6164.53510347
_cell_formula_units_Z   192
loop_
 _symmetry_equiv_pos_site_id
 _symmetry_equiv_pos_as_xyz
  1  'x, y, z'
loop_
 _atom_type_symbol
 _atom_type_oxidation_number
  H+  1.0
  O2-  -2.0
loop_
 _atom_site_type_symbol
 _atom_site_label
 _atom_site_symmetry_multiplicity
 _atom_site_fract_x
 _atom_site_fract_y
 _atom_site_fract_z
 _atom_site_occupancy
  H+  H0  1  0.10691875  0.38737831  0.33879094  1
  H+  H1  1  0.88951977  0.85827570  0.82250893  1
  H+  H2  1  0.58466194  0.66232197  0.08195072  1
  H+  H3  1  0.12702075  0.24506850  1.00962703  1
  H+  H4  1  0.59726554  0.17744152  0.05867758  1
  H+  H5  1  0.43178184  0.33150979  0.56131098  1
  H+  H6  1  0.11241154  0.49308561  0.81920298  1
  H+  H7  1  0.86828933  0.47574368  0.17412486  1
  H+  H8  1  0.64148801  1.01177832  0.18760400  1
  H+  H9  1  0.63855707  0.75748988  0.19753612  1
  H+  H10  1  1.01209997  0.12690597  0.81078954  1
  H+  H11  1  0.97927715  0.60574267  0.16957759  1
  H+  H12  1  0.39197641  0.12021062  0.99295085  1
  H+  H13  1  0.52031480  0.13127530  0.33942911  1
  H+  H14  1  0.61534805  0.39223464  0.67078586  1
  H+  H15  1  0.27359338  0.64044041  0.49602507  1
  H+  H16  1  0.65905967  0.32682279  0.60361694  1
  H+  H17  1  0.62824592  0.16198098  0.82387679  1
  H+  H18  1  0.12201035  0.10113302  0.83866908  1
  H+  H19  1  0.21134739  0.58997527  0.00423958  1
  H+  H20  1  0.50682742  0.37837229  0.82096004  1
  H+  H21  1  0.78306850  0.90235681  -0.00684687  1
  H+  H22  1  0.83485437  0.47761682  0.35571875  1
  H+  H23  1  0.86141309  0.24228507  0.34630485  1
  H+  H24  1  0.38920989  1.01592131  0.50219661  1
  H+  H25  1  0.88385155  0.60524270  0.66543493  1
  H+  H26  1  0.35769211  0.63668720  0.01785073  1
  H+  H27  1  0.34225523  0.71718587  1.01219567  1
  H+  H28  1  0.88935205  0.03328090  0.63776989  1
  H+  H29  1  0.97705249  0.36719571  0.33530274  1
  H+  H30  1  0.16449720  0.82924224  0.90122066  1
  H+  H31  1  0.84955863  0.68230136  0.06471423  1
  H+  H32  1  0.87636062  0.96331037  0.21521142  1
  H+  H33  1  0.74342961  0.13378949  0.82508320  1
  H+  H34  1  0.62130585  0.23850544  -0.00014676  1
  H+  H35  1  0.14043755  0.27223318  0.65402743  1
  H+  H36  1  0.64531941  0.82280387  0.84025660  1
  H+  H37  1  0.88833219  0.37114623  0.33328522  1
  H+  H38  1  0.12636389  0.84625940  0.17350247  1
  H+  H39  1  0.85660941  0.43986853  0.82726481  1
  H+  H40  1  0.38749571  0.85901252  0.84250145  1
  H+  H41  1  0.72429680  0.61408243  0.66218346  1
  H+  H42  1  0.86584030  0.72120466  0.82572940  1
  H+  H43  1  0.77905303  0.62864668  0.83544240  1
  H+  H44  1  0.48324054  0.10671710  0.17555786  1
  H+  H45  1  0.62058653  0.48308554  0.99887282  1
  H+  H46  1  0.38908748  0.36593318  0.64965020  1
  H+  H47  1  0.28300734  0.13357157  0.49845032  1
  H+  H48  1  0.64286326  0.37590414  0.98334224  1
  H+  H49  1  0.23122051  0.60988553  0.65971933  1
  H+  H50  1  0.40481220  0.63817504  0.50537835  1
  H+  H51  1  0.11187638  0.97966051  0.33783275  1
  H+  H52  1  0.42796435  0.08622744  0.59522097  1
  H+  H53  1  0.09713060  0.43393936  0.87491033  1
  H+  H54  1  0.37502487  0.21983683  0.49263047  1
  H+  H55  1  0.04998018  0.91545398  0.16232559  1
  H+  H56  1  0.09619526  0.92567354  0.42860728  1
  H+  H57  1  0.40083342  0.53430429  0.65348433  1
  H+  H58  1  0.97378597  0.36275163  0.17955428  1
  H+  H59  1  0.28342779  0.81176698  0.78325217  1
  H+  H60  1  0.10123250  0.38457773  0.49252336  1
  H+  H61  1  0.53577053  0.01635427  0.61609065  1
  H+  H62  1  0.86799315  0.14234596  0.65662513  1
  H+  H63  1  0.51037575  0.36965983  0.33563840  1
  H+  H64  1  0.13713665  0.61521353  0.51024880  1
  H+  H65  1  0.86345868  0.47506551  0.66703530  1
  H+  H66  1  0.12389937  0.27411980  0.17206937  1
  H+  H67  1  0.75812738  0.57398246  0.34556393  1
  H+  H68  1  0.76472253  0.38287475  0.33955706  1
  H+  H69  1  0.05230381  0.14153726  0.47102368  1
  H+  H70  1  0.78400736  0.89860792  0.46105452  1
  H+  H71  1  0.41450165  0.83222408  0.26991235  1
  H+  H72  1  0.87377509  0.73378225  1.00083623  1
  H+  H73  1  0.52905710  0.14578618  0.67246073  1
  H+  H74  1  0.40583662  0.12376719  0.83372741  1
  H+  H75  1  0.33844861  0.90840004  0.76535192  1
  H+  H76  1  0.04263468  0.32826819  0.04029128  1
  H+  H77  1  0.52018038  0.12270365  0.49097381  1
  H+  H78  1  0.62774307  0.49836201  0.31895837  1
  H+  H79  1  0.53235426  0.39438552  -0.00736987  1
  H+  H80  1  0.35141328  0.46489528  0.33767457  1
  H+  H81  1  0.61772301  0.64629623  0.48579371  1
  H+  H82  1  0.11046270  0.62992038  0.16390626  1
  H+  H83  1  0.89706620  0.87514597  0.47416560  1
  H+  H84  1  0.77032853  0.39556355  0.99338063  1
  H+  H85  1  0.60945444  0.62288194  0.17126401  1
  H+  H86  1  0.59728540  0.32529524  0.51581164  1
  H+  H87  1  0.57910653  0.64816253  0.39279938  1
  H+  H88  1  0.21281179  0.36069843  0.32706866  1
  H+  H89  1  0.38389951  0.77242435  0.17751177  1
  H+  H90  1  0.64604525  0.80293163  0.38490674  1
  H+  H91  1  0.62886431  0.46513123  0.16667106  1
  H+  H92  1  0.14907012  1.02361673  0.51374510  1
  H+  H93  1  0.26546368  0.13378104  0.34340274  1
  H+  H94  1  0.39085316  0.10659428  0.50151430  1
  H+  H95  1  0.33772935  0.39046027  0.16982552  1
  H+  H96  1  0.84942921  0.23705692  1.02320384  1
  H+  H97  1  0.45160063  0.85493688  1.01125792  1
  H+  H98  1  0.13420965  0.61348013  0.32944134  1
  H+  H99  1  0.23047086  0.86466889  0.50201238  1
  H+  H100  1  0.85850675  0.72567187  0.47485432  1
  H+  H101  1  0.47855404  0.36705519  0.65552773  1
  H+  H102  1  0.37565884  0.52638259  0.17281895  1
  H+  H103  1  0.38947676  0.60168927  0.82937629  1
  H+  H104  1  0.11155842  0.64063545  0.66978743  1
  H+  H105  1  0.62538043  0.49903448  0.49003166  1
  H+  H106  1  0.27967847  0.13554336  0.65992624  1
  H+  H107  1  0.58789625  0.17319796  0.73335865  1
  H+  H108  1  0.12643161  0.26144480  0.82602285  1
  H+  H109  1  0.77279129  0.38632043  0.66762043  1
  H+  H110  1  0.39668135  0.12164074  0.65102062  1
  H+  H111  1  0.57438922  0.62054808  0.75242910  1
  H+  H112  1  0.38506124  0.36289590  0.83172717  1
  H+  H113  1  0.15776323  0.13435034  0.99654562  1
  H+  H114  1  -0.00953706  0.62483075  0.84716562  1
  H+  H115  1  0.14221194  0.86677952  0.49967189  1
  H+  H116  1  0.88462513  0.36467365  0.65720334  1
  H+  H117  1  0.63490609  0.88395194  0.79588235  1
  H+  H118  1  0.13594154  0.52564365  0.50841324  1
  H+  H119  1  0.38860665  0.86327816  0.17577581  1
  H+  H120  1  0.77825288  0.89028403  0.64789485  1
  H+  H121  1  1.02272686  0.88983401  0.33677129  1
  H+  H122  1  0.13225326  0.35266771  0.82398105  1
  H+  H123  1  0.96840175  0.39393005  0.85017467  1
  H+  H124  1  0.86689199  0.39414491  1.00690122  1
  H+  H125  1  0.12313573  0.98721357  0.66883606  1
  H+  H126  1  0.22819055  0.19959594  0.22067128  1
  H+  H127  1  0.53353425  0.87797217  0.17653820  1
  H+  H128  1  0.61750274  0.24954649  0.50789922  1
  H+  H129  1  0.37799150  0.73308587  0.83107451  1
  H+  H130  1  0.47535427  0.62204718  1.01264104  1
  H+  H131  1  0.11764859  0.73457828  0.82338051  1
  H+  H132  1  0.47347500  0.86343264  0.32930681  1
  H+  H133  1  0.26933148  0.37317176  0.81317175  1
  H+  H134  1  0.91325564  1.04139590  -0.02603680  1
  H+  H135  1  0.64386642  1.02830605  0.33392784  1
  H+  H136  1  0.14193895  0.62674798  0.80495469  1
  H+  H137  1  0.39265109  0.28064685  0.98930957  1
  H+  H138  1  0.85993924  0.21807579  0.17230282  1
  H+  H139  1  0.86986723  0.38140703  0.17684556  1
  H+  H140  1  0.88083401  0.98608985  0.35920973  1
  H+  H141  1  0.28292080  0.13655050  0.16936446  1
  H+  H142  1  0.10643484  0.86247115  0.01376337  1
  H+  H143  1  0.72857785  0.10356598  0.18314381  1
  H+  H144  1  0.61514993  0.73249979  1.03102292  1
  H+  H145  1  0.27429475  0.39371498  -0.00011694  1
  H+  H146  1  0.66006358  0.86536090  1.07532197  1
  H+  H147  1  0.62380812  -0.01880433  0.49109625  1
  H+  H148  1  0.57240461  0.41190756  0.75643325  1
  H+  H149  1  0.63709363  0.11662842  0.98318693  1
  H+  H150  1  0.37437707  0.22788033  0.81530271  1
  H+  H151  1  0.28698664  0.64924396  0.81743152  1
  H+  H152  1  0.14147594  0.76172487  0.99512716  1
  H+  H153  1  0.64203699  0.57707149  0.84143656  1
  H+  H154  1  0.86745917  0.23961039  0.49389869  1
  H+  H155  1  0.62501569  0.89244857  0.48478009  1
  H+  H156  1  0.39168816  0.77760044  0.50352355  1
  H+  H157  1  0.35901775  0.72311612  0.33966229  1
  H+  H158  1  0.87159620  0.63009909  0.15671137  1
  H+  H159  1  0.12392819  0.50094753  1.00721826  1
  H+  H160  1  0.82710749  0.16229582  0.11210459  1
  H+  H161  1  0.37875982  0.76934916  0.66106523  1
  H+  H162  1  0.13035629  0.52188448  0.33018952  1
  H+  H163  1  0.63002575  0.98203747  -0.03816205  1
  H+  H164  1  0.53256569  0.15133966  0.82786090  1
  H+  H165  1  0.35619711  0.46538392  0.81471769  1
  H+  H166  1  0.34553762  0.35317047  0.48936286  1
  H+  H167  1  0.49198986  0.36558630  0.50206439  1
  H+  H168  1  0.77995285  0.14487780  0.49529828  1
  H+  H169  1  0.02183860  0.86917441  0.00631523  1
  H+  H170  1  0.36847069  0.88612227  0.49051220  1
  H+  H171  1  0.88879581  0.62266286  0.32412187  1
  H+  H172  1  0.38918237  -0.00268423  0.68015240  1
  H+  H173  1  0.02596942  0.13824493  0.65592941  1
  H+  H174  1  0.13712197  0.76491085  0.17487713  1
  H+  H175  1  0.63761505  0.27516863  0.66539172  1
  H+  H176  1  0.12136089  1.01297341  0.84191468  1
  H+  H177  1  0.13441671  0.37274243  0.98326276  1
  H+  H178  1  0.39613623  0.25254126  0.16796082  1
  H+  H179  1  0.36570205  0.12299065  0.16326928  1
  H+  H180  1  0.89365226  0.61820452  0.99800926  1
  H+  H181  1  0.24999810  0.38802312  0.15967799  1
  H+  H182  1  0.16467119  0.30636712  0.49476974  1
  H+  H183  1  0.65735966  0.43504690  0.47314209  1
  H+  H184  1  0.71909640  0.38168592  0.82593840  1
  H+  H185  1  0.03349585  0.89568345  0.66254692  1
  H+  H186  1  -0.02458837  0.10896835  0.18547146  1
  H+  H187  1  0.60663645  0.38098008  0.82036131  1
  H+  H188  1  1.01967719  0.39631619  0.49034569  1
  H+  H189  1  0.55469531  0.89032130  -0.05932488  1
  H+  H190  1  0.13559658  0.85976055  0.65432142  1
  H+  H191  1  0.86509400  0.49094841  0.00017493  1
  H+  H192  1  0.89131130  0.86465335  0.34749593  1
  H+  H193  1  0.86384930  0.64282931  0.49514837  1
  H+  H194  1  0.22184349  0.61062499  0.17750532  1
  H+  H195  1  0.10346553  0.47599516  0.16205051  1
  H+  H196  1  0.46421290  0.59900910  0.32611435  1
  H+  H197  1  0.28363213  0.14833726  0.00224838  1
  H+  H198  1  0.37866091  0.60691178  0.32907490  1
  H+  H199  1  0.72907634  0.62336143  0.50567867  1
  H+  H200  1  0.72992790  0.60883075  0.17173469  1
  H+  H201  1  0.88923303  0.22338433  0.80178596  1
  H+  H202  1  0.61933619  0.87396248  0.18774757  1
  H+  H203  1  0.37808880  0.26247886  0.32501223  1
  H+  H204  1  0.17710107  0.59218378  0.75275377  1
  H+  H205  1  0.54502348  0.37204502  0.16940574  1
  H+  H206  1  0.52120178  0.62768119  0.17225232  1
  H+  H207  1  1.02658477  0.63125490  1.01136875  1
  H+  H208  1  0.03216127  0.89326285  0.48337554  1
  H+  H209  1  0.87139646  0.71682215  0.68846761  1
  H+  H210  1  0.13364344  0.13314946  0.48697840  1
  H+  H211  1  0.13916477  0.36027420  0.65710262  1
  H+  H212  1  0.59849201  0.94741207  0.64974657  1
  H+  H213  1  0.76907965  0.88299071  0.79142169  1
  H+  H214  1  0.87431556  0.35835700  0.50389189  1
  H+  H215  1  0.00080379  0.07925701  0.33113594  1
  H+  H216  1  0.38797851  0.53389615  1.00420644  1
  H+  H217  1  0.52457511  0.91030267  0.82897232  1
  H+  H218  1  0.27316828  0.88980760  0.33784521  1
  H+  H219  1  0.33189902  0.92298862  0.06782940  1
  H+  H220  1  0.86301995  0.78548497  0.61807977  1
  H+  H221  1  0.38283779  0.90398233  0.67821718  1
  H+  H222  1  -0.02469409  0.37018675  0.01130651  1
  H+  H223  1  0.27183863  0.88397647  0.16161527  1
  H+  H224  1  0.11278762  0.88251609  0.82118773  1
  H+  H225  1  0.12359440  0.73539259  0.34191247  1
  H+  H226  1  0.26912077  0.63430202  0.33959290  1
  H+  H227  1  0.63369121  0.28577072  0.82986661  1
  H+  H228  1  0.60852932  0.69671592  0.33033520  1
  H+  H229  1  0.64388275  0.62431184  1.00362970  1
  H+  H230  1  0.61472098  0.89363206  0.34312692  1
  H+  H231  1  0.89882166  0.61781776  0.84821852  1
  H+  H232  1  0.94166388  0.78079047  0.16366352  1
  H+  H233  1  0.64984198  0.76198264  0.63109100  1
  H+  H234  1  0.35889087  0.63940988  0.16496954  1
  H+  H235  1  0.97997439  0.63068092  0.50824429  1
  H+  H236  1  0.90505658  0.13031175  0.48865707  1
  H+  H237  1  0.38885294  0.36764418  0.98888141  1
  H+  H238  1  0.76818791  0.14462592  1.01463535  1
  H+  H239  1  0.63283163  0.26338446  0.32877958  1
  H+  H240  1  0.64137763  0.11236850  0.50084636  1
  H+  H241  1  0.88518854  0.10435087  0.18922732  1
  H+  H242  1  0.11851264  0.73037011  0.49358207  1
  H+  H243  1  0.61138366  0.13230370  0.33974333  1
  H+  H244  1  0.36245721  -0.01633091  1.00761306  1
  H+  H245  1  0.47991386  0.11842821  -0.00654621  1
  H+  H246  1  0.42049527  0.34653747  0.14804652  1
  H+  H247  1  0.10962028  0.72963928  0.66480989  1
  H+  H248  1  0.65028174  1.05059812  0.83137152  1
  H+  H249  1  0.65069545  0.77862401  0.48271832  1
  H+  H250  1  0.11498957  0.47700251  0.67148807  1
  H+  H251  1  0.35148518  0.37638900  0.33373617  1
  H+  H252  1  0.62819168  0.35023638  0.32540349  1
  H+  H253  1  0.87214845  0.10333257  0.81737838  1
  H+  H254  1  0.38417392  0.11235993  0.32812902  1
  H+  H255  1  0.37013443  0.63583508  0.67037130  1
  H+  H256  1  0.13762926  0.86807972  0.32556057  1
  H+  H257  1  0.36261152  0.97260626  0.16370634  1
  H+  H258  1  1.03189563  0.65579581  0.33720588  1
  H+  H259  1  0.36156764  0.88712555  0.33777618  1
  H+  H260  1  0.88676182  0.87970843  0.63470424  1
  H+  H261  1  0.75172947  0.36323547  0.49357072  1
  H+  H262  1  0.60545954  0.66855399  0.81438649  1
  H+  H263  1  1.04110873  0.15534776  1.00845173  1
  H+  H264  1  0.73402236  0.62535509  0.00096272  1
  H+  H265  1  0.08220349  0.67853963  0.76077772  1
  H+  H266  1  0.10973442  0.61994642  0.01164755  1
  H+  H267  1  0.86904231  0.32341808  0.85031513  1
  H+  H268  1  0.86943605  0.05442043  0.87797585  1
  H+  H269  1  0.85795468  0.96741804  0.80232744  1
  H+  H270  1  0.27962834  0.38993952  0.65985209  1
  H+  H271  1  0.33144433  0.16292574  0.39987026  1
  H+  H272  1  0.64288799  0.87356370  1.00587971  1
  H+  H273  1  0.61483647  0.48261179  0.67062190  1
  H+  H274  1  0.79354037  0.87201166  0.21844565  1
  H+  H275  1  0.18255262  0.09562841  0.70280631  1
  H+  H276  1  0.61727950  0.12590977  0.16265087  1
  H+  H277  1  0.60245837  0.09188369  0.65590203  1
  H+  H278  1  -0.01948565  0.86068972  0.82499065  1
  H+  H279  1  0.46728636  0.58308216  0.82491742  1
  H+  H280  1  0.49023179  0.62444249  0.66067931  1
  H+  H281  1  0.89646133  0.86673585  0.97435409  1
  H+  H282  1  0.73422492  0.86735733  0.35550073  1
  H+  H283  1  0.76982704  0.37632444  0.17709346  1
  H+  H284  1  0.40938014  0.82972312  0.60278693  1
  H+  H285  1  0.11309348  0.13198284  0.66327545  1
  H+  H286  1  0.65320851  0.35905883  0.17757382  1
  H+  H287  1  0.85553582  0.93179546  0.03916083  1
  H+  H288  1  0.97532755  0.61082807  0.66061007  1
  H+  H289  1  0.91736807  0.33312498  0.24189617  1
  H+  H290  1  0.16204329  0.82708353  0.59527153  1
  H+  H291  1  0.48256318  0.86528881  0.50440012  1
  H+  H292  1  0.22530534  0.85650895  0.99519079  1
  H+  H293  1  0.92832185  0.06938698  0.28514055  1
  H+  H294  1  0.67463446  0.08479779  0.27294554  1
  H+  H295  1  0.41819741  0.33823645  0.89364290  1
  H+  H296  1  0.66041825  0.81065349  0.25969576  1
  H+  H297  1  0.17989213  0.11010203  0.25349381  1
  H+  H298  1  0.97414349  0.36461434  0.65611024  1
  H+  H299  1  0.14422169  0.32367653  0.56009214  1
  H+  H300  1  0.41874602  0.84131940  0.90655867  1
  H+  H301  1  0.08018536  0.41380034  0.72854362  1
  H+  H302  1  0.35200679  0.17082714  0.75567712  1
  H+  H303  1  0.53181924  0.65462030  0.48601612  1
  H+  H304  1  0.31074875  0.38346736  0.43566555  1
  H+  H305  1  0.08357671  0.65938934  0.10238254  1
  H+  H306  1  0.40658769  0.58026038  0.23459038  1
  H+  H307  1  0.68583854  0.79003235  0.91873267  1
  H+  H308  1  0.41264837  0.32009675  0.26428678  1
  H+  H309  1  0.84096740  0.16713912  0.74054971  1
  H+  H310  1  0.12050461  0.36285946  0.17090866  1
  H+  H311  1  0.16746881  0.83447278  0.26753833  1
  H+  H312  1  0.54697295  0.97826920  0.06287031  1
  H+  H313  1  0.37277161  0.86802027  0.99848898  1
  H+  H314  1  0.16125188  0.57930296  0.23671806  1
  H+  H315  1  0.92507089  0.83073322  0.91904893  1
  H+  H316  1  0.86107410  0.87533025  0.10915176  1
  H+  H317  1  0.62309077  0.21666641  0.16294816  1
  H+  H318  1  0.17278272  0.09230477  0.93778646  1
  H+  H319  1  0.33626605  0.91528503  0.43107757  1
  H+  H320  1  0.67739388  0.32391529  0.23797520  1
  H+  H321  1  0.43174398  0.09636609  0.89607809  1
  H+  H322  1  0.82359972  0.42622971  0.75834614  1
  H+  H323  1  0.82175035  0.88028039  0.11153783  1
  H+  H324  1  0.38485173  0.02341195  0.32872248  1
  H+  H325  1  0.58173295  0.15903645  0.43189315  1
  H+  H326  1  0.92797745  0.59177346  0.93806193  1
  H+  H327  1  0.90237325  0.04201316  0.48024684  1
  H+  H328  1  0.08783759  0.91369983  0.75898312  1
  H+  H329  1  0.33617343  0.41398386  0.71981491  1
  H+  H330  1  0.16662627  0.58116836  0.60298515  1
  H+  H331  1  0.91885998  0.59816730  0.56664243  1
  H+  H332  1  0.42306071  0.08084421  0.23551205  1
  H+  H333  1  0.67142271  0.34533505  0.92370791  1
  H+  H334  1  0.34153481  0.17103874  0.06239386  1
  H+  H335  1  0.34343999  0.66661018  0.73103256  1
  H+  H336  1  0.64543219  0.84827844  0.63135491  1
  H+  H337  1  0.07939723  0.41956068  0.39981764  1
  H+  H338  1  0.05416756  0.87177222  0.09915481  1
  H+  H339  1  0.81316590  0.39854696  0.43545703  1
  H+  H340  1  0.63624159  0.59027103  0.32387857  1
  H+  H341  1  0.92364439  0.59600528  0.22884940  1
  H+  H342  1  0.95110586  0.70594689  0.28591097  1
  H+  H343  1  0.68868124  0.83730704  0.54038291  1
  H+  H344  1  0.68247875  0.10562395  0.92428129  1
  H+  H345  1  0.61009744  0.71916255  0.70811707  1
  H+  H346  1  0.66727581  0.59353603  0.56520458  1
  H+  H347  1  0.06596015  0.41220398  0.10215830  1
  H+  H348  1  0.97349684  0.11068404  0.92536968  1
  H+  H349  1  0.91382355  0.33592929  0.56250139  1
  H+  H350  1  0.65869199  0.07706299  0.56143933  1
  H+  H351  1  0.08598797  0.17157178  0.10545429  1
  H+  H352  1  0.32381512  0.41376761  0.06289230  1
  H+  H353  1  0.12186073  0.13357980  0.38419779  1
  H+  H354  1  0.52870745  0.93219846  0.07242002  1
  H+  H355  1  0.53636070  0.85653224  0.67532142  1
  H+  H356  1  0.11661354  0.14766512  0.16782644  1
  H+  H357  1  0.32879411  0.66730418  0.43435332  1
  H+  H358  1  0.83010092  0.65341727  0.74370832  1
  H+  H359  1  0.91253364  0.35219358  0.95001297  1
  H+  H360  1  0.90277664  0.86575667  0.27839626  1
  H+  H361  1  0.67310829  0.57204395  0.23179875  1
  H+  H362  1  0.32454843  0.66679890  0.10659118  1
  H+  H363  1  0.07417135  0.15890611  0.75254496  1
  H+  H364  1  0.36750622  0.22789630  0.65819522  1
  H+  H365  1  0.83757983  0.92215659  0.70810695  1
  H+  H366  1  0.16412919  0.33941288  0.92462937  1
  H+  H367  1  0.63844650  0.62218785  0.66177994  1
  H+  H368  1  0.68005733  0.58635955  0.90836905  1
  H+  H369  1  0.71380964  0.83789779  0.91458586  1
  H+  H370  1  0.86424866  0.22948740  0.66263585  1
  H+  H371  1  0.22362372  0.85744094  0.84093785  1
  H+  H372  1  0.17678450  0.08162469  0.57433967  1
  H+  H373  1  0.57591944  0.41066721  0.39268654  1
  H+  H374  1  0.55906420  0.95429401  0.76533254  1
  H+  H375  1  0.15441375  0.33786370  0.26817812  1
  H+  H376  1  0.91861253  0.84878499  0.53813966  1
  H+  H377  1  0.83085631  0.17988759  0.41216621  1
  H+  H378  1  0.81694571  0.60984636  0.40490923  1
  H+  H379  1  0.44128300  0.61245374  0.56305319  1
  H+  H380  1  0.58423357  0.92384761  0.40044306  1
  H+  H381  1  0.76811373  0.14470364  0.34558217  1
  H+  H382  1  0.08587129  0.66850088  0.43606344  1
  H+  H383  1  0.92545059  0.09550877  0.58015211  1
  O2-  O384  1  0.07944042  0.16894006  0.15075748  1
  O2-  O385  1  0.10939468  0.15520862  0.45608713  1
  O2-  O386  1  0.07268777  0.16061023  0.79844099  1
  O2-  O387  1  0.06909558  0.41469443  0.14870593  1
  O2-  O388  1  0.08078389  0.42481236  0.47699860  1
  O2-  O389  1  0.07843350  0.43087934  0.83281754  1
  O2-  O390  1  0.07949913  0.65962900  0.14815264  1
  O2-  O391  1  0.08667631  0.66821901  0.48134473  1
  O2-  O392  1  0.08927123  0.67484759  0.80584932  1
  O2-  O393  1  0.04340319  0.86210431  0.14601334  1
  O2-  O394  1  0.09494414  0.92376712  0.47423209  1
  O2-  O395  1  0.08099670  0.91006671  0.80432102  1
  O2-  O396  1  0.33846626  0.15628947  0.14770901  1
  O2-  O397  1  0.34067077  0.15910999  0.47815916  1
  O2-  O398  1  0.35428635  0.16913367  0.80052730  1
  O2-  O399  1  0.31307514  0.41872133  0.14631446  1
  O2-  O400  1  0.30096562  0.36734075  0.47895092  1
  O2-  O401  1  0.32962906  0.40390144  0.79867832  1
  O2-  O402  1  0.32645771  0.66864208  0.15245004  1
  O2-  O403  1  0.33328144  0.67351981  0.47951165  1
  O2-  O404  1  0.34967376  0.67596643  0.81095177  1
  O2-  O405  1  0.33221277  0.91348471  0.14600319  1
  O2-  O406  1  0.33676501  0.91572903  0.47663149  1
  O2-  O407  1  0.31320300  0.86799246  0.80274170  1
  O2-  O408  1  0.58941803  0.15781561  0.14599073  1
  O2-  O409  1  0.58251636  0.15614300  0.47748807  1
  O2-  O410  1  0.59315817  0.18667878  0.80858052  1
  O2-  O411  1  0.60604725  0.40327895  0.15751424  1
  O2-  O412  1  0.60574791  0.43999760  0.47140268  1
  O2-  O413  1  0.56920544  0.40701535  0.80287824  1
  O2-  O414  1  0.58323477  0.65884358  0.16061835  1
  O2-  O415  1  0.59082705  0.67621741  0.46464973  1
  O2-  O416  1  0.57204682  0.61050223  0.79823065  1
  O2-  O417  1  0.59580140  0.90705342  0.16722191  1
  O2-  O418  1  0.59093297  0.92099133  0.47514020  1
  O2-  O419  1  0.57861994  0.94641339  0.80490984  1
  O2-  O420  1  0.83076637  0.15787629  0.15779410  1
  O2-  O421  1  0.83805509  0.17847867  0.47597099  1
  O2-  O422  1  0.84284976  0.16684981  0.79007790  1
  O2-  O423  1  0.83685056  0.41203511  0.16279145  1
  O2-  O424  1  0.81198143  0.39210905  0.48026418  1
  O2-  O425  1  0.81116105  0.43635870  0.80083668  1
  O2-  O426  1  0.84426018  0.66497464  0.14372582  1
  O2-  O427  1  0.82569386  0.66205578  0.47329899  1
  O2-  O428  1  0.83778481  0.65918720  0.81452671  1
  O2-  O429  1  0.85625661  0.90223068  0.22387135  1
  O2-  O430  1  0.84516402  0.93316180  0.44550440  1
  O2-  O431  1  0.83219727  0.90877659  0.78454891  1
  O2-  O432  1  0.19822357  0.13874063  0.21022892  1
  O2-  O433  1  0.18189650  0.08363676  0.52961812  1
  O2-  O434  1  0.13954848  0.06741964  0.86380887  1
  O2-  O435  1  0.15493227  0.33595910  0.18495104  1
  O2-  O436  1  0.12129161  0.31236570  0.51805509  1
  O2-  O437  1  0.15960913  0.32225158  0.84166484  1
  O2-  O438  1  0.16033800  0.57871994  0.19104192  1
  O2-  O439  1  0.16737945  0.58508095  0.52625523  1
  O2-  O440  1  0.17262951  0.59248101  0.79707130  1
  O2-  O441  1  0.16575181  0.82619794  0.18860128  1
  O2-  O442  1  0.16940387  0.83387060  0.51576723  1
  O2-  O443  1  0.16328086  0.83173402  0.85559779  1
  O2-  O444  1  0.42228189  0.07739908  0.19002944  1
  O2-  O445  1  0.42259323  0.07728662  0.51670506  1
  O2-  O446  1  0.44055186  0.09936743  0.85154556  1
  O2-  O447  1  0.42842123  0.31565004  0.18143065  1
  O2-  O448  1  0.43391182  0.32402014  0.51617439  1
  O2-  O449  1  0.42010446  0.33763739  0.84792295  1
  O2-  O450  1  0.41165590  0.58551226  0.18905313  1
  O2-  O451  1  0.44678620  0.62078323  0.51821996  1
  O2-  O452  1  0.40749058  0.55959705  0.83950684  1
  O2-  O453  1  0.41720071  0.83278046  0.19327751  1
  O2-  O454  1  0.42245094  0.83794636  0.51953512  1
  O2-  O455  1  0.42831734  0.84279422  0.86175138  1
  O2-  O456  1  0.66802913  0.07423514  0.19925766  1
  O2-  O457  1  0.67457541  0.08552311  0.51759059  1
  O2-  O458  1  0.68666712  0.11099860  0.84542413  1
  O2-  O459  1  0.68469412  0.32697627  0.19245977  1
  O2-  O460  1  0.64067593  0.30953675  0.52528882  1
  O2-  O461  1  0.65832478  0.34741298  0.84389097  1
  O2-  O462  1  0.67002252  0.57399688  0.18630329  1
  O2-  O463  1  0.66724769  0.59412126  0.51958703  1
  O2-  O464  1  0.68789991  0.57582271  0.86498096  1
  O2-  O465  1  0.66905849  0.81656117  0.21555918  1
  O2-  O466  1  0.68574178  0.84118814  0.49482994  1
  O2-  O467  1  0.65888394  0.84489515  0.79884811  1
  O2-  O468  1  0.91892095  0.07932106  0.20651810  1
  O2-  O469  1  0.93420359  0.09818609  0.50080195  1
  O2-  O470  1  0.89402907  0.06665264  0.83704003  1
  O2-  O471  1  0.91314987  0.33145518  0.19653015  1
  O2-  O472  1  0.91219393  0.33410229  0.51700745  1
  O2-  O473  1  0.91188115  0.37650389  0.86945629  1
  O2-  O474  1  0.91787574  0.57634976  0.18543940  1
  O2-  O475  1  0.92003073  0.60854751  0.52231020  1
  O2-  O476  1  0.93423611  0.59646667  0.86817949  1
  O2-  O477  1  0.88613653  0.73947964  0.18440001  1
  O2-  O478  1  0.92121437  0.84196332  0.49336231  1
  O2-  O479  1  0.91951548  0.83041326  0.84121378  1
  O2-  O480  1  0.16316691  0.08249287  0.31978243  1
  O2-  O481  1  0.16951753  0.08213980  0.65969535  1
  O2-  O482  1  0.18848686  0.10547949  0.98151963  1
  O2-  O483  1  0.15286548  0.33952186  0.31300794  1
  O2-  O484  1  0.17119214  0.33353561  0.64021609  1
  O2-  O485  1  0.16982525  0.34746351  0.96940866  1
  O2-  O486  1  0.16360301  0.58235973  0.31423379  1
  O2-  O487  1  0.16851220  0.58046261  0.64897426  1
  O2-  O488  1  0.15105707  0.55873882  0.98922989  1
  O2-  O489  1  0.16985368  0.83810681  0.31294743  1
  O2-  O490  1  0.15785084  0.82193751  0.64030924  1
  O2-  O491  1  0.16603055  0.82140162  0.97868131  1
  O2-  O492  1  0.41721205  0.08437677  0.31380598  1
  O2-  O493  1  0.43156605  0.09343621  0.64034003  1
  O2-  O494  1  0.41908129  0.08559592  0.97975002  1
  O2-  O495  1  0.41022502  0.32327174  0.30903597  1
  O2-  O496  1  0.42052060  0.33525555  0.63675270  1
  O2-  O497  1  0.41960562  0.33956625  0.97107398  1
  O2-  O498  1  0.40416086  0.57324085  0.31135200  1
  O2-  O499  1  0.42926342  0.59644960  0.64346780  1
  O2-  O500  1  0.41503592  0.59674973  0.99884438  1
  O2-  O501  1  0.41260579  0.83144235  0.31568257  1
  O2-  O502  1  0.41180402  0.83043408  0.64788874  1
  O2-  O503  1  0.40134430  0.83375989  0.98495197  1
  O2-  O504  1  0.67543614  0.08952482  0.31915384  1
  O2-  O505  1  0.59537378  0.04267697  0.62961000  1
  O2-  O506  1  0.67040521  0.08961354  0.96808642  1
  O2-  O507  1  0.66345676  0.32388177  0.31281271  1
  O2-  O508  1  0.66482461  0.33521278  0.64845887  1
  O2-  O509  1  0.67562403  0.34556222  0.96894503  1
  O2-  O510  1  0.66630902  0.56039133  0.30804938  1
  O2-  O511  1  0.66560214  0.58750400  0.64492003  1
  O2-  O512  1  0.67385323  0.59536158  0.98575890  1
  O2-  O513  1  0.67085404  0.82979636  0.34586255  1
  O2-  O514  1  0.68018884  0.82239034  0.61569011  1
  O2-  O515  1  0.66849116  0.84882500  1.03464288  1
  O2-  O516  1  0.93936542  0.06360337  0.32890661  1
  O2-  O517  1  0.92160880  0.09489763  0.62554543  1
  O2-  O518  1  0.94707349  0.10391286  0.96519114  1
  O2-  O519  1  0.91408333  0.33572072  0.32082556  1
  O2-  O520  1  0.91429522  0.33405268  0.64049186  1
  O2-  O521  1  0.90929527  0.34989022  0.99494490  1
  O2-  O522  1  0.94133294  0.64882605  0.29606338  1
  O2-  O523  1  0.91425282  0.57789053  0.64611763  1
  O2-  O524  1  0.92148910  0.58472824  0.98455076  1
  O2-  O525  1  0.91873545  0.84683476  0.31646180  1
  O2-  O526  1  0.91157608  0.84442127  0.61743438  1
  O2-  O527  1  0.92322218  0.83179038  0.96459063  1
  O2-  O528  1  0.09880106  0.18685968  0.02804460  1
  O2-  O529  1  0.11553809  0.12614054  0.33847478  1
  O2-  O530  1  0.08332171  0.16525133  0.67615317  1
  O2-  O531  1  0.05487640  0.38628420  0.03069133  1
  O2-  O532  1  0.07492831  0.41773405  0.35418434  1
  O2-  O533  1  0.08156245  0.41476472  0.68422623  1
  O2-  O534  1  0.08727736  0.65854745  0.02597685  1
  O2-  O535  1  0.08910820  0.67394931  0.35529774  1
  O2-  O536  1  0.07941127  0.66881405  0.68380489  1
  O2-  O537  1  0.07256005  0.88645634  0.03263378  1
  O2-  O538  1  0.08435203  0.91728110  0.35054640  1
  O2-  O539  1  0.09079488  0.92114000  0.68064383  1
  O2-  O540  1  0.34592568  0.17729919  0.01776832  1
  O2-  O541  1  0.32875544  0.16321298  0.35438350  1
  O2-  O542  1  0.34229366  0.16718676  0.67200375  1
  O2-  O543  1  0.33242670  0.41774833  0.01832486  1
  O2-  O544  1  0.31971834  0.40367906  0.35037468  1
  O2-  O545  1  0.34045775  0.41980476  0.67451679  1
  O2-  O546  1  0.31855631  0.65991553  0.03089594  1
  O2-  O547  1  0.32978303  0.66266705  0.35481504  1
  O2-  O548  1  0.33416401  0.66072763  0.68625296  1
  O2-  O549  1  0.33084044  0.92233685  0.02224835  1
  O2-  O550  1  0.33399886  0.92000073  0.35319394  1
  O2-  O551  1  0.37171303  0.94339362  0.70303793  1
  O2-  O552  1  0.59238297  0.17742378  0.01385939  1
  O2-  O553  1  0.58095330  0.16227655  0.35519854  1
  O2-  O554  1  0.58983659  0.17111680  0.68757160  1
  O2-  O555  1  0.59291117  0.42027116  0.00597894  1
  O2-  O556  1  0.57265113  0.39953638  0.34832271  1
  O2-  O557  1  0.58362786  0.42147884  0.68554973  1
  O2-  O558  1  0.58650593  0.66936710  0.03674375  1
  O2-  O559  1  0.57570692  0.63861255  0.34709284  1
  O2-  O560  1  0.58870388  0.66726768  0.68366784  1
  O2-  O561  1  0.61409671  0.92081060  -0.04592424  1
  O2-  O562  1  0.58414365  0.92453065  0.35446552  1
  O2-  O563  1  0.59729575  0.89568484  0.66645888  1
  O2-  O564  1  0.82174773  0.17734624  0.03835960  1
  O2-  O565  1  0.82905021  0.18063966  0.36334549  1
  O2-  O566  1  0.83691759  0.16859262  0.67717680  1
  O2-  O567  1  0.83008074  0.42695120  0.01352962  1
  O2-  O568  1  0.82455429  0.41849113  0.35587529  1
  O2-  O569  1  0.83341761  0.41417683  0.68253673  1
  O2-  O570  1  0.84453392  0.67538770  0.01984462  1
  O2-  O571  1  0.80858460  0.57649719  0.36651412  1
  O2-  O572  1  0.83113825  0.65658044  0.69690827  1
  O2-  O573  1  0.84649140  0.93174571  -0.00473353  1
  O2-  O574  1  0.83553027  0.92381216  0.37888818  1
  O2-  O575  1  0.83865325  0.92750053  0.66256260  1
