# generated using pymatgen
data_H2O
_symmetry_space_group_name_H-M   'P 1'
_cell_length_a   17.97303292
_cell_length_b   17.98708790
_cell_length_c   21.96789046
_cell_angle_alpha   89.98452944
_cell_angle_beta   89.97575314
_cell_angle_gamma   119.98536344
_symmetry_Int_Tables_number   1
_chemical_formula_structural   H2O
_chemical_formula_sum   'H384 O192'
_cell_volume   6151.27496886
_cell_formula_units_Z   192
loop_
 _symmetry_equiv_pos_site_id
 _symmetry_equiv_pos_as_xyz
  1  'x, y, z'
loop_
 _atom_type_symbol
 _atom_type_oxidation_number
  H+  1.0
  O2-  -2.0
loop_
 _atom_site_type_symbol
 _atom_site_label
 _atom_site_symmetry_multiplicity
 _atom_site_fract_x
 _atom_site_fract_y
 _atom_site_fract_z
 _atom_site_occupancy
  H+  H0  1  0.11284182  0.49698696  0.14580723  1
  H+  H1  1  0.12860022  0.41974076  0.16121480  1
  H+  H2  1  0.81869196  0.61049903  0.41696771  1
  H+  H3  1  0.77026293  0.12080102  0.32645596  1
  H+  H4  1  0.41647843  0.13756031  0.18719631  1
  H+  H5  1  0.91879650  0.07049222  0.90363922  1
  H+  H6  1  0.98634245  0.21194282  0.60927132  1
  H+  H7  1  0.87407190  0.76751737  0.84022411  1
  H+  H8  1  0.23081622  0.26591903  0.89022698  1
  H+  H9  1  0.76790920  0.89323592  0.66938466  1
  H+  H10  1  0.48855430  0.60148959  0.50501423  1
  H+  H11  1  0.25998349  0.13416373  0.00316903  1
  H+  H12  1  0.83453027  0.20708055  0.48069139  1
  H+  H13  1  0.04123601  0.17222332  0.80960381  1
  H+  H14  1  0.76943551  0.88151042  0.49424926  1
  H+  H15  1  0.66996663  0.30586115  0.83460132  1
  H+  H16  1  0.88308272  0.60304531  0.67096878  1
  H+  H17  1  0.49169665  0.34454203  0.32434862  1
  H+  H18  1  0.74321519  0.12158478  0.18499798  1
  H+  H19  1  0.69705402  0.59286636  0.93530002  1
  H+  H20  1  0.87943356  0.10860914  0.49344861  1
  H+  H21  1  0.85999889  0.22168457  0.01281054  1
  H+  H22  1  0.28382861  0.65742944  0.15529397  1
  H+  H23  1  0.65672422  0.82094600  0.56010198  1
  H+  H24  1  0.60168376  0.89153290  0.34676684  1
  H+  H25  1  0.72432176  0.86325516  0.35875009  1
  H+  H26  1  0.62743268  0.26466152  0.53483320  1
  H+  H27  1  1.01460430  0.37636346  1.00457165  1
  H+  H28  1  0.15526366  0.24857518  0.84231141  1
  H+  H29  1  0.29388696  0.67114596  0.65861606  1
  H+  H30  1  0.10095673  0.72854938  -0.00265437  1
  H+  H31  1  0.43275282  0.32329112  0.26372182  1
  H+  H32  1  0.68941952  0.58778386  0.82662100  1
  H+  H33  1  0.21745223  0.43409889  0.23776194  1
  H+  H34  1  0.36761819  0.64935979  0.15423409  1
  H+  H35  1  0.63603167  0.76696275  0.65608599  1
  H+  H36  1  0.03059903  0.89196918  0.48597442  1
  H+  H37  1  0.38542858  0.52784893  0.66401754  1
  H+  H38  1  0.39049988  0.37317848  0.86972305  1
  H+  H39  1  0.61412571  0.45767814  0.34657689  1
  H+  H40  1  0.26824632  0.13374414  0.49329986  1
  H+  H41  1  0.04261227  0.53111629  0.23208427  1
  H+  H42  1  0.39131780  0.79590559  0.16427700  1
  H+  H43  1  0.56560578  0.13413306  0.58241185  1
  H+  H44  1  0.01862953  0.13616071  0.48467981  1
  H+  H45  1  0.83761966  0.91454258  0.40385975  1
  H+  H46  1  0.16089500  0.08271421  0.58870168  1
  H+  H47  1  0.62877867  0.75692257  0.50354502  1
  H+  H48  1  0.88351100  1.02249111  0.50348645  1
  H+  H49  1  0.62392286  0.08927358  0.51405459  1
  H+  H50  1  0.72679582  0.09380660  0.65154637  1
  H+  H51  1  0.03505101  0.63448529  0.34185558  1
  H+  H52  1  0.38779378  0.88449639  0.47959673  1
  H+  H53  1  0.75261647  0.12905953  0.81908819  1
  H+  H54  1  0.88136111  0.10662253  -0.00473777  1
  H+  H55  1  0.32190198  0.16689317  0.07568661  1
  H+  H56  1  0.21557103  0.86515619  0.16706152  1
  H+  H57  1  0.84865300  0.19283872  0.25186424  1
  H+  H58  1  0.23504956  0.63662008  -0.01682580  1
  H+  H59  1  0.34834597  0.37999026  0.00054990  1
  H+  H60  1  0.25642511  0.87517717  0.69185455  1
  H+  H61  1  0.63239752  0.14427836  0.32680475  1
  H+  H62  1  0.38401652  0.88076724  0.16386448  1
  H+  H63  1  0.65791861  0.83969526  0.41184986  1
  H+  H64  1  0.63719535  0.24849983  0.70502386  1
  H+  H65  1  0.13906031  0.10735219  0.32484809  1
  H+  H66  1  0.10596729  0.22082602  1.00956856  1
  H+  H67  1  0.85952423  0.96927480  0.00422975  1
  H+  H68  1  0.37824998  0.01217751  0.33228973  1
  H+  H69  1  0.86162454  0.96673665  0.34029197  1
  H+  H70  1  0.12854758  0.35144930  0.24759972  1
  H+  H71  1  0.31357689  0.64473510  0.48371095  1
  H+  H72  1  0.62219242  0.98046509  0.15435249  1
  H+  H73  1  0.88662402  0.51744529  0.66336841  1
  H+  H74  1  0.65131881  0.38021493  0.17699371  1
  H+  H75  1  -0.02837406  0.61347045  0.51351092  1
  H+  H76  1  0.88788445  0.86244159  0.33373862  1
  H+  H77  1  -0.02792386  0.60173212  -0.00912940  1
  H+  H78  1  0.88893155  0.58277787  0.33169547  1
  H+  H79  1  0.37987567  0.10937479  0.33516535  1
  H+  H80  1  0.92724465  0.33489614  0.50322515  1
  H+  H81  1  0.02197791  0.89561371  0.00170807  1
  H+  H82  1  0.27103431  0.13966526  0.15414098  1
  H+  H83  1  0.93627254  0.11830677  0.58606634  1
  H+  H84  1  0.86233430  0.48437899  0.15417089  1
  H+  H85  1  0.87803137  0.64529309  0.99936955  1
  H+  H86  1  0.88802986  0.36373749  0.14771033  1
  H+  H87  1  0.63821140  0.12529212  0.81992670  1
  H+  H88  1  0.97491003  0.33564561  0.84770570  1
  H+  H89  1  0.86002708  0.88293051  0.49067911  1
  H+  H90  1  0.65858471  0.27652017  0.31624198  1
  H+  H91  1  0.87370112  0.85599677  0.83212130  1
  H+  H92  1  0.09379259  0.61837396  0.49308783  1
  H+  H93  1  0.12363814  0.71533486  0.50478143  1
  H+  H94  1  0.41256978  0.64419917  0.98848161  1
  H+  H95  1  0.55947063  0.19662895  0.79265023  1
  H+  H96  1  0.76520372  0.39048095  0.67929145  1
  H+  H97  1  0.39344964  0.56742620  0.10928978  1
  H+  H98  1  0.09325031  0.64023674  0.14873981  1
  H+  H99  1  0.89364328  0.77716943  0.32607038  1
  H+  H100  1  0.71808071  0.57678573  0.34207500  1
  H+  H101  1  0.17861712  0.44075318  0.84836652  1
  H+  H102  1  0.63502421  0.50878789  0.51232903  1
  H+  H103  1  0.77233435  0.63150299  0.50148606  1
  H+  H104  1  0.37320879  0.38500988  0.49179915  1
  H+  H105  1  0.13463924  0.11496651  0.49733137  1
  H+  H106  1  0.81966039  0.38968027  0.82915120  1
  H+  H107  1  0.66611613  0.53639630  -0.00407769  1
  H+  H108  1  0.10128332  0.18802154  0.29333956  1
  H+  H109  1  0.89297539  0.12150155  0.18868234  1
  H+  H110  1  0.35922115  0.19249020  0.80080831  1
  H+  H111  1  0.15401917  0.39815278  0.83261878  1
  H+  H112  1  0.54003370  0.64413653  0.33178381  1
  H+  H113  1  0.62473575  0.36557382  0.67934098  1
  H+  H114  1  0.27778075  0.37387173  0.17337842  1
  H+  H115  1  0.86331239  0.88219499  1.00218412  1
  H+  H116  1  0.20608075  0.86805463  0.83039647  1
  H+  H117  1  0.28944448  0.64056543  0.34374041  1
  H+  H118  1  0.87922327  0.09568389  0.32196362  1
  H+  H119  1  0.59052094  0.39755953  0.00712028  1
  H+  H120  1  0.92121384  0.51828006  0.31277992  1
  H+  H121  1  0.37431306  0.26063545  0.50567401  1
  H+  H122  1  0.40952570  0.78063310  0.64976919  1
  H+  H123  1  0.38590846  0.48825101  0.49138409  1
  H+  H124  1  0.36473891  0.95902014  0.48604351  1
  H+  H125  1  0.21974605  0.51497795  0.52855481  1
  H+  H126  1  0.34449531  0.88101503  -0.00240530  1
  H+  H127  1  0.89980361  0.77987211  0.98819462  1
  H+  H128  1  0.50141144  0.13141464  0.18668872  1
  H+  H129  1  0.52063852  0.63373046  0.67332001  1
  H+  H130  1  0.13512409  0.02445684  0.49782776  1
  H+  H131  1  0.85497864  0.97092415  0.15693063  1
  H+  H132  1  0.35584302  0.71621503  0.82087390  1
  H+  H133  1  0.28890178  0.25993585  0.66394348  1
  H+  H134  1  0.48863136  0.35603387  0.16655432  1
  H+  H135  1  0.61667498  0.51034758  0.67065214  1
  H+  H136  1  0.36974709  0.64685412  0.66391351  1
  H+  H137  1  0.18157000  0.53101864  0.47044538  1
  H+  H138  1  0.08909009  0.48059783  0.60604740  1
  H+  H139  1  0.25098746  0.87604226  -0.00438434  1
  H+  H140  1  -0.02110322  0.36899931  0.14507295  1
  H+  H141  1  0.20830399  0.11097602  0.82764497  1
  H+  H142  1  0.28438621  0.38412670  0.84312755  1
  H+  H143  1  0.96752148  0.42769691  0.34146662  1
  H+  H144  1  0.97715628  0.88557564  0.64603862  1
  H+  H145  1  0.02461185  0.63649273  0.67310000  1
  H+  H146  1  0.84941464  0.46496061  0.00068375  1
  H+  H147  1  0.34659136  0.38971191  0.69320566  1
  H+  H148  1  0.52733391  0.88892097  0.81692237  1
  H+  H149  1  0.88679629  0.77285766  0.49650807  1
  H+  H150  1  0.37556076  0.75016675  1.00147478  1
  H+  H151  1  0.68429565  0.41108836  0.01617652  1
  H+  H152  1  0.07401838  0.67508811  0.08719541  1
  H+  H153  1  0.60778587  0.62882987  0.67795610  1
  H+  H154  1  0.25501136  0.83170481  0.51842682  1
  H+  H155  1  0.00972813  0.12236814  0.32345619  1
  H+  H156  1  0.49072286  0.49156481  0.36818267  1
  H+  H157  1  0.57393899  0.85272182  0.50119818  1
  H+  H158  1  0.60833267  0.73949028  0.82332159  1
  H+  H159  1  0.14334733  0.11731388  0.65306848  1
  H+  H160  1  0.10341203  0.72994133  0.82342848  1
  H+  H161  1  0.88361174  0.86910581  0.17070739  1
  H+  H162  1  0.42904044  0.77955150  0.49322334  1
  H+  H163  1  0.12715854  0.86677003  0.65626056  1
  H+  H164  1  0.35036099  0.13037193  0.01028877  1
  H+  H165  1  0.61463503  0.40260232  0.83742196  1
  H+  H166  1  0.64506704  0.60457659  0.33801718  1
  H+  H167  1  0.41871742  0.57832468  0.60024108  1
  H+  H168  1  0.61655510  0.62057646  0.49589754  1
  H+  H169  1  0.38269515  0.61500538  0.83138374  1
  H+  H170  1  0.59578258  0.62191219  0.17393369  1
  H+  H171  1  0.94215892  0.33825120  0.65459694  1
  H+  H172  1  0.05053531  0.15829079  0.66936305  1
  H+  H173  1  0.84498809  0.69908191  0.69693768  1
  H+  H174  1  0.82739401  0.90918469  0.09977094  1
  H+  H175  1  0.79641134  0.65537055  0.00726500  1
  H+  H176  1  0.26882716  0.40531641  0.68545593  1
  H+  H177  1  0.78502755  0.51451824  0.39957749  1
  H+  H178  1  0.85622714  -0.03208634  0.82611962  1
  H+  H179  1  0.25983645  0.09841378  0.65408325  1
  H+  H180  1  0.08791662  0.35604071  0.68302248  1
  H+  H181  1  0.38550572  0.77870184  0.31622743  1
  H+  H182  1  0.16600250  0.34326281  0.60689479  1
  H+  H183  1  0.52492452  0.90389992  0.15230381  1
  H+  H184  1  0.36557708  0.22966803  0.15018145  1
  H+  H185  1  0.86061278  0.20296700  0.82745935  1
  H+  H186  1  0.82219753  0.41905270  0.09524750  1
  H+  H187  1  0.37930764  0.64548184  0.32807137  1
  H+  H188  1  0.64473379  0.86127029  -0.01248587  1
  H+  H189  1  0.11575212  0.64738369  -0.00101901  1
  H+  H190  1  -0.02567490  0.61978733  0.83777675  1
  H+  H191  1  0.10992555  0.37036791  -0.00101287  1
  H+  H192  1  0.11812193  -0.02344962  0.33225355  1
  H+  H193  1  0.72338251  0.86132035  0.82994120  1
  H+  H194  1  0.14796764  0.61658877  0.34942256  1
  H+  H195  1  0.75819268  0.11191791  0.47465934  1
  H+  H196  1  0.51240642  0.87537049  0.65578228  1
  H+  H197  1  0.10672669  0.48624848  0.36514050  1
  H+  H198  1  0.74994652  0.38467739  0.17133005  1
  H+  H199  1  0.13510975  0.87495041  0.32123641  1
  H+  H200  1  0.13256884  0.27586793  0.51246584  1
  H+  H201  1  0.38631483  0.28193409  0.96450779  1
  H+  H202  1  0.84222699  0.21802121  0.67137970  1
  H+  H203  1  0.85153027  0.62235798  0.84000314  1
  H+  H204  1  0.05299286  0.25698185  0.32532950  1
  H+  H205  1  0.70170672  0.35609033  0.89777406  1
  H+  H206  1  0.62421157  0.63761267  -0.00842191  1
  H+  H207  1  0.37463423  0.09060452  0.50551491  1
  H+  H208  1  0.91970354  0.42145810  0.81025600  1
  H+  H209  1  0.33069130  0.25740098  0.72536181  1
  H+  H210  1  0.59628982  0.84276755  0.18041051  1
  H+  H211  1  0.71590249  0.61039337  0.18349594  1
  H+  H212  1  0.05410535  0.43864575  0.51936978  1
  H+  H213  1  0.65563516  0.12209732  0.17094267  1
  H+  H214  1  0.40436196  0.60951293  0.49764553  1
  H+  H215  1  0.35477999  0.17533195  0.65758350  1
  H+  H216  1  0.91553999  0.58453702  0.57493761  1
  H+  H217  1  0.01867287  0.89721841  0.15910339  1
  H+  H218  1  0.42252521  0.40428257  0.33839066  1
  H+  H219  1  0.61846457  0.10852934  -0.01226447  1
  H+  H220  1  0.36116955  0.46273402  0.15970444  1
  H+  H221  1  1.02762493  0.88628906  0.33544449  1
  H+  H222  1  0.00888689  0.88554499  0.81702334  1
  H+  H223  1  0.07524652  0.48876594  0.63656592  1
  H+  H224  1  0.11219429  0.22571843  0.15665379  1
  H+  H225  1  0.35617778  0.88399526  0.33078019  1
  H+  H226  1  0.12403886  0.11638888  0.83016669  1
  H+  H227  1  0.84713588  0.63849392  0.16899315  1
  H+  H228  1  0.65598154  0.56679799  0.24148894  1
  H+  H229  1  0.37709891  0.06595700  0.64968757  1
  H+  H230  1  0.09659665  0.97754294  0.81807793  1
  H+  H231  1  0.62363545  0.97675966  0.66135725  1
  H+  H232  1  0.38562452  0.84830167  0.82957058  1
  H+  H233  1  0.63033100  0.03065128  0.82341181  1
  H+  H234  1  0.39945435  0.35691555  0.17244081  1
  H+  H235  1  0.38380739  0.99263840  0.85050039  1
  H+  H236  1  0.60430382  0.37144198  0.50417434  1
  H+  H237  1  0.21559163  0.35411428  1.00145500  1
  H+  H238  1  0.15007667  0.28347997  0.66511822  1
  H+  H239  1  0.63178355  1.02086622  0.32209755  1
  H+  H240  1  0.85996286  0.35048604  0.65674352  1
  H+  H241  1  0.27690592  0.13506437  0.33921730  1
  H+  H242  1  0.48011790  0.94673338  0.95874877  1
  H+  H243  1  0.14314146  0.11715037  0.17222801  1
  H+  H244  1  0.13325771  0.02623412  0.98790585  1
  H+  H245  1  0.79696379  0.36171688  0.33330341  1
  H+  H246  1  0.10912164  0.34878481  0.51648506  1
  H+  H247  1  0.71042504  0.35937042  0.52207533  1
  H+  H248  1  0.63693725  0.24011422  0.16914850  1
  H+  H249  1  0.86992010  0.14698433  0.66876025  1
  H+  H250  1  0.44445501  1.02013041  0.79421929  1
  H+  H251  1  0.50093135  0.37541277  0.69202032  1
  H+  H252  1  0.61253957  0.97178255  0.00108647  1
  H+  H253  1  0.62339163  0.72725145  0.35580556  1
  H+  H254  1  0.39020901  0.52982386  0.84234548  1
  H+  H255  1  0.84946089  0.72805113  0.17037853  1
  H+  H256  1  0.57842341  0.20083790  1.01722259  1
  H+  H257  1  0.62941242  0.73509668  0.98979527  1
  H+  H258  1  0.88263140  0.35893179  0.99475681  1
  H+  H259  1  0.06992477  0.47827224  0.82256935  1
  H+  H260  1  0.22990822  0.87085845  0.32156919  1
  H+  H261  1  0.41643967  0.53549493  0.31408203  1
  H+  H262  1  0.82860212  0.38216816  0.48933654  1
  H+  H263  1  0.10964047  0.13366439  1.00548628  1
  H+  H264  1  0.43305704  0.13213819  0.82330693  1
  H+  H265  1  0.12540571  0.77609250  0.16748997  1
  H+  H266  1  0.61832556  0.89463989  0.81919382  1
  H+  H267  1  0.63440547  0.85481162  0.65347539  1
  H+  H268  1  0.22175404  0.75622730  0.56879247  1
  H+  H269  1  -0.02559124  0.11098262  0.17201546  1
  H+  H270  1  0.47395405  0.60464136  0.15603634  1
  H+  H271  1  0.51665702  0.89427528  0.32961026  1
  H+  H272  1  0.89265188  0.52656172  0.83548058  1
  H+  H273  1  0.86609518  0.92339176  0.66564324  1
  H+  H274  1  0.96548991  0.61918189  0.16391769  1
  H+  H275  1  0.35010306  0.98343253  0.14755360  1
  H+  H276  1  0.62092538  0.47680392  0.16599346  1
  H+  H277  1  -0.01857704  0.06945577  0.85448942  1
  H+  H278  1  0.37917049  0.98059450  0.65406394  1
  H+  H279  1  0.58419620  0.70666678  0.17591525  1
  H+  H280  1  0.12831538  0.61614015  0.83314537  1
  H+  H281  1  0.10530399  0.89274662  0.15827192  1
  H+  H282  1  0.10838568  0.62628991  0.24278427  1
  H+  H283  1  0.84190916  0.47454834  0.50317376  1
  H+  H284  1  0.16039329  0.66114801  0.64621878  1
  H+  H285  1  0.11786655  0.86856615  0.82846194  1
  H+  H286  1  0.10644938  0.97953967  0.66173610  1
  H+  H287  1  0.87797138  0.24459329  0.18719722  1
  H+  H288  1  0.86338367  0.63620565  0.50455908  1
  H+  H289  1  0.17365764  0.08480552  0.26436561  1
  H+  H290  1  0.47640685  0.22184259  0.85783099  1
  H+  H291  1  0.18564978  0.61616036  0.59383668  1
  H+  H292  1  0.33182356  0.66677446  0.75801045  1
  H+  H293  1  0.36571843  1.01327342  0.00355006  1
  H+  H294  1  0.61222434  0.18719254  0.10803855  1
  H+  H295  1  0.61403754  0.42419945  0.10410834  1
  H+  H296  1  0.87844463  0.81343765  0.64105640  1
  H+  H297  1  0.82269439  0.15742021  0.75646178  1
  H+  H298  1  0.91885815  0.84452945  0.23057841  1
  H+  H299  1  0.61033316  0.18310101  0.38388874  1
  H+  H300  1  0.58654929  0.39467934  0.40392397  1
  H+  H301  1  0.92127679  0.84058510  0.92911132  1
  H+  H302  1  0.59277043  0.91673492  0.06258042  1
  H+  H303  1  0.17278315  0.83215285  0.60858694  1
  H+  H304  1  0.16886714  0.59756088  0.92805830  1
  H+  H305  1  0.16677103  0.84018874  0.25731086  1
  H+  H306  1  0.32847851  0.90685979  0.39472761  1
  H+  H307  1  0.09527730  0.92259773  0.43117737  1
  H+  H308  1  0.40968704  0.84217315  0.25779805  1
  H+  H309  1  0.81101754  0.63442221  0.75032594  1
  H+  H310  1  0.39659879  0.04488821  0.56098798  1
  H+  H311  1  0.09052583  0.41971257  0.05928157  1
  H+  H312  1  0.43102823  0.60553121  0.92844689  1
  H+  H313  1  0.05773715  0.38376322  0.35461874  1
  H+  H314  1  0.65810149  0.36490966  0.32629082  1
  H+  H315  1  0.08725099  0.66761981  0.40377311  1
  H+  H316  1  0.08046252  0.92623554  0.06252555  1
  H+  H317  1  0.03340318  0.40831748  0.76792595  1
  H+  H318  1  0.04561376  0.40684560  0.45014717  1
  H+  H319  1  0.91013027  0.06367682  0.26355368  1
  H+  H320  1  0.56190923  0.41212360  0.75063885  1
  H+  H321  1  0.13996692  0.02671204  0.17046247  1
  H+  H322  1  0.97419905  0.25777622  0.88337521  1
  H+  H323  1  -0.02938558  0.10661267  -0.00165569  1
  H+  H324  1  0.16518970  0.31681003  0.93872914  1
  H+  H325  1  0.67761268  0.26696218  0.01751393  1
  H+  H326  1  0.08400620  0.16361390  0.09930651  1
  H+  H327  1  0.83438599  0.15963877  0.38153392  1
  H+  H328  1  -0.01159501  0.27533209  0.28983626  1
  H+  H329  1  0.82517613  0.91795892  0.76189405  1
  H+  H330  1  0.42704821  0.84135388  0.89122074  1
  H+  H331  1  0.32151161  0.39013883  0.06821815  1
  H+  H332  1  0.52875291  0.64464078  -0.01086388  1
  H+  H333  1  0.14865265  0.83748555  0.92646308  1
  H+  H334  1  0.58645599  0.64922969  0.43434786  1
  H+  H335  1  0.16162906  0.08615963  0.92740986  1
  H+  H336  1  0.51266895  0.11913731  0.52342876  1
  H+  H337  1  0.31950478  0.93448253  0.74314185  1
  H+  H338  1  0.81260498  0.14922664  0.06165759  1
  H+  H339  1  0.31519414  0.91717914  0.09149924  1
  H+  H340  1  0.52220634  0.39167569  0.84881567  1
  H+  H341  1  0.08360767  0.17414458  0.42892156  1
  H+  H342  1  0.71010276  0.59288949  0.67094371  1
  H+  H343  1  0.73443356  0.86138423  0.98564685  1
  H+  H344  1  0.65279419  0.82850943  0.22785197  1
  H+  H345  1  0.86455477  0.30448695  0.55870247  1
  H+  H346  1  0.42657195  0.08753943  0.27547232  1
  H+  H347  1  0.65425790  0.33541380  0.61948524  1
  H+  H348  1  0.92145995  0.84420504  0.54938149  1
  H+  H349  1  0.65982219  0.56759357  0.57243165  1
  H+  H350  1  0.58597005  0.91650470  0.72525301  1
  H+  H351  1  0.36924777  0.67647748  0.42279372  1
  H+  H352  1  0.43819764  0.09299218  0.96731526  1
  H+  H353  1  0.57643092  0.67144572  0.76110243  1
  H+  H354  1  0.61294334  -0.00284428  0.49960310  1
  H+  H355  1  0.00947098  0.29133474  0.72170045  1
  H+  H356  1  0.10627987  0.73261477  0.67532944  1
  H+  H357  1  0.06990340  0.91976796  0.72153786  1
  H+  H358  1  0.36979958  0.22198670  0.33819736  1
  H+  H359  1  0.34649524  0.69031722  0.05927215  1
  H+  H360  1  0.66643446  0.83371603  0.89135423  1
  H+  H361  1  0.07882901  0.66992118  0.76440245  1
  H+  H362  1  0.67030379  0.05755692  0.58966288  1
  H+  H363  1  0.33662837  0.42612321  0.78203022  1
  H+  H364  1  0.38253050  0.43493323  0.42608777  1
  H+  H365  1  0.68961513  0.35072737  0.24277653  1
  H+  H366  1  0.91445463  0.31774087  0.94192084  1
  H+  H367  1  0.12544867  0.86849330  0.98896467  1
  H+  H368  1  0.45188137  0.83946680  0.58712563  1
  H+  H369  1  0.91226663  0.57328550  0.93206895  1
  H+  H370  1  0.51831059  0.37523586  0.49561251  1
  H+  H371  1  0.49545947  0.87932627  0.98702372  1
  H+  H372  1  0.66751917  0.07825651  0.26080282  1
  H+  H373  1  0.30353126  0.14104833  0.74528346  1
  H+  H374  1  0.16806663  0.57267976  0.29459220  1
  H+  H375  1  0.42964646  0.58870633  0.25354435  1
  H+  H376  1  0.50969241  0.64258449  0.82402580  1
  H+  H377  1  0.20858462  0.60115937  0.82783881  1
  H+  H378  1  0.10464586  0.17996746  0.73372139  1
  H+  H379  1  0.91725529  0.58372249  0.22804260  1
  H+  H380  1  0.40253722  0.32275508  0.56427635  1
  H+  H381  1  0.62825170  0.07349133  0.92355712  1
  H+  H382  1  0.83906598  0.41730162  0.73039708  1
  H+  H383  1  0.33392001  0.16455486  0.43714854  1
  O2-  O384  1  0.08576140  0.16524044  0.14562968  1
  O2-  O385  1  0.08116136  0.16856298  0.47334094  1
  O2-  O386  1  0.09872622  0.18199921  0.80133334  1
  O2-  O387  1  0.09837237  0.43932162  0.13277902  1
  O2-  O388  1  0.03853908  0.38823040  0.49421984  1
  O2-  O389  1  0.01863344  0.42347703  0.80796049  1
  O2-  O390  1  0.07104062  0.67672703  0.13367190  1
  O2-  O391  1  0.07777084  0.66158415  0.48397111  1
  O2-  O392  1  0.07595468  0.66898652  0.81019303  1
  O2-  O393  1  0.08032853  0.92789316  0.14375429  1
  O2-  O394  1  0.09260018  0.92691722  0.47574586  1
  O2-  O395  1  0.06938103  0.91772991  0.80111134  1
  O2-  O396  1  0.32944635  0.16930225  0.13321647  1
  O2-  O397  1  0.33156932  0.16447530  0.48234892  1
  O2-  O398  1  0.30455416  0.17713858  0.78021912  1
  O2-  O399  1  0.33432355  0.39910495  0.15390828  1
  O2-  O400  1  0.35908514  0.42651761  0.46947161  1
  O2-  O401  1  0.34289235  0.42637282  0.82713785  1
  O2-  O402  1  0.34333630  0.68643218  0.14127167  1
  O2-  O403  1  0.37360605  0.67573548  0.46878968  1
  O2-  O404  1  0.32556030  0.65786351  0.80304978  1
  O2-  O405  1  0.31859571  0.92214655  0.13710318  1
  O2-  O406  1  0.34257184  0.89885691  0.47004455  1
  O2-  O407  1  0.39539196  1.02231602  0.81147344  1
  O2-  O408  1  0.60466311  0.18071470  0.15339501  1
  O2-  O409  1  0.57338293  0.14789537  0.53893834  1
  O2-  O410  1  0.61822219  0.20360698  0.78955413  1
  O2-  O411  1  0.59960715  0.41669369  0.14878679  1
  O2-  O412  1  0.57901542  0.40334731  0.48227564  1
  O2-  O413  1  0.57471692  0.42196645  0.82364657  1
  O2-  O414  1  0.56271341  0.64847334  0.15754931  1
  O2-  O415  1  0.58445834  0.64917908  0.47989616  1
  O2-  O416  1  0.57320002  0.67628563  0.80791081  1
  O2-  O417  1  0.58430409  0.92098683  0.13871610  1
  O2-  O418  1  0.54407360  0.88350432  0.48534754  1
  O2-  O419  1  0.58762956  0.92382032  0.80232839  1
  O2-  O420  1  0.85120427  0.18617036  0.20759150  1
  O2-  O421  1  0.81911871  0.15014664  0.46230769  1
  O2-  O422  1  0.81578755  0.15178213  0.80382385  1
  O2-  O423  1  0.82866215  0.42199055  0.14108662  1
  O2-  O424  1  0.80115906  0.41798830  0.48515022  1
  O2-  O425  1  0.86934971  0.42997987  0.80451704  1
  O2-  O426  1  0.81165273  0.66566294  0.16338525  1
  O2-  O427  1  0.83112373  0.66142341  0.48341340  1
  O2-  O428  1  0.81538984  0.64953222  0.82609033  1
  O2-  O429  1  0.82858115  0.91007512  0.14493239  1
  O2-  O430  1  0.82967140  0.91557085  0.47986675  1
  O2-  O431  1  0.82247388  0.90923886  0.80776515  1
  O2-  O432  1  0.17518366  0.08799150  0.18598729  1
  O2-  O433  1  0.16594175  0.08633019  0.51344216  1
  O2-  O434  1  0.15083953  0.08184094  0.84740547  1
  O2-  O435  1  0.17357301  0.38372565  0.21610439  1
  O2-  O436  1  0.15194890  0.33322817  0.53042777  1
  O2-  O437  1  0.19960463  0.29377176  0.87529636  1
  O2-  O438  1  0.10183717  0.57486295  0.22237967  1
  O2-  O439  1  0.20841422  0.55738839  0.50924788  1
  O2-  O440  1  0.15072348  0.57755054  0.84622463  1
  O2-  O441  1  0.15717038  0.83501194  0.18606852  1
  O2-  O442  1  0.20490172  0.79183733  0.54426096  1
  O2-  O443  1  0.14762556  0.83789541  0.84626720  1
  O2-  O444  1  0.44105044  0.10343696  0.20292072  1
  O2-  O445  1  0.40266552  0.05664653  0.51522616  1
  O2-  O446  1  0.46365301  0.19544192  0.81754166  1
  O2-  O447  1  0.42844031  0.32335561  0.18275643  1
  O2-  O448  1  0.40467608  0.32379140  0.51984743  1
  O2-  O449  1  0.41259405  0.33542913  0.88518382  1
  O2-  O450  1  0.40356919  0.57353296  0.15327513  1
  O2-  O451  1  0.42508519  0.57203208  0.51685956  1
  O2-  O452  1  0.42075481  0.59413005  0.84921342  1
  O2-  O453  1  0.41851370  0.85560480  0.17985013  1
  O2-  O454  1  0.45648168  0.83904114  0.51162788  1
  O2-  O455  1  0.42124341  0.82668695  0.84672876  1
  O2-  O456  1  0.67944101  0.08480463  0.18339320  1
  O2-  O457  1  0.65523013  0.05665288  0.51210775  1
  O2-  O458  1  0.66172008  0.09092050  0.83937219  1
  O2-  O459  1  0.68736964  0.35332500  0.19299219  1
  O2-  O460  1  0.65158809  0.32715462  0.54198463  1
  O2-  O461  1  0.69603025  0.36320121  0.85379348  1
  O2-  O462  1  0.65334715  0.57043364  0.19659152  1
  O2-  O463  1  0.66417161  0.56952694  0.52705121  1
  O2-  O464  1  0.73259282  0.59507865  0.85712381  1
  O2-  O465  1  0.59756575  0.79864216  0.20718166  1
  O2-  O466  1  0.65115368  0.81837340  0.51436231  1
  O2-  O467  1  0.66154901  0.83237845  0.84564248  1
  O2-  O468  1  0.91539164  0.08055566  0.18885474  1
  O2-  O469  1  0.91487460  0.08549256  0.51210423  1
  O2-  O470  1  0.92627974  0.06734977  0.85854823  1
  O2-  O471  1  0.91659711  0.32903325  0.14487983  1
  O2-  O472  1  0.86507226  0.30583151  0.51344410  1
  O2-  O473  1  0.93681068  0.27975754  0.87040846  1
  O2-  O474  1  0.90836649  0.58164494  0.18301456  1
  O2-  O475  1  0.91180542  0.58455086  0.52935837  1
  O2-  O476  1  0.91374583  0.58491224  0.85327463  1
  O2-  O477  1  0.91912349  0.84268061  0.18568372  1
  O2-  O478  1  0.91818072  0.83609697  0.50432831  1
  O2-  O479  1  0.90812249  0.82997014  0.84790091  1
  O2-  O480  1  0.17289672  0.08122328  0.31019604  1
  O2-  O481  1  0.16401403  0.07972520  0.63453386  1
  O2-  O482  1  0.16555845  0.08786503  0.97314906  1
  O2-  O483  1  0.04773883  0.30327126  0.30457749  1
  O2-  O484  1  0.16850752  0.34448645  0.65279840  1
  O2-  O485  1  0.15516792  0.32572602  0.98299290  1
  O2-  O486  1  0.17891031  0.58283785  0.33857944  1
  O2-  O487  1  0.20893507  0.66743898  0.61942682  1
  O2-  O488  1  0.17360746  0.60755537  0.97267493  1
  O2-  O489  1  0.16925337  0.84501308  0.30406478  1
  O2-  O490  1  0.15897826  0.83460484  0.65204561  1
  O2-  O491  1  0.15237384  0.83553710  0.97162835  1
  O2-  O492  1  0.41082598  0.07675007  0.32082146  1
  O2-  O493  1  0.40694718  0.03681318  0.63259153  1
  O2-  O494  1  0.40055077  0.07775162  1.00262712  1
  O2-  O495  1  0.43136376  0.32316226  0.30927105  1
  O2-  O496  1  0.34386610  0.28889881  0.68541890  1
  O2-  O497  1  0.40970016  0.34229837  0.95214756  1
  O2-  O498  1  0.43218362  0.59300245  0.29794955  1
  O2-  O499  1  0.41833256  0.58648337  0.64488444  1
  O2-  O500  1  0.44180454  0.61334174  0.97313723  1
  O2-  O501  1  0.40678513  0.83917147  0.30333864  1
  O2-  O502  1  0.44631455  0.84113568  0.63278550  1
  O2-  O503  1  0.44833213  0.88377133  0.96459843  1
  O2-  O504  1  0.66930618  0.08212650  0.30625828  1
  O2-  O505  1  0.66788592  0.05825208  0.63516351  1
  O2-  O506  1  0.60068167  0.05531505  0.96390375  1
  O2-  O507  1  0.69062084  0.34083083  0.30469633  1
  O2-  O508  1  0.65941576  0.33978289  0.66504399  1
  O2-  O509  1  0.73076026  0.36289609  0.99390565  1
  O2-  O510  1  0.66139304  0.56184251  0.32411224  1
  O2-  O511  1  0.65166423  0.56944392  0.65317463  1
  O2-  O512  1  0.68141673  0.59353868  0.97838124  1
  O2-  O513  1  0.66098500  0.83263948  0.36790446  1
  O2-  O514  1  0.66412244  0.82482853  0.63687617  1
  O2-  O515  1  0.67315790  0.83097295  0.96883815  1
  O2-  O516  1  0.91229249  0.06555245  0.30950045  1
  O2-  O517  1  0.95574457  0.15315177  0.62473611  1
  O2-  O518  1  0.91185975  0.07606719  0.98055224  1
  O2-  O519  1  0.91953254  0.42341887  0.31573663  1
  O2-  O520  1  0.88228809  0.31284000  0.64000751  1
  O2-  O521  1  0.91783186  0.33089289  0.98599526  1
  O2-  O522  1  0.93285172  0.57854320  0.30657378  1
  O2-  O523  1  0.91774174  0.58017244  0.65209496  1
  O2-  O524  1  0.91081779  0.56918941  0.97738348  1
  O2-  O525  1  0.92350265  0.83810037  0.31595511  1
  O2-  O526  1  0.92068036  0.86919184  0.62494776  1
  O2-  O527  1  0.92476873  0.84230950  0.97428953  1
  O2-  O528  1  0.07855708  0.16058061  0.02524452  1
  O2-  O529  1  0.07359274  0.16549192  0.33266199  1
  O2-  O530  1  0.10922790  0.18082804  0.68564135  1
  O2-  O531  1  0.07926445  0.40453232  0.01460907  1
  O2-  O532  1  0.05566499  0.43012397  0.37793214  1
  O2-  O533  1  0.03374811  0.34806541  0.70313672  1
  O2-  O534  1  0.07741360  0.66975346  0.01462820  1
  O2-  O535  1  0.09395150  0.66154962  0.35946252  1
  O2-  O536  1  0.08556694  0.67122531  0.68729273  1
  O2-  O537  1  0.08358614  0.92730241  0.01710249  1
  O2-  O538  1  0.09057775  0.91530051  0.34608648  1
  O2-  O539  1  0.07137094  0.91836440  0.67603512  1
  O2-  O540  1  0.32030360  0.16374677  0.02222207  1
  O2-  O541  1  0.33716778  0.16188682  0.35498888  1
  O2-  O542  1  0.31872693  0.11597622  0.67119546  1
  O2-  O543  1  0.31137758  0.39504047  0.02464507  1
  O2-  O544  1  0.42894999  0.45681946  0.36047361  1
  O2-  O545  1  0.32921001  0.43320916  0.70162208  1
  O2-  O546  1  0.35022519  0.69027382  0.01416247  1
  O2-  O547  1  0.35319998  0.67623186  0.34872907  1
  O2-  O548  1  0.34981363  0.68661594  0.67882655  1
  O2-  O549  1  0.31091582  0.90605876  0.01415930  1
  O2-  O550  1  0.32614129  0.91443972  0.34917329  1
  O2-  O551  1  0.31472811  0.89680225  0.70953523  1
  O2-  O552  1  0.63200482  0.20455347  0.03038836  1
  O2-  O553  1  0.60876312  0.18269930  0.33955624  1
  O2-  O554  1  0.62628803  0.19266587  0.72350805  1
  O2-  O555  1  0.64409842  0.43557245  0.02825514  1
  O2-  O556  1  0.58970192  0.39587028  0.35826227  1
  O2-  O557  1  0.56103665  0.40968138  0.70420188  1
  O2-  O558  1  0.59462368  0.67166447  0.00301512  1
  O2-  O559  1  0.59322478  0.66257456  0.35570585  1
  O2-  O560  1  0.58015258  0.66317013  0.69111104  1
  O2-  O561  1  0.59309187  0.91288311  0.01673941  1
  O2-  O562  1  0.57482640  0.92765696  0.34738203  1
  O2-  O563  1  0.58719271  0.91253691  0.67968157  1
  O2-  O564  1  0.82946340  0.15865041  0.01898596  1
  O2-  O565  1  0.83373121  0.15125874  0.33651708  1
  O2-  O566  1  0.82689419  0.15941366  0.68818802  1
  O2-  O567  1  0.82113408  0.40528982  0.01895711  1
  O2-  O568  1  0.84621228  0.36095444  0.35306086  1
  O2-  O569  1  0.82870556  0.41491235  0.68550123  1
  O2-  O570  1  0.85910091  0.68579519  0.01308587  1
  O2-  O571  1  0.80358104  0.57053474  0.38081960  1
  O2-  O572  1  0.81432473  0.63748897  0.70448128  1
  O2-  O573  1  0.82793790  0.90768821  0.01697695  1
  O2-  O574  1  0.83350069  0.90748305  0.35830824  1
  O2-  O575  1  0.82429305  0.93286692  0.68834224  1
