# generated using pymatgen
data_H2O
_symmetry_space_group_name_H-M   'P 1'
_cell_length_a   17.97963245
_cell_length_b   17.99783648
_cell_length_c   21.99496907
_cell_angle_alpha   89.98715057
_cell_angle_beta   90.01535337
_cell_angle_gamma   119.97252339
_symmetry_Int_Tables_number   1
_chemical_formula_structural   H2O
_chemical_formula_sum   'H384 O192'
_cell_volume   6165.59875252
_cell_formula_units_Z   192
loop_
 _symmetry_equiv_pos_site_id
 _symmetry_equiv_pos_as_xyz
  1  'x, y, z'
loop_
 _atom_type_symbol
 _atom_type_oxidation_number
  H+  1.0
  O2-  -2.0
loop_
 _atom_site_type_symbol
 _atom_site_label
 _atom_site_symmetry_multiplicity
 _atom_site_fract_x
 _atom_site_fract_y
 _atom_site_fract_z
 _atom_site_occupancy
  H+  H0  1  0.60191266  0.21894389  -0.00253691  1
  H+  H1  1  0.09137227  0.69162383  0.68271485  1
  H+  H2  1  0.63774126  0.36379933  0.83765625  1
  H+  H3  1  0.84911869  0.13235844  0.01261573  1
  H+  H4  1  0.48025683  0.36635793  0.83437794  1
  H+  H5  1  0.58559642  0.92787697  0.09084203  1
  H+  H6  1  0.63394430  0.59810247  0.64513859  1
  H+  H7  1  0.33304724  0.42312494  0.06392957  1
  H+  H8  1  0.63434155  0.16655984  0.32332540  1
  H+  H9  1  0.96042292  0.60649505  0.83955656  1
  H+  H10  1  0.11491471  0.23294882  0.83451958  1
  H+  H11  1  -0.02489886  0.11393806  0.84473097  1
  H+  H12  1  0.54141392  0.13513360  0.15148429  1
  H+  H13  1  0.52501334  0.88308057  0.67347759  1
  H+  H14  1  0.11493035  0.15847992  0.48741046  1
  H+  H15  1  0.11017791  -0.00107780  1.00997491  1
  H+  H16  1  0.29963860  0.52406110  0.62280577  1
  H+  H17  1  0.29334223  0.91098861  0.14592391  1
  H+  H18  1  0.73381623  0.58791810  0.99278926  1
  H+  H19  1  0.06297431  0.64768565  0.39523136  1
  H+  H20  1  0.47414458  0.16234628  0.83991750  1
  H+  H21  1  0.64684213  0.27439588  0.65351874  1
  H+  H22  1  0.85399629  0.23169314  0.49053990  1
  H+  H23  1  0.10369935  0.46602034  0.00386541  1
  H+  H24  1  0.86497739  0.12615766  0.82995683  1
  H+  H25  1  0.10288289  0.70750017  0.82929248  1
  H+  H26  1  0.63805132  0.62033390  0.32827853  1
  H+  H27  1  0.77594972  0.13359452  0.68449250  1
  H+  H28  1  0.63733948  0.35377452  0.50583698  1
  H+  H29  1  -0.03260388  0.88161105  0.00730930  1
  H+  H30  1  0.39665998  0.53037132  0.50650117  1
  H+  H31  1  0.56555065  0.67680523  0.87679396  1
  H+  H32  1  0.53354576  0.39278764  0.34133433  1
  H+  H33  1  0.40421847  0.87066919  0.00511651  1
  H+  H34  1  0.49475457  0.86481398  0.50366367  1
  H+  H35  1  0.88347700  0.02659702  0.33269765  1
  H+  H36  1  0.64257451  0.53273447  0.33121732  1
  H+  H37  1  0.73840399  0.85924162  0.49469741  1
  H+  H38  1  0.28139609  0.62941391  0.34684984  1
  H+  H39  1  0.81102544  0.18925112  0.16838366  1
  H+  H40  1  0.58933922  0.75145440  0.14606360  1
  H+  H41  1  0.06085156  0.59580485  0.33531876  1
  H+  H42  1  0.15357070  0.36740538  0.83421316  1
  H+  H43  1  0.52184823  0.38299593  0.16414238  1
  H+  H44  1  0.64084440  0.87597183  0.16584237  1
  H+  H45  1  0.10920795  0.62877453  0.49172237  1
  H+  H46  1  0.11081721  0.71725326  0.48739191  1
  H+  H47  1  0.35657777  0.63833076  0.01333942  1
  H+  H48  1  0.31999847  0.69077101  0.24278543  1
  H+  H49  1  0.89303867  0.29151927  0.31959775  1
  H+  H50  1  0.61850925  0.10633070  0.97626985  1
  H+  H51  1  -0.01586662  0.87936023  0.17671577  1
  H+  H52  1  0.61690691  0.34312108  -0.00816497  1
  H+  H53  1  0.23120994  0.61814895  0.51267849  1
  H+  H54  1  0.87502302  0.44732433  0.13275858  1
  H+  H55  1  0.15516923  0.06685202  0.44269444  1
  H+  H56  1  0.76845777  0.37716060  0.49510688  1
  H+  H57  1  0.40482034  0.85803610  0.85565818  1
  H+  H58  1  0.38493459  0.28278252  0.17832119  1
  H+  H59  1  0.90497937  0.39047309  0.83402427  1
  H+  H60  1  0.21551649  0.84320565  0.33640753  1
  H+  H61  1  0.22157617  0.85584537  0.48291103  1
  H+  H62  1  0.62532594  0.88972874  0.82373466  1
  H+  H63  1  0.69613649  0.73025373  0.04145242  1
  H+  H64  1  0.40078321  1.04514032  0.16635155  1
  H+  H65  1  0.00441211  0.85961214  0.68879676  1
  H+  H66  1  0.78106687  0.88989457  0.83115589  1
  H+  H67  1  0.93881885  0.82848634  0.50524399  1
  H+  H68  1  0.76082009  0.61643601  0.64977798  1
  H+  H69  1  0.86524001  0.33030308  0.15746093  1
  H+  H70  1  0.81489540  0.52064235  0.19047778  1
  H+  H71  1  0.23038382  0.61776110  0.84582309  1
  H+  H72  1  0.76836120  0.12467122  0.82985973  1
  H+  H73  1  0.35765707  0.23537322  0.82378181  1
  H+  H74  1  0.16458523  0.80097980  0.71048726  1
  H+  H75  1  0.36814525  0.39768643  0.16189350  1
  H+  H76  1  0.26472539  0.84901639  0.81883412  1
  H+  H77  1  0.39842494  0.12449108  0.65834210  1
  H+  H78  1  0.61779950  0.97236939  0.48373670  1
  H+  H79  1  0.64709029  1.02496843  0.83059452  1
  H+  H80  1  0.63408000  0.78594059  0.98665461  1
  H+  H81  1  0.12278038  0.48831034  0.50920892  1
  H+  H82  1  0.06400749  0.59679849  0.16169184  1
  H+  H83  1  0.12153926  0.90186171  0.16232678  1
  H+  H84  1  0.36158082  0.48411305  0.16114085  1
  H+  H85  1  0.71622641  0.87623099  0.99538429  1
  H+  H86  1  0.14119704  0.03090999  0.32956582  1
  H+  H87  1  0.37745207  0.72896209  0.83708740  1
  H+  H88  1  0.62344033  0.37725213  0.66674795  1
  H+  H89  1  0.13434964  0.60382501  0.84395751  1
  H+  H90  1  0.35935905  0.46578908  0.82226976  1
  H+  H91  1  0.06845359  0.40608481  0.09408674  1
  H+  H92  1  0.65356899  0.61693635  0.17090516  1
  H+  H93  1  0.71858745  0.85200595  0.67913476  1
  H+  H94  1  0.23296489  0.36884624  0.15425509  1
  H+  H95  1  0.61640345  0.76603694  0.69222708  1
  H+  H96  1  0.48912414  0.36139181  0.65580333  1
  H+  H97  1  0.62638248  0.86170776  0.67466224  1
  H+  H98  1  0.36854506  0.38097681  0.82358278  1
  H+  H99  1  0.11037664  0.70580099  0.00529490  1
  H+  H100  1  0.77456883  0.89067095  0.33706124  1
  H+  H101  1  0.17452447  0.79953029  0.17283019  1
  H+  H102  1  0.23086480  0.36369898  0.66313142  1
  H+  H103  1  0.58693634  0.88122543  0.99326429  1
  H+  H104  1  0.84987265  0.70702870  0.67166950  1
  H+  H105  1  0.39288836  1.02711355  0.51002568  1
  H+  H106  1  0.16526160  0.06415115  0.71897429  1
  H+  H107  1  0.14436360  0.29086804  0.50933186  1
  H+  H108  1  0.37535134  0.11049498  0.50819899  1
  H+  H109  1  0.47884330  0.60944207  0.98384892  1
  H+  H110  1  0.98961779  0.15369523  0.52011832  1
  H+  H111  1  0.61875555  0.46388277  0.66299729  1
  H+  H112  1  0.86117653  0.14926584  0.49167677  1
  H+  H113  1  0.91576084  0.57941659  0.17074863  1
  H+  H114  1  0.86327083  0.89296137  0.16209240  1
  H+  H115  1  0.52826330  0.63775243  0.71190615  1
  H+  H116  1  0.89678094  0.07356821  0.93810513  1
  H+  H117  1  0.34636519  0.72588667  0.17785473  1
  H+  H118  1  0.17738034  0.81469190  0.89791953  1
  H+  H119  1  0.42550568  0.33356202  0.56267956  1
  H+  H120  1  0.87670666  0.36907951  -0.00823546  1
  H+  H121  1  0.10535428  0.88070981  0.33892650  1
  H+  H122  1  -0.12184780  0.77999406  0.74140192  1
  H+  H123  1  0.08966259  0.22685037  1.00674243  1
  H+  H124  1  0.11133881  0.37846454  0.37140243  1
  H+  H125  1  0.46572342  0.11845818  0.83061494  1
  H+  H126  1  0.21291613  0.60813417  0.66868455  1
  H+  H127  1  0.62724947  0.10054072  0.48570366  1
  H+  H128  1  0.07860957  0.44882561  0.35939045  1
  H+  H129  1  0.86463462  0.83854749  0.69258893  1
  H+  H130  1  0.39962056  0.36352623  0.65758106  1
  H+  H131  1  0.37902760  0.23450832  0.66552024  1
  H+  H132  1  0.97513207  0.35470071  0.99466036  1
  H+  H133  1  0.85409683  -0.05070219  0.48808489  1
  H+  H134  1  0.23079735  0.35070337  0.84071538  1
  H+  H135  1  0.38763118  0.85833523  0.32932763  1
  H+  H136  1  0.63748653  0.23975339  0.81603583  1
  H+  H137  1  0.66450114  0.83505009  0.26262302  1
  H+  H138  1  0.16775736  0.91493578  0.63828778  1
  H+  H139  1  0.96155109  0.59901603  0.65530497  1
  H+  H140  1  -0.04632166  0.10886311  -0.00184013  1
  H+  H141  1  0.01119257  0.38068279  0.67393113  1
  H+  H142  1  0.85553459  0.45495409  0.67110765  1
  H+  H143  1  0.95362629  0.19234739  0.56771889  1
  H+  H144  1  0.33486180  0.96192822  0.34272468  1
  H+  H145  1  0.60680177  0.47395675  0.15951866  1
  H+  H146  1  0.04690240  0.67485911  0.15535393  1
  H+  H147  1  0.86573604  0.46807354  0.98881967  1
  H+  H148  1  0.08958322  0.89905885  0.01226777  1
  H+  H149  1  0.42660704  0.92491197  0.48858035  1
  H+  H150  1  0.39789562  0.78512563  0.50586752  1
  H+  H151  1  0.10158446  0.37943509  0.15235681  1
  H+  H152  1  0.61522150  0.47517558  0.49027204  1
  H+  H153  1  0.47010931  0.36566408  0.98884491  1
  H+  H154  1  0.38481462  0.37243014  0.98542069  1
  H+  H155  1  0.60746694  0.46049953  0.00851665  1
  H+  H156  1  0.36812683  0.64221315  0.50047044  1
  H+  H157  1  0.33963151  0.91567579  0.72624081  1
  H+  H158  1  0.29580021  0.15370208  0.47243192  1
  H+  H159  1  0.36162924  0.05477179  0.87454930  1
  H+  H160  1  0.53853012  0.16262678  0.31925682  1
  H+  H161  1  0.52750808  0.38594964  0.49105188  1
  H+  H162  1  0.71798424  0.10676810  0.49123549  1
  H+  H163  1  0.88014940  0.60797132  0.49963486  1
  H+  H164  1  0.12700889  0.51248337  0.66165432  1
  H+  H165  1  0.29705409  0.92053866  0.66253947  1
  H+  H166  1  0.14386216  0.48252959  0.82176118  1
  H+  H167  1  0.46977703  0.60389081  0.83500690  1
  H+  H168  1  0.11059979  0.14204466  0.83357359  1
  H+  H169  1  0.12604346  0.96236901  0.83517805  1
  H+  H170  1  0.09001241  0.60453758  0.67550165  1
  H+  H171  1  0.34924257  0.91612848  0.08689915  1
  H+  H172  1  0.65080456  0.03867866  0.31675301  1
  H+  H173  1  0.87135203  0.35643657  0.67255073  1
  H+  H174  1  0.36625494  0.15096272  0.16579603  1
  H+  H175  1  -0.04667107  0.33098132  0.16338733  1
  H+  H176  1  0.30314074  0.80219562  0.78220579  1
  H+  H177  1  0.72091498  0.60774181  0.49615486  1
  H+  H178  1  0.18916249  0.59711714  0.19140755  1
  H+  H179  1  0.13008184  0.84715372  0.49369050  1
  H+  H180  1  0.85492545  0.83788100  0.49752597  1
  H+  H181  1  0.88570655  0.87414897  0.32808355  1
  H+  H182  1  0.77690525  0.65346135  0.82118642  1
  H+  H183  1  0.48420152  0.62114313  0.50875703  1
  H+  H184  1  0.86550227  0.22558464  0.68602791  1
  H+  H185  1  0.12805595  0.26878077  0.34345862  1
  H+  H186  1  0.12149539  0.59178124  0.99299381  1
  H+  H187  1  0.39700889  0.87199744  0.65628279  1
  H+  H188  1  0.89495271  0.56629099  0.92743262  1
  H+  H189  1  0.36039126  0.46639451  0.67261211  1
  H+  H190  1  0.66415284  0.40649446  0.17596312  1
  H+  H191  1  0.21997816  0.10946974  0.00303227  1
  H+  H192  1  0.77745461  0.38916540  0.14877062  1
  H+  H193  1  0.64365637  0.15336928  0.81301016  1
  H+  H194  1  0.85071048  0.38601124  0.33526665  1
  H+  H195  1  0.01955612  0.88777244  0.33767022  1
  H+  H196  1  0.01622777  0.13708731  0.33996028  1
  H+  H197  1  0.58749465  0.15795697  0.05680832  1
  H+  H198  1  0.60380633  1.01180124  -0.02739059  1
  H+  H199  1  0.72232870  0.86254977  0.16853702  1
  H+  H200  1  0.35213736  0.13242355  0.01990124  1
  H+  H201  1  0.70348179  0.38667484  0.23469054  1
  H+  H202  1  0.05880882  0.16355053  0.06400479  1
  H+  H203  1  0.88767939  0.11935095  0.33003852  1
  H+  H204  1  0.63833578  0.86778019  0.32187411  1
  H+  H205  1  0.98184309  0.86427251  0.85585192  1
  H+  H206  1  0.35765422  0.47955118  1.00355957  1
  H+  H207  1  0.22090996  0.36229341  -0.00533977  1
  H+  H208  1  0.86001625  0.09850126  0.18059506  1
  H+  H209  1  0.10343010  0.38345440  0.66846041  1
  H+  H210  1  0.18418074  0.79071724  0.68364076  1
  H+  H211  1  0.39560162  0.86799508  0.15398260  1
  H+  H212  1  0.67668488  0.83383699  0.55708943  1
  H+  H213  1  0.13846172  0.84670401  0.84412089  1
  H+  H214  1  0.07109005  0.82918176  0.69448210  1
  H+  H215  1  0.39512318  0.77517007  0.33585702  1
  H+  H216  1  0.39832095  0.14735276  0.32720688  1
  H+  H217  1  0.10865058  0.14000595  0.34237731  1
  H+  H218  1  0.84878891  0.47472788  0.81535922  1
  H+  H219  1  0.88925388  1.02129661  0.83983188  1
  H+  H220  1  0.95806244  0.59409424  0.98437164  1
  H+  H221  1  0.25928174  0.83307925  0.98802578  1
  H+  H222  1  0.87087539  0.88978468  0.83353439  1
  H+  H223  1  0.97017304  0.36235730  0.51884136  1
  H+  H224  1  0.76984291  0.65095410  0.33375665  1
  H+  H225  1  0.13965491  1.03534361  0.18026029  1
  H+  H226  1  0.13878674  0.27861551  0.66377398  1
  H+  H227  1  0.37137545  0.39057178  0.49800662  1
  H+  H228  1  0.18501367  0.85236661  0.99571533  1
  H+  H229  1  0.65066976  0.78097672  0.84314179  1
  H+  H230  1  0.27445738  0.14783702  0.17139994  1
  H+  H231  1  0.64978290  0.02479581  0.66819214  1
  H+  H232  1  0.63281238  0.99099205  0.14819816  1
  H+  H233  1  0.41690616  0.58102885  0.27082397  1
  H+  H234  1  0.06504491  0.92253905  0.49617491  1
  H+  H235  1  0.87315817  0.64602436  0.32662251  1
  H+  H236  1  0.85580766  0.97770325  0.16396139  1
  H+  H237  1  0.88174446  0.26562139  0.99988041  1
  H+  H238  1  0.72803015  0.36649988  0.83658666  1
  H+  H239  1  0.96433820  0.62742109  0.32428407  1
  H+  H240  1  0.74326497  0.38153056  0.33829523  1
  H+  H241  1  0.10595265  0.37745372  1.00437284  1
  H+  H242  1  0.78584082  0.15228177  0.33165194  1
  H+  H243  1  0.23856614  0.10276857  0.84062923  1
  H+  H244  1  0.53512254  0.88689867  0.83027004  1
  H+  H245  1  0.88146102  0.36160913  0.51249571  1
  H+  H246  1  0.61946003  0.73038734  0.49280852  1
  H+  H247  1  0.61622218  0.73273557  0.33629179  1
  H+  H248  1  0.63879722  0.61996463  0.84524754  1
  H+  H249  1  0.30354540  0.14338221  0.33441447  1
  H+  H250  1  0.11610945  0.15096219  0.68138874  1
  H+  H251  1  0.89510900  0.75492797  0.04445398  1
  H+  H252  1  0.65783883  0.60741950  0.99865636  1
  H+  H253  1  0.86151548  0.74566339  0.33481776  1
  H+  H254  1  0.45072374  0.83875317  0.91295624  1
  H+  H255  1  0.86850509  0.09166603  0.67221876  1
  H+  H256  1  0.23608718  0.03473015  0.88503593  1
  H+  H257  1  0.28138222  0.38539825  0.35061130  1
  H+  H258  1  1.01100400  0.13530189  0.16322206  1
  H+  H259  1  0.87881398  0.61992590  0.83419453  1
  H+  H260  1  0.38275973  0.60774697  0.83617188  1
  H+  H261  1  0.64282399  0.28224382  0.32626985  1
  H+  H262  1  0.28931900  0.14458157  0.67139781  1
  H+  H263  1  0.38233625  0.94871027  -0.00140771  1
  H+  H264  1  0.84807914  0.65505846  0.14452362  1
  H+  H265  1  0.54113228  0.14306984  0.66619420  1
  H+  H266  1  0.84374201  0.71229367  0.49258656  1
  H+  H267  1  0.80914095  0.15467907  0.06978186  1
  H+  H268  1  0.84574138  0.97422878  0.00915760  1
  H+  H269  1  0.39879923  0.36520510  0.33466574  1
  H+  H270  1  0.86461908  0.73842185  0.83710441  1
  H+  H271  1  0.45739472  0.62585880  0.17090456  1
  H+  H272  1  0.85610297  0.46913127  0.49402957  1
  H+  H273  1  0.43832934  0.05995847  0.30669233  1
  H+  H274  1  0.40132082  0.03477936  0.66025382  1
  H+  H275  1  0.62190154  0.88359745  0.48594653  1
  H+  H276  1  0.39297802  0.52093166  0.33079787  1
  H+  H277  1  0.40574543  0.27932990  0.32890256  1
  H+  H278  1  0.08549726  0.51949989  0.26713296  1
  H+  H279  1  0.65193476  0.11442593  0.66235001  1
  H+  H280  1  0.89562647  0.79230154  0.16744960  1
  H+  H281  1  0.10107675  0.22180505  0.15255218  1
  H+  H282  1  0.84154319  0.95594671  0.67576701  1
  H+  H283  1  0.73912841  0.36231713  0.65944071  1
  H+  H284  1  0.86203096  0.61419583  0.65133251  1
  H+  H285  1  0.39693223  0.04974566  1.05275195  1
  H+  H286  1  0.12515637  0.39660326  0.51190537  1
  H+  H287  1  0.28399298  0.39527274  0.50048639  1
  H+  H288  1  0.90385372  0.32187621  0.61447457  1
  H+  H289  1  0.66874955  0.32521497  0.56487000  1
  H+  H290  1  0.11017883  0.50452568  0.17069997  1
  H+  H291  1  0.08109704  0.90097112  0.77697914  1
  H+  H292  1  0.08562132  0.41797082  0.44048318  1
  H+  H293  1  -0.00060274  0.44844352  0.30007708  1
  H+  H294  1  0.16478549  0.33164752  0.93380628  1
  H+  H295  1  0.58484554  0.67096801  0.43329538  1
  H+  H296  1  0.42154342  0.34425240  0.23638910  1
  H+  H297  1  0.58336397  0.16952567  0.41856878  1
  H+  H298  1  0.63318519  0.61410427  0.49789964  1
  H+  H299  1  0.33865798  0.67658373  0.77413586  1
  H+  H300  1  0.17672253  0.32438351  0.21073166  1
  H+  H301  1  0.58847979  0.41713366  0.76202618  1
  H+  H302  1  0.89911972  0.33026961  0.25411313  1
  H+  H303  1  0.12668064  0.75756310  0.32429135  1
  H+  H304  1  0.89884661  0.06711741  0.61207212  1
  H+  H305  1  0.67249341  0.57791657  0.89395453  1
  H+  H306  1  0.51140992  0.72631686  0.10127314  1
  H+  H307  1  0.33629797  0.66778902  0.44132045  1
  H+  H308  1  0.91847854  0.84000933  0.91405519  1
  H+  H309  1  0.43860131  0.10932575  0.22432869  1
  H+  H310  1  0.33842183  0.40770214  0.73260646  1
  H+  H311  1  0.35792154  0.93179834  0.40310966  1
  H+  H312  1  0.56934256  0.68853211  0.77517460  1
  H+  H313  1  0.34705397  0.03734633  0.94367982  1
  H+  H314  1  0.82262029  0.40821451  0.75774225  1
  H+  H315  1  0.33714307  0.17767341  0.76402226  1
  H+  H316  1  0.17558856  0.34239217  0.57345882  1
  H+  H317  1  0.68853378  0.09394902  0.25554704  1
  H+  H318  1  0.36681318  0.17540842  0.42241686  1
  H+  H319  1  0.39987669  0.07827732  0.58166481  1
  H+  H320  1  0.47817575  0.85938888  0.15637176  1
  H+  H321  1  0.59702759  0.20592836  0.48540345  1
  H+  H322  1  0.05755823  0.64031348  0.05910856  1
  H+  H323  1  0.26435624  0.62314623  0.01793572  1
  H+  H324  1  0.32195493  0.16617046  0.07575686  1
  H+  H325  1  0.42753270  0.83863304  0.59925660  1
  H+  H326  1  0.34776385  0.63863828  0.67561581  1
  H+  H327  1  0.39194373  0.57616930  0.59573440  1
  H+  H328  1  0.16886554  0.09450593  0.27357660  1
  H+  H329  1  0.07584798  0.18343301  0.43343474  1
  H+  H330  1  0.53186158  0.89517525  0.33411784  1
  H+  H331  1  0.83580322  0.16115020  0.76597174  1
  H+  H332  1  0.52839177  0.64164455  0.33879398  1
  H+  H333  1  0.39912435  0.27823250  0.50048717  1
  H+  H334  1  0.66500997  0.58185716  0.23384011  1
  H+  H335  1  0.91639159  0.84424543  0.26758347  1
  H+  H336  1  0.36749351  0.61422145  0.19151998  1
  H+  H337  1  0.82438668  0.39702032  0.04615589  1
  H+  H338  1  0.06450156  0.63910778  0.77431335  1
  H+  H339  1  0.58281569  0.91126492  0.73574873  1
  H+  H340  1  0.34436369  0.41977635  0.40693178  1
  H+  H341  1  0.47826318  0.10680985  1.00911071  1
  H+  H342  1  0.64255105  0.37912498  0.33414143  1
  H+  H343  1  0.82716216  0.90982888  0.40090249  1
  H+  H344  1  0.42067816  0.34207943  0.89540688  1
  H+  H345  1  0.61591318  0.48107849  0.81947965  1
  H+  H346  1  0.59274796  0.92208254  0.39184368  1
  H+  H347  1  0.41564954  0.57997658  0.92728196  1
  H+  H348  1  0.66126257  0.57505452  0.58113738  1
  H+  H349  1  0.93303455  0.35493354  0.88821554  1
  H+  H350  1  0.16498976  0.06702051  0.51371580  1
  H+  H351  1  0.08488669  0.18150188  0.73767784  1
  H+  H352  1  0.60678501  0.17753318  0.72355175  1
  H+  H353  1  0.37007583  0.62957943  0.34469124  1
  H+  H354  1  0.82555714  0.65962477  0.43011576  1
  H+  H355  1  0.65450559  0.32163867  0.93258399  1
  H+  H356  1  0.91052011  0.57819696  0.58921363  1
  H+  H357  1  0.48017286  1.02086296  0.46051871  1
  H+  H358  1  0.06174723  0.88861147  0.42845367  1
  H+  H359  1  0.10838930  0.42440754  0.76255280  1
  H+  H360  1  0.60073399  0.68699388  0.06405727  1
  H+  H361  1  0.16090889  0.56901084  0.93571615  1
  H+  H362  1  0.82688221  0.41045329  0.40196820  1
  H+  H363  1  0.18155029  0.84363236  0.23568327  1
  H+  H364  1  0.14091484  0.03320496  0.65286159  1
  H+  H365  1  0.08595625  0.93332486  0.10622358  1
  H+  H366  1  0.62852779  0.12971953  0.14886298  1
  H+  H367  1  0.66585577  0.08128213  0.89218257  1
  H+  H368  1  0.59131373  0.42055821  0.40223094  1
  H+  H369  1  0.15357156  0.34591093  0.29677767  1
  H+  H370  1  0.13223612  0.11969188  0.17885282  1
  H+  H371  1  0.90528851  0.08166764  0.23744995  1
  H+  H372  1  0.67673851  0.85004363  0.89682865  1
  H+  H373  1  0.57255150  0.40292384  0.06800001  1
  H+  H374  1  0.16984694  0.07477113  0.93991470  1
  H+  H375  1  0.87110605  0.86430991  1.00391553  1
  H+  H376  1  0.16783301  0.58777365  0.57160130  1
  H+  H377  1  0.35876053  0.73215955  0.67510658  1
  H+  H378  1  0.20458762  0.88964863  0.58210282  1
  H+  H379  1  0.97085160  0.60857002  0.50043489  1
  H+  H380  1  0.89710424  0.60061505  0.26288242  1
  H+  H381  1  0.84011110  0.18151422  0.39345629  1
  H+  H382  1  0.81713336  0.91625086  0.07004208  1
  H+  H383  1  0.82207294  0.90590507  0.73978143  1
  O2-  O384  1  0.07038015  0.15877933  0.14711657  1
  O2-  O385  1  0.08368052  0.18934486  0.47868866  1
  O2-  O386  1  0.08001143  0.17055943  0.81899300  1
  O2-  O387  1  0.06559012  0.40442180  0.14036247  1
  O2-  O388  1  0.09088293  0.42483274  0.49670951  1
  O2-  O389  1  0.14777220  0.43837510  0.79732936  1
  O2-  O390  1  0.02477682  0.61552585  0.14275243  1
  O2-  O391  1  0.07780216  0.65637462  0.47391554  1
  O2-  O392  1  0.06873909  0.64511761  0.81914333  1
  O2-  O393  1  0.08925877  0.93130589  0.15193769  1
  O2-  O394  1  0.05590926  0.87239879  0.47321393  1
  O2-  O395  1  0.08510467  0.90116594  0.82176708  1
  O2-  O396  1  0.33384790  0.18109529  0.15478596  1
  O2-  O397  1  0.35807918  0.17535775  0.46832292  1
  O2-  O398  1  0.31915087  0.17701658  0.80639416  1
  O2-  O399  1  0.33619192  0.42503723  0.14395035  1
  O2-  O400  1  0.34335178  0.42371090  0.48351040  1
  O2-  O401  1  0.33283543  0.40607396  0.80662449  1
  O2-  O402  1  0.31033605  0.67017873  0.20088372  1
  O2-  O403  1  0.33528315  0.67065155  0.48649484  1
  O2-  O404  1  0.33957798  0.67085092  0.81918918  1
  O2-  O405  1  0.35187076  0.93929423  0.12913089  1
  O2-  O406  1  0.42154132  0.97278654  0.46789993  1
  O2-  O407  1  0.31820759  0.85915638  0.79695329  1
  O2-  O408  1  0.59747499  0.15749716  0.13109133  1
  O2-  O409  1  0.56917863  0.15159773  0.46178278  1
  O2-  O410  1  0.61866974  0.18515466  0.79322879  1
  O2-  O411  1  0.58138816  0.41260137  0.14689425  1
  O2-  O412  1  0.58841916  0.41409411  0.47656770  1
  O2-  O413  1  0.58517424  0.41945846  0.80712003  1
  O2-  O414  1  0.54318991  0.70201213  0.12109313  1
  O2-  O415  1  0.58475891  0.66822491  0.47869816  1
  O2-  O416  1  0.59316721  0.67892294  0.83820781  1
  O2-  O417  1  0.59549074  0.92875546  0.13509813  1
  O2-  O418  1  0.58720034  0.90931571  0.47080948  1
  O2-  O419  1  0.59179510  0.91711779  0.80854633  1
  O2-  O420  1  0.78332120  0.12882526  0.15412222  1
  O2-  O421  1  0.82949834  0.17398271  0.47095814  1
  O2-  O422  1  0.83319408  0.15631833  0.81439331  1
  O2-  O423  1  0.82600042  0.39076304  0.12446188  1
  O2-  O424  1  0.82940604  0.40888134  0.47909258  1
  O2-  O425  1  0.82232259  0.41335608  0.80453730  1
  O2-  O426  1  0.84519374  0.70173655  0.12238423  1
  O2-  O427  1  0.82177592  0.65119148  0.47466254  1
  O2-  O428  1  0.83837479  0.68886300  0.80850105  1
  O2-  O429  1  0.82777424  0.91783825  0.14729724  1
  O2-  O430  1  0.81971041  0.89293395  0.46962582  1
  O2-  O431  1  0.84147845  0.91857699  0.81417010  1
  O2-  O432  1  0.16665312  0.09509020  0.19661117  1
  O2-  O433  1  0.17920515  0.10423843  0.47818728  1
  O2-  O434  1  0.19600532  0.05218488  0.86636686  1
  O2-  O435  1  0.17064825  0.33451015  0.16814706  1
  O2-  O436  1  0.17701832  0.34973048  0.52721394  1
  O2-  O437  1  0.17059574  0.32733938  0.85555664  1
  O2-  O438  1  0.12583792  0.55907118  0.19359878  1
  O2-  O439  1  0.16924364  0.58637257  0.52585285  1
  O2-  O440  1  0.17041377  0.58058673  0.85999929  1
  O2-  O441  1  0.18769498  0.85418867  0.19077242  1
  O2-  O442  1  0.17096153  0.82837885  0.50895698  1
  O2-  O443  1  0.16804766  0.81331982  0.85313862  1
  O2-  O444  1  0.42999482  0.10613036  0.17852569  1
  O2-  O445  1  0.37352824  0.06260595  0.53415225  1
  O2-  O446  1  0.31773050  0.01786374  0.90383695  1
  O2-  O447  1  0.41798231  0.34484546  0.19115518  1
  O2-  O448  1  0.42387464  0.33742079  0.51710375  1
  O2-  O449  1  0.41949016  0.33736620  0.84887507  1
  O2-  O450  1  0.40427528  0.58696455  0.19384091  1
  O2-  O451  1  0.42263480  0.59011965  0.52282912  1
  O2-  O452  1  0.40956127  0.57293698  0.84948290  1
  O2-  O453  1  0.41501248  0.82605655  0.15923899  1
  O2-  O454  1  0.43471167  0.84505713  0.52040071  1
  O2-  O455  1  0.43993556  0.83222331  0.86684362  1
  O2-  O456  1  0.69327348  0.08867565  0.17870891  1
  O2-  O457  1  0.65631520  0.06970732  0.50092731  1
  O2-  O458  1  0.68017800  0.08494718  0.84611626  1
  O2-  O459  1  0.71903288  0.41370262  0.19409675  1
  O2-  O460  1  0.66507381  0.32050853  0.51880930  1
  O2-  O461  1  0.66757012  0.33401077  0.85364327  1
  O2-  O462  1  0.66594528  0.57494079  0.18892680  1
  O2-  O463  1  0.66020753  0.57952166  0.51235106  1
  O2-  O464  1  0.67021746  0.58625371  0.84972801  1
  O2-  O465  1  0.66074876  0.83615822  0.18158292  1
  O2-  O466  1  0.67251618  0.83006219  0.51287109  1
  O2-  O467  1  0.68116424  0.84585514  0.85179001  1
  O2-  O468  1  0.90224345  0.08042429  0.19201196  1
  O2-  O469  1  0.93672183  0.14131907  0.54302953  1
  O2-  O470  1  0.91309392  0.08084390  0.85652074  1
  O2-  O471  1  0.89359160  0.30278235  0.17960187  1
  O2-  O472  1  0.90867460  0.32855635  0.52859136  1
  O2-  O473  1  0.95406281  0.38575002  0.84977026  1
  O2-  O474  1  0.86710911  0.57888944  0.19247980  1
  O2-  O475  1  0.91090280  0.57837716  0.51636066  1
  O2-  O476  1  0.89866592  0.58101162  0.85029212  1
  O2-  O477  1  0.92267398  0.84798497  0.19012989  1
  O2-  O478  1  0.87861563  0.80167255  0.51768989  1
  O2-  O479  1  0.92091438  0.84015063  0.86851121  1
  O2-  O480  1  0.17084394  0.09274212  0.31943194  1
  O2-  O481  1  0.17332257  0.08502903  0.67718398  1
  O2-  O482  1  0.16066458  0.07945933  0.98384202  1
  O2-  O483  1  0.16142565  0.33450148  0.33887724  1
  O2-  O484  1  0.17167530  0.33904768  0.64603130  1
  O2-  O485  1  0.16053299  0.33185749  0.97917498  1
  O2-  O486  1  0.05619392  0.50140061  0.30763992  1
  O2-  O487  1  0.15601946  0.57563090  0.64828485  1
  O2-  O488  1  0.15464831  0.56347147  0.98110839  1
  O2-  O489  1  0.16032278  0.81972351  0.31423050  1
  O2-  O490  1  0.22141750  0.92794904  0.61789672  1
  O2-  O491  1  0.19655010  0.81028427  0.97672650  1
  O2-  O492  1  0.45398936  0.11909837  0.29839282  1
  O2-  O493  1  0.42545089  0.09195986  0.63888600  1
  O2-  O494  1  0.41101181  0.06790723  1.01043372  1
  O2-  O495  1  0.43258390  0.34095398  0.31602984  1
  O2-  O496  1  0.42821593  0.33303901  0.63966497  1
  O2-  O497  1  0.41627085  0.34693596  0.96565943  1
  O2-  O498  1  0.42007447  0.58172581  0.31643317  1
  O2-  O499  1  0.35941880  0.55904028  0.63547025  1
  O2-  O500  1  0.41848499  0.58282687  0.97279885  1
  O2-  O501  1  0.42206158  0.83237197  0.31683440  1
  O2-  O502  1  0.42289393  0.83613595  0.64473926  1
  O2-  O503  1  0.46452561  0.84285971  0.98623986  1
  O2-  O504  1  0.68338516  0.09854309  0.30119615  1
  O2-  O505  1  0.68631959  0.08525306  0.65648651  1
  O2-  O506  1  0.64173645  0.07090993  0.95820304  1
  O2-  O507  1  0.67649616  0.35139719  0.31735753  1
  O2-  O508  1  0.67626648  0.33588635  0.64005925  1
  O2-  O509  1  0.64649263  0.31243827  0.97730812  1
  O2-  O510  1  0.67101420  0.59191038  0.31360945  1
  O2-  O511  1  0.66489180  0.57150110  0.62803957  1
  O2-  O512  1  0.67484853  0.56793742  0.97999430  1
  O2-  O513  1  0.66622480  0.83419300  0.30791872  1
  O2-  O514  1  0.65401115  0.82174357  0.66608877  1
  O2-  O515  1  0.65806533  0.84639406  0.97470100  1
  O2-  O516  1  0.91678714  0.08681584  0.31636451  1
  O2-  O517  1  0.88220343  0.04899626  0.65441089  1
  O2-  O518  1  0.89207998  0.07108755  0.98306967  1
  O2-  O519  1  0.90784873  0.34649924  0.29838239  1
  O2-  O520  1  0.90815098  0.32537091  0.65925116  1
  O2-  O521  1  0.91337149  0.32501681  0.98010256  1
  O2-  O522  1  0.90452771  0.60966457  0.30861191  1
  O2-  O523  1  0.90408240  0.57687313  0.63527052  1
  O2-  O524  1  0.89712120  0.55841465  0.97237022  1
  O2-  O525  1  0.91643910  0.84267181  0.31327839  1
  O2-  O526  1  0.89427923  0.80412887  0.69980407  1
  O2-  O527  1  0.90795023  0.83886841  0.99319096  1
  O2-  O528  1  0.04754208  0.16818497  0.02072358  1
  O2-  O529  1  0.07731237  0.16985056  0.35652562  1
  O2-  O530  1  0.08908903  0.18476118  0.69258860  1
  O2-  O531  1  0.07278758  0.40500616  0.02032333  1
  O2-  O532  1  0.07675708  0.40406843  0.38816478  1
  O2-  O533  1  0.07542466  0.41596645  0.68226175  1
  O2-  O534  1  0.06697834  0.64552128  0.01476087  1
  O2-  O535  1  0.05681378  0.64635393  0.34983612  1
  O2-  O536  1  0.05482397  0.63044542  0.69146716  1
  O2-  O537  1  0.07096726  0.93603224  0.03093450  1
  O2-  O538  1  0.07889483  0.91321814  0.35592965  1
  O2-  O539  1  0.06789704  0.88171191  0.69189006  1
  O2-  O540  1  0.31414675  0.15458311  0.03138460  1
  O2-  O541  1  0.36353142  0.17360847  0.34869577  1
  O2-  O542  1  0.35116566  0.17353865  0.68136468  1
  O2-  O543  1  0.32665904  0.41951558  0.01897077  1
  O2-  O544  1  0.34299153  0.41691184  0.36118157  1
  O2-  O545  1  0.33898998  0.40680505  0.68633914  1
  O2-  O546  1  0.32006212  0.65100654  0.03923400  1
  O2-  O547  1  0.34052890  0.66100513  0.36113280  1
  O2-  O548  1  0.32546251  0.67407810  0.69419790  1
  O2-  O549  1  0.35752315  0.88962445  0.01412544  1
  O2-  O550  1  0.32429436  0.91025279  0.36441205  1
  O2-  O551  1  0.35211639  0.93317887  0.68270445  1
  O2-  O552  1  0.57360625  0.15606111  0.01211892  1
  O2-  O553  1  0.60359306  0.19587059  0.33864062  1
  O2-  O554  1  0.60221666  0.17185099  0.67704863  1
  O2-  O555  1  0.57027231  0.40086408  0.02264273  1
  O2-  O556  1  0.59469624  0.42580572  0.35631334  1
  O2-  O557  1  0.58938562  0.40604146  0.68122558  1
  O2-  O558  1  0.63735801  0.69074251  0.02833435  1
  O2-  O559  1  0.58888672  0.67288597  0.35354249  1
  O2-  O560  1  0.55471062  0.69466065  0.73000216  1
  O2-  O561  1  0.55185630  0.90697665  0.00748766  1
  O2-  O562  1  0.59362163  0.92678533  0.34646906  1
  O2-  O563  1  0.58519102  0.90899081  0.68963397  1
  O2-  O564  1  0.83271351  0.17378443  0.02876452  1
  O2-  O565  1  0.84612987  0.18398720  0.34804097  1
  O2-  O566  1  0.83803196  0.16423820  0.70108794  1
  O2-  O567  1  0.83972105  0.40373281  0.00225036  1
  O2-  O568  1  0.82181630  0.41412432  0.35655248  1
  O2-  O569  1  0.82371158  0.39676593  0.68729060  1
  O2-  O570  1  0.90209868  0.71309209  0.07058590  1
  O2-  O571  1  0.83220892  0.68257829  0.34817351  1
  O2-  O572  1  0.82157981  0.64281739  0.66646701  1
  O2-  O573  1  0.81285406  0.91261205  0.02452539  1
  O2-  O574  1  0.83393883  0.92040031  0.35400481  1
  O2-  O575  1  0.81272033  0.89521904  0.69462416  1
