# generated using pymatgen
data_H2O
_symmetry_space_group_name_H-M   'P 1'
_cell_length_a   17.99784766
_cell_length_b   17.99304943
_cell_length_c   22.00876388
_cell_angle_alpha   90.03211905
_cell_angle_beta   89.98404182
_cell_angle_gamma   120.01374448
_symmetry_Int_Tables_number   1
_chemical_formula_structural   H2O
_chemical_formula_sum   'H384 O192'
_cell_volume   6171.50937742
_cell_formula_units_Z   192
loop_
 _symmetry_equiv_pos_site_id
 _symmetry_equiv_pos_as_xyz
  1  'x, y, z'
loop_
 _atom_type_symbol
 _atom_type_oxidation_number
  H+  1.0
  O2-  -2.0
loop_
 _atom_site_type_symbol
 _atom_site_label
 _atom_site_symmetry_multiplicity
 _atom_site_fract_x
 _atom_site_fract_y
 _atom_site_fract_z
 _atom_site_occupancy
  H+  H0  1  0.40403758  0.58184315  0.59371128  1
  H+  H1  1  0.96856659  0.09385877  0.50662775  1
  H+  H2  1  0.12393618  0.23163891  0.16132533  1
  H+  H3  1  0.87061670  0.38750000  0.67164154  1
  H+  H4  1  0.85840011  0.88091499  0.46845410  1
  H+  H5  1  0.87316281  0.12746607  0.49161558  1
  H+  H6  1  0.46882991  0.85396863  0.84447739  1
  H+  H7  1  0.12998897  0.53069003  0.51016489  1
  H+  H8  1  0.86202677  0.48805439  0.47191733  1
  H+  H9  1  -0.00927107  0.84470998  0.02429743  1
  H+  H10  1  0.46467737  0.64023531  0.97803631  1
  H+  H11  1  0.11665878  0.11180063  0.50658998  1
  H+  H12  1  0.39073327  0.76195235  0.52531752  1
  H+  H13  1  0.63839849  0.61191697  0.17783951  1
  H+  H14  1  0.03314846  0.14281581  0.15160443  1
  H+  H15  1  0.39183117  0.86702765  0.16658455  1
  H+  H16  1  0.87651318  0.94063585  0.01358657  1
  H+  H17  1  0.39048306  0.11181745  0.99519076  1
  H+  H18  1  0.35180227  0.63388775  0.67117348  1
  H+  H19  1  0.40262843  0.82123767  0.89899475  1
  H+  H20  1  0.34404102  0.42369027  0.39544974  1
  H+  H21  1  0.12023398  0.45386106  0.66504762  1
  H+  H22  1  0.22255880  0.36312747  0.34015820  1
  H+  H23  1  0.12927358  0.25527474  0.63874964  1
  H+  H24  1  0.73212473  0.86614173  1.00336737  1
  H+  H25  1  0.71965233  0.86823726  0.32574430  1
  H+  H26  1  0.87439047  1.00625522  0.50110943  1
  H+  H27  1  0.84557054  0.84277693  0.02949078  1
  H+  H28  1  0.14082631  0.35423052  0.84236601  1
  H+  H29  1  0.39366967  0.77652474  -0.00385222  1
  H+  H30  1  0.35072312  0.46531054  0.66570038  1
  H+  H31  1  0.36770727  0.89172511  0.68056684  1
  H+  H32  1  0.47941307  0.86887987  0.32283352  1
  H+  H33  1  0.37443472  0.26438562  0.50633006  1
  H+  H34  1  0.72109890  0.11960778  0.16503085  1
  H+  H35  1  0.51532536  0.87462361  0.12727453  1
  H+  H36  1  0.97127743  0.84252650  0.83366403  1
  H+  H37  1  0.88401799  0.52160802  0.65306851  1
  H+  H38  1  0.23151678  0.61964798  0.99711793  1
  H+  H39  1  0.38148107  0.77115814  0.67694308  1
  H+  H40  1  0.77529305  0.91742889  0.85023141  1
  H+  H41  1  0.13662425  0.11268123  0.33672254  1
  H+  H42  1  0.82562482  0.63755900  0.76519210  1
  H+  H43  1  0.80494223  0.66290991  0.31960522  1
  H+  H44  1  0.85957912  0.22733998  0.14861781  1
  H+  H45  1  0.09952292  0.64074401  0.65749377  1
  H+  H46  1  0.45991786  0.60540336  0.65423516  1
  H+  H47  1  0.47778495  0.11518000  0.16545772  1
  H+  H48  1  0.63580614  0.52014086  0.65394204  1
  H+  H49  1  0.49146163  0.61892681  0.17277021  1
  H+  H50  1  0.76764075  0.62313611  0.47995767  1
  H+  H51  1  0.61953024  -0.04631687  0.50107242  1
  H+  H52  1  0.62734649  0.78183271  0.32828745  1
  H+  H53  1  0.10330745  0.21222918  0.00739662  1
  H+  H54  1  0.38246256  0.22598766  0.01049182  1
  H+  H55  1  0.32227748  0.89799530  0.07500862  1
  H+  H56  1  0.13699897  0.26173249  0.85211544  1
  H+  H57  1  0.90870189  0.11286175  0.96731381  1
  H+  H58  1  0.86034135  0.60644265  0.82280897  1
  H+  H59  1  0.90196104  0.61698219  0.31642832  1
  H+  H60  1  0.38589134  0.02960455  0.31945735  1
  H+  H61  1  0.10669456  0.62545318  0.83493496  1
  H+  H62  1  0.75516829  0.03866323  0.55227246  1
  H+  H63  1  0.49176441  0.62628052  0.32287486  1
  H+  H64  1  0.74095559  0.60332483  0.84336089  1
  H+  H65  1  0.64710592  0.77911373  0.00310927  1
  H+  H66  1  0.62269725  0.37237296  0.50702006  1
  H+  H67  1  1.02794205  0.14017062  0.86431615  1
  H+  H68  1  0.73873967  0.35983122  0.82378382  1
  H+  H69  1  0.10893687  -0.01867117  0.66483891  1
  H+  H70  1  0.22300810  0.60795973  0.83821436  1
  H+  H71  1  0.13878180  0.11283181  0.17465238  1
  H+  H72  1  0.91317852  0.58113384  0.22145142  1
  H+  H73  1  0.88986827  0.75181595  0.83662879  1
  H+  H74  1  0.87142658  0.32978769  0.51121016  1
  H+  H75  1  0.11733286  0.97584188  0.15772421  1
  H+  H76  1  0.27116428  0.13430543  0.16117676  1
  H+  H77  1  0.11739167  0.73054274  0.17136779  1
  H+  H78  1  0.73199403  0.86213850  0.17829055  1
  H+  H79  1  0.22476395  0.90732598  0.50377655  1
  H+  H80  1  0.11423482  0.48053915  0.33479328  1
  H+  H81  1  0.22594663  0.11398598  0.32970684  1
  H+  H82  1  0.13943433  0.28783803  0.47993386  1
  H+  H83  1  0.13823095  0.86698480  0.16767703  1
  H+  H84  1  0.66319385  0.54038974  1.00315120  1
  H+  H85  1  0.33180342  0.83747761  0.45449096  1
  H+  H86  1  0.22440529  0.11756026  0.66003580  1
  H+  H87  1  0.87324053  0.86194426  0.69315324  1
  H+  H88  1  0.00337926  0.11813892  0.33164131  1
  H+  H89  1  0.63532343  0.03430789  1.01195213  1
  H+  H90  1  0.62073007  0.35505517  0.32113281  1
  H+  H91  1  0.27547708  0.89012881  0.16306720  1
  H+  H92  1  0.66374312  0.14605081  0.80898139  1
  H+  H93  1  0.64868110  0.64647123  0.01294248  1
  H+  H94  1  0.71416453  0.35895964  0.31612076  1
  H+  H95  1  0.61960446  0.39353747  0.67629783  1
  H+  H96  1  0.54236625  0.41258963  1.00964597  1
  H+  H97  1  0.89235314  0.51219359  0.99283664  1
  H+  H98  1  0.50073329  0.36249611  0.33341701  1
  H+  H99  1  0.90662540  0.79038608  0.33394444  1
  H+  H100  1  0.85296617  0.38422735  0.32214155  1
  H+  H101  1  0.11689040  0.38700952  0.00659337  1
  H+  H102  1  0.12465669  1.02553551  0.51873612  1
  H+  H103  1  0.97634621  0.59525957  0.83760263  1
  H+  H104  1  0.63671419  1.01791478  0.68856808  1
  H+  H105  1  0.13239126  0.36086282  0.34210400  1
  H+  H106  1  0.35460969  0.63259673  0.81958265  1
  H+  H107  1  0.11288525  0.08962302  -0.00721935  1
  H+  H108  1  0.89199431  1.04140919  0.87866259  1
  H+  H109  1  0.16470626  0.07968655  0.23380814  1
  H+  H110  1  0.76874506  0.37999199  0.15678201  1
  H+  H111  1  0.23113217  0.36514839  0.16463685  1
  H+  H112  1  0.11881742  0.46438380  0.82343161  1
  H+  H113  1  0.34996593  0.37228170  0.81776073  1
  H+  H114  1  0.10235525  0.71218111  0.83463396  1
  H+  H115  1  0.33397044  0.41262157  0.06407680  1
  H+  H116  1  0.16469641  0.32955472  0.54656261  1
  H+  H117  1  0.44022639  0.57410760  0.85388786  1
  H+  H118  1  0.11209898  0.96828850  0.82375174  1
  H+  H119  1  0.46369530  0.35317462  0.50356309  1
  H+  H120  1  0.50646453  0.12797973  0.51967508  1
  H+  H121  1  0.36081460  0.13510664  0.15984104  1
  H+  H122  1  0.52703158  0.38697284  0.67442569  1
  H+  H123  1  0.68774154  0.91668128  0.61477958  1
  H+  H124  1  0.61017142  0.38446827  0.15850954  1
  H+  H125  1  0.98373941  0.61890774  0.49724796  1
  H+  H126  1  0.11231424  0.39963128  0.48622784  1
  H+  H127  1  0.15485004  0.62109336  0.31865553  1
  H+  H128  1  0.09397878  0.91654084  0.76089315  1
  H+  H129  1  0.72195600  0.40912563  0.50629014  1
  H+  H130  1  0.36980180  0.01462670  0.65975926  1
  H+  H131  1  0.07793363  0.65903899  0.22020873  1
  H+  H132  1  0.02680687  0.38962798  0.15753599  1
  H+  H133  1  0.49406521  0.38657841  0.84193125  1
  H+  H134  1  0.36928673  0.38918001  0.15704254  1
  H+  H135  1  0.88623957  0.36132137  0.16631019  1
  H+  H136  1  0.25014171  0.51416787  0.95644441  1
  H+  H137  1  0.38264334  0.85802000  0.99411012  1
  H+  H138  1  0.35588740  0.22386397  0.33697135  1
  H+  H139  1  0.96939501  0.61053511  0.16290126  1
  H+  H140  1  0.86763868  0.37669608  0.00739229  1
  H+  H141  1  0.90670721  0.13292382  0.86881776  1
  H+  H142  1  0.92461561  0.09719536  0.09191405  1
  H+  H143  1  0.34822862  0.12801624  0.67205314  1
  H+  H144  1  0.37544337  0.73600499  0.32116230  1
  H+  H145  1  0.62424087  0.09675774  0.48232570  1
  H+  H146  1  0.66467289  0.11392698  0.70193480  1
  H+  H147  1  0.28256255  0.63837460  0.32050407  1
  H+  H148  1  0.96867407  0.85292313  0.51155379  1
  H+  H149  1  0.38837258  0.02147150  0.99230878  1
  H+  H150  1  0.90231766  0.14769402  0.33204986  1
  H+  H151  1  0.14191365  0.36309471  0.16615068  1
  H+  H152  1  0.85346679  0.71731543  0.68285562  1
  H+  H153  1  0.73280742  0.36871479  0.66100181  1
  H+  H154  1  0.75440412  0.19720009  0.88341835  1
  H+  H155  1  0.51598368  0.88410892  0.69583514  1
  H+  H156  1  -0.00889607  0.88195494  0.33980874  1
  H+  H157  1  0.09982957  0.99506547  -0.00656912  1
  H+  H158  1  0.14640661  0.61299284  0.17134072  1
  H+  H159  1  0.40156847  0.61896876  0.17194803  1
  H+  H160  1  0.59569229  0.13795302  0.33279600  1
  H+  H161  1  0.82842233  0.40969180  0.72762157  1
  H+  H162  1  -0.01211802  0.36741958  -0.00639735  1
  H+  H163  1  0.52306027  0.13616136  0.00392762  1
  H+  H164  1  0.64040465  0.26879627  0.99044398  1
  H+  H165  1  0.86435318  0.89330937  0.33204520  1
  H+  H166  1  0.62981003  0.26824342  0.16224609  1
  H+  H167  1  0.02037491  0.39127506  0.49224739  1
  H+  H168  1  0.13328088  0.85535829  0.83453703  1
  H+  H169  1  0.06672161  0.90719496  0.58400021  1
  H+  H170  1  0.69911373  0.12310223  0.33539597  1
  H+  H171  1  0.49658243  0.14341548  0.49063622  1
  H+  H172  1  0.41313899  0.07450876  0.89566404  1
  H+  H173  1  0.10325685  0.88336179  0.52628056  1
  H+  H174  1  1.01920212  0.89446700  0.67853820  1
  H+  H175  1  0.35500698  0.21808027  0.82973467  1
  H+  H176  1  0.27459490  0.89006689  0.32429410  1
  H+  H177  1  0.61077989  0.47394809  0.16592375  1
  H+  H178  1  0.61128601  0.89996374  0.33955961  1
  H+  H179  1  0.61549537  0.08638948  0.51556982  1
  H+  H180  1  0.22125413  0.60864181  0.67012523  1
  H+  H181  1  0.37486481  0.48091756  0.15716109  1
  H+  H182  1  0.87436324  0.90294827  0.17285052  1
  H+  H183  1  0.88558645  0.10370348  0.65996724  1
  H+  H184  1  0.39243513  0.35905046  -0.00093251  1
  H+  H185  1  0.59026353  0.24119134  0.67219221  1
  H+  H186  1  0.32974860  0.11600993  0.49046476  1
  H+  H187  1  0.69617875  0.29059653  0.49700257  1
  H+  H188  1  0.51624635  0.21351287  0.71915771  1
  H+  H189  1  0.38885895  0.35873985  0.65846057  1
  H+  H190  1  0.59968902  0.61424590  0.67006942  1
  H+  H191  1  0.78257186  0.13015248  0.68453657  1
  H+  H192  1  0.10946500  0.13652099  0.66421867  1
  H+  H193  1  0.50286778  0.14082989  0.33006123  1
  H+  H194  1  0.24389634  0.85407371  0.64579935  1
  H+  H195  1  0.15173829  0.76716950  0.63786097  1
  H+  H196  1  0.72310954  0.60968286  0.65333260  1
  H+  H197  1  0.08656765  0.86448872  0.00788485  1
  H+  H198  1  0.50613326  0.89641013  0.02186129  1
  H+  H199  1  0.14149241  0.86670288  0.32752042  1
  H+  H200  1  0.98186340  0.35207662  0.66086449  1
  H+  H201  1  0.59033406  0.42470438  0.77005618  1
  H+  H202  1  0.87025158  0.22030510  0.67539850  1
  H+  H203  1  0.22135364  0.85433831  0.83907802  1
  H+  H204  1  0.85559241  0.63063133  0.66598436  1
  H+  H205  1  0.12077144  0.47987129  0.00633604  1
  H+  H206  1  0.90544911  0.27238113  0.99288789  1
  H+  H207  1  0.10970043  0.71676145  0.99301648  1
  H+  H208  1  0.03334254  0.63470759  0.33176546  1
  H+  H209  1  0.14328809  0.52171530  0.16732820  1
  H+  H210  1  0.68679950  0.56861921  0.34114749  1
  H+  H211  1  0.25566370  0.36401262  0.82419491  1
  H+  H212  1  0.61406420  0.13915545  0.01222382  1
  H+  H213  1  0.21491269  0.09791323  0.84879296  1
  H+  H214  1  0.47128383  0.60956339  0.50015145  1
  H+  H215  1  0.27622950  0.39084501  0.48377333  1
  H+  H216  1  0.77147184  0.89480885  0.69192590  1
  H+  H217  1  0.86291859  0.97630756  0.68581562  1
  H+  H218  1  1.02608009  0.62390644  0.99597417  1
  H+  H219  1  0.59020276  0.67100714  0.77913962  1
  H+  H220  1  0.85714185  0.47037500  0.15483500  1
  H+  H221  1  0.36008528  0.49377133  0.82032802  1
  H+  H222  1  0.25446975  0.13553600  0.48874151  1
  H+  H223  1  0.26684384  0.81419398  0.03774463  1
  H+  H224  1  0.27390879  0.64589732  0.50619153  1
  H+  H225  1  0.60124372  0.88513168  0.85017363  1
  H+  H226  1  0.59914312  0.15667487  0.76468117  1
  H+  H227  1  0.28418153  0.63864128  0.15997529  1
  H+  H228  1  0.76565350  0.63109219  0.16023050  1
  H+  H229  1  0.37838520  0.35863181  0.32112714  1
  H+  H230  1  0.65918610  0.70699138  0.35578973  1
  H+  H231  1  0.37884924  0.10069644  0.83837419  1
  H+  H232  1  0.84044521  0.33492141  0.84867346  1
  H+  H233  1  0.66117453  0.61901937  0.84842142  1
  H+  H234  1  0.36129275  0.38423262  0.49188185  1
  H+  H235  1  0.62578827  0.72908476  0.16825306  1
  H+  H236  1  0.65202778  0.79217112  0.85444944  1
  H+  H237  1  0.37208526  0.73081609  0.15905172  1
  H+  H238  1  0.12600557  0.98811021  0.34475511  1
  H+  H239  1  0.01918710  0.13316907  0.66147608  1
  H+  H240  1  0.12230618  0.74019600  0.48296710  1
  H+  H241  1  0.07476268  0.18966192  0.52231186  1
  H+  H242  1  0.89151215  0.27551337  0.32028039  1
  H+  H243  1  0.79293599  0.66146452  0.01289345  1
  H+  H244  1  0.60826583  0.70618822  0.48646588  1
  H+  H245  1  0.61985389  0.02682647  0.33078270  1
  H+  H246  1  0.37052100  0.48185176  0.33565816  1
  H+  H247  1  0.35632666  0.87903039  0.82725908  1
  H+  H248  1  0.58602057  0.45395823  0.33328566  1
  H+  H249  1  -0.01479661  0.87949816  0.17987738  1
  H+  H250  1  0.80735658  0.12016639  0.32910544  1
  H+  H251  1  0.75714651  0.30355964  0.77853837  1
  H+  H252  1  0.47421479  0.35925540  0.17217224  1
  H+  H253  1  0.38837484  0.86423487  0.31290576  1
  H+  H254  1  0.85604772  0.63098691  0.15565626  1
  H+  H255  1  0.60857925  0.13956394  0.15480563  1
  H+  H256  1  0.60733063  0.88952820  0.69244447  1
  H+  H257  1  0.89536140  0.25836162  0.50585205  1
  H+  H258  1  0.52385084  0.87821517  0.49948333  1
  H+  H259  1  0.63650491  0.36944808  0.84934833  1
  H+  H260  1  0.38241054  0.52274793  0.50104283  1
  H+  H261  1  0.89148092  0.61137587  0.49454450  1
  H+  H262  1  0.21554997  0.34580223  0.99910481  1
  H+  H263  1  0.88932264  0.50236060  0.83414919  1
  H+  H264  1  0.13991919  0.77607752  0.32328445  1
  H+  H265  1  0.20888248  0.86448740  -0.01138661  1
  H+  H266  1  0.68015963  0.09707567  0.95494602  1
  H+  H267  1  1.01448330  0.64496290  0.65678133  1
  H+  H268  1  0.38338754  0.26995739  0.16974233  1
  H+  H269  1  0.73377489  0.35374062  0.99037735  1
  H+  H270  1  0.62429310  0.48411596  0.83106812  1
  H+  H271  1  0.36618959  1.00545780  0.50043902  1
  H+  H272  1  0.72579464  0.84381521  0.49553030  1
  H+  H273  1  0.74800153  0.11557594  0.85922569  1
  H+  H274  1  0.85831321  0.13838534  0.14213436  1
  H+  H275  1  0.36613589  -0.02034732  0.15930027  1
  H+  H276  1  0.61610856  0.60089225  0.33129831  1
  H+  H277  1  0.12049832  0.65087902  0.49201379  1
  H+  H278  1  0.64296647  0.81683912  0.62292273  1
  H+  H279  1  0.63087831  0.60179999  0.49675555  1
  H+  H280  1  0.86824285  -0.01712080  0.32609016  1
  H+  H281  1  0.35780615  0.96983352  0.82851854  1
  H+  H282  1  0.83248507  0.40517159  0.06434423  1
  H+  H283  1  0.44916024  0.42393290  0.88224381  1
  H+  H284  1  0.89114738  0.52334202  0.31058319  1
  H+  H285  1  0.47375856  0.65096455  -0.05534709  1
  H+  H286  1  0.59826917  0.46967930  0.48395934  1
  H+  H287  1  0.85640044  0.71303262  0.47621428  1
  H+  H288  1  0.52297178  0.56329070  0.71333614  1
  H+  H289  1  0.33221110  0.45150367  0.99830365  1
  H+  H290  1  0.40459626  0.32406970  0.26126996  1
  H+  H291  1  0.31751912  0.40004745  0.72214897  1
  H+  H292  1  0.60157022  0.66917515  0.10855775  1
  H+  H293  1  0.83777970  0.66352591  0.38807189  1
  H+  H294  1  0.43031551  0.33353940  0.94311085  1
  H+  H295  1  0.83275494  0.90956859  0.11062322  1
  H+  H296  1  0.43390148  0.59406633  0.26172558  1
  H+  H297  1  0.41824472  0.32738386  0.60074019  1
  H+  H298  1  0.84047074  0.94807230  0.79527925  1
  H+  H299  1  0.35911184  0.63993303  0.49835483  1
  H+  H300  1  0.16909672  0.84056380  0.22842897  1
  H+  H301  1  0.07726267  0.15881676  0.41462484  1
  H+  H302  1  0.38346303  0.64283872  0.32176652  1
  H+  H303  1  0.43228536  0.84133346  0.22129011  1
  H+  H304  1  0.14796574  0.05796963  0.90546668  1
  H+  H305  1  0.82353098  0.42782736  0.37422496  1
  H+  H306  1  0.16815116  0.57588376  0.89951504  1
  H+  H307  1  0.89030960  0.02871431  0.14573647  1
  H+  H308  1  0.66527830  0.09538572  0.22556559  1
  H+  H309  1  0.44823669  0.10970192  0.64800932  1
  H+  H310  1  0.66457359  0.57455175  0.55557065  1
  H+  H311  1  0.69755124  0.59624354  0.94121315  1
  H+  H312  1  0.09284018  0.16264811  0.06863253  1
  H+  H313  1  0.32453897  0.66258102  0.73374290  1
  H+  H314  1  0.40330245  0.85577057  0.53702577  1
  H+  H315  1  0.32860396  0.91694084  0.73634686  1
  H+  H316  1  0.56390895  0.40339746  0.42713923  1
  H+  H317  1  0.35963777  0.63850149  0.00761441  1
  H+  H318  1  0.07649262  0.42868097  0.39671144  1
  H+  H319  1  0.87430784  0.80840321  0.53680604  1
  H+  H320  1  0.85472744  0.16567405  0.43182301  1
  H+  H321  1  0.65733087  0.32499880  0.22281729  1
  H+  H322  1  0.57580794  0.16768539  0.09463740  1
  H+  H323  1  0.86118958  0.16733174  0.77250717  1
  H+  H324  1  0.35095856  0.03797648  0.56341706  1
  H+  H325  1  0.38094469  0.11787093  0.32519847  1
  H+  H326  1  0.11638384  0.22637625  0.35847227  1
  H+  H327  1  0.90914403  0.57698688  0.59111696  1
  H+  H328  1  0.97343341  0.36894436  0.32203784  1
  H+  H329  1  0.66481451  0.83330197  0.23262711  1
  H+  H330  1  0.34345061  0.91850793  0.37837500  1
  H+  H331  1  0.11670773  0.36390329  0.65856223  1
  H+  H332  1  0.15316944  0.58438373  0.57156127  1
  H+  H333  1  0.90152441  0.83948744  0.63240284  1
  H+  H334  1  0.86953408  0.22419488  0.83135468  1
  H+  H335  1  0.83379653  0.16220493  0.05463318  1
  H+  H336  1  0.32717930  0.16452146  0.39806761  1
  H+  H337  1  0.68803574  0.03749404  0.59851598  1
  H+  H338  1  0.15503441  0.83161594  0.92684768  1
  H+  H339  1  0.93421242  0.86102230  0.24264114  1
  H+  H340  1  0.12828080  0.56290783  0.69908255  1
  H+  H341  1  0.92015163  0.32335039  0.60331594  1
  H+  H342  1  0.35862191  0.72516180  0.82631486  1
  H+  H343  1  0.70569197  0.78364253  0.55080738  1
  H+  H344  1  0.07668180  0.90753453  0.10144216  1
  H+  H345  1  0.09328761  0.66897217  0.39114893  1
  H+  H346  1  0.09576801  0.40288154  0.76549721  1
  H+  H347  1  0.66947014  0.84355464  0.91767925  1
  H+  H348  1  0.57751830  0.92565818  0.39941284  1
  H+  H349  1  0.08695037  0.41985625  0.09864014  1
  H+  H350  1  0.91765331  0.56644991  0.93247672  1
  H+  H351  1  0.16293881  0.32639357  0.93738633  1
  H+  H352  1  0.57497845  0.91433996  0.78980197  1
  H+  H353  1  0.34138891  0.16222859  0.06581591  1
  H+  H354  1  0.16829201  0.09271592  0.59819582  1
  H+  H355  1  0.55617769  0.63680855  0.01377193  1
  H+  H356  1  0.66217531  0.57439311  0.23607888  1
  H+  H357  1  0.91613537  0.33083303  0.22453848  1
  H+  H358  1  0.18413211  0.83761652  0.55576803  1
  H+  H359  1  0.68810812  0.72614180  0.78280656  1
  H+  H360  1  0.83682595  0.68407657  0.08773119  1
  H+  H361  1  0.67012968  0.33461015  0.90615203  1
  H+  H362  1  0.13909760  0.61304915  0.98948544  1
  H+  H363  1  0.32252997  0.52756947  0.90969337  1
  H+  H364  1  0.60474062  0.23756232  0.32787074  1
  H+  H365  1  0.95985884  0.09841094  0.26468808  1
  H+  H366  1  0.90488119  0.06291947  0.60024228  1
  H+  H367  1  0.42971942  0.90519764  0.44760280  1
  H+  H368  1  0.10867726  0.12971555  0.84762490  1
  H+  H369  1  0.22192222  0.34382726  0.63838762  1
  H+  H370  1  0.42767611  0.82974185  0.62057553  1
  H+  H371  1  0.82433418  0.91726002  0.41578900  1
  H+  H372  1  0.34355476  0.67221706  0.07108467  1
  H+  H373  1  0.36227938  0.22372215  0.67385183  1
  H+  H374  1  0.17963895  0.58569275  0.25845335  1
  H+  H375  1  0.41949153  0.08837480  0.22602854  1
  H+  H376  1  0.80143101  0.38416940  0.45999013  1
  H+  H377  1  0.70608082  0.23895443  0.44266749  1
  H+  H378  1  0.57886346  0.64892580  0.42544963  1
  H+  H379  1  0.59431880  0.43820330  0.07115104  1
  H+  H380  1  0.88652529  0.32169355  0.90960689  1
  H+  H381  1  0.32573189  0.16342027  0.76886171  1
  H+  H382  1  0.67223729  0.35162069  0.60337235  1
  H+  H383  1  0.10612742  0.92969340  0.40427002  1
  O2-  O384  1  0.09654145  0.16882489  0.14912201  1
  O2-  O385  1  0.06200044  0.14847039  0.48956960  1
  O2-  O386  1  0.08253719  0.16648557  0.84087921  1
  O2-  O387  1  0.08810982  0.42204569  0.14428888  1
  O2-  O388  1  0.07959756  0.42939282  0.47621087  1
  O2-  O389  1  0.09563187  0.40402374  0.81029967  1
  O2-  O390  1  0.08584587  0.66603406  0.17629174  1
  O2-  O391  1  0.09240921  0.67910022  0.47007854  1
  O2-  O392  1  0.07183964  0.65113691  0.82155427  1
  O2-  O393  1  0.08658104  0.91357728  0.14704037  1
  O2-  O394  1  0.06387842  0.90623620  0.53868424  1
  O2-  O395  1  0.08845123  0.90943537  0.80524577  1
  O2-  O396  1  0.33174635  0.16699527  0.14607993  1
  O2-  O397  1  0.31590868  0.15959553  0.47478418  1
  O2-  O398  1  0.32506242  0.15952746  0.81431341  1
  O2-  O399  1  0.34258669  0.42193028  0.13997643  1
  O2-  O400  1  0.33852555  0.41963898  0.47326058  1
  O2-  O401  1  0.31389067  0.39440924  0.80075404  1
  O2-  O402  1  0.34521242  0.66918094  0.14587587  1
  O2-  O403  1  0.33435385  0.67820834  0.49217819  1
  O2-  O404  1  0.32594044  0.66510767  0.80758674  1
  O2-  O405  1  0.33589561  0.91725235  0.14735254  1
  O2-  O406  1  0.37263733  0.89907544  0.45207736  1
  O2-  O407  1  0.32563060  0.90879082  0.81220108  1
  O2-  O408  1  0.57530995  0.16834079  0.14114285  1
  O2-  O409  1  0.73667629  0.27506646  0.47730485  1
  O2-  O410  1  0.65732424  0.16588698  0.76797543  1
  O2-  O411  1  0.57778917  0.41470795  0.14854752  1
  O2-  O412  1  0.56434428  0.40746222  0.47257443  1
  O2-  O413  1  0.58706379  0.42387463  0.81534128  1
  O2-  O414  1  0.59390229  0.66642221  0.15358110  1
  O2-  O415  1  0.57377917  0.64577410  0.47188150  1
  O2-  O416  1  0.63751502  0.69629661  0.80868963  1
  O2-  O417  1  0.55904253  0.88363217  0.09575473  1
  O2-  O418  1  0.57055781  0.92139503  0.47335255  1
  O2-  O419  1  0.56525734  0.90873356  0.83433502  1
  O2-  O420  1  0.82494679  0.16769553  0.13237263  1
  O2-  O421  1  0.84910509  0.16381979  0.47638006  1
  O2-  O422  1  0.86247582  0.16831287  0.81755210  1
  O2-  O423  1  0.83013311  0.40870891  0.14341757  1
  O2-  O424  1  0.81352517  0.44238238  0.44785818  1
  O2-  O425  1  0.78844481  0.36243645  0.79474328  1
  O2-  O426  1  0.82602880  0.66319121  0.14414105  1
  O2-  O427  1  0.82723559  0.65206524  0.46238968  1
  O2-  O428  1  0.82760887  0.63590616  0.81025495  1
  O2-  O429  1  0.83775857  0.92586294  0.15453230  1
  O2-  O430  1  0.82303490  0.90812633  0.46104256  1
  O2-  O431  1  0.83657485  0.95502013  0.83916007  1
  O2-  O432  1  0.16752170  0.07987910  0.18885726  1
  O2-  O433  1  0.15795643  0.08885080  0.52038092  1
  O2-  O434  1  0.15343946  0.06361227  0.85894568  1
  O2-  O435  1  0.17122787  0.33168817  0.17932340  1
  O2-  O436  1  0.16766960  0.34312582  0.50141881  1
  O2-  O437  1  0.17331087  0.32725895  0.86065267  1
  O2-  O438  1  0.17787719  0.58283632  0.18329813  1
  O2-  O439  1  0.15999712  0.59040236  0.52720383  1
  O2-  O440  1  0.16362691  0.57184516  0.85428895  1
  O2-  O441  1  0.17024385  0.83720754  0.18332869  1
  O2-  O442  1  0.17205791  0.85247542  0.51231635  1
  O2-  O443  1  0.16064823  0.82433331  0.85395768  1
  O2-  O444  1  0.41626099  0.08286081  0.18129087  1
  O2-  O445  1  0.32831903  0.02186076  0.52077463  1
  O2-  O446  1  0.40862264  0.06949400  0.85065435  1
  O2-  O447  1  0.41295583  0.33015558  0.18642626  1
  O2-  O448  1  0.40515501  0.32446394  0.52229476  1
  O2-  O449  1  0.43664305  0.37047662  0.86225092  1
  O2-  O450  1  0.43022125  0.58785692  0.18819326  1
  O2-  O451  1  0.41137546  0.58324766  0.51641038  1
  O2-  O452  1  0.38298927  0.55400931  0.83765851  1
  O2-  O453  1  0.42463375  0.83705519  0.17660264  1
  O2-  O454  1  0.43157513  0.82221505  0.54391761  1
  O2-  O455  1  0.40358384  0.81977870  0.85381924  1
  O2-  O456  1  0.66173444  0.09501430  0.18125122  1
  O2-  O457  1  0.69827632  0.00119974  0.56950342  1
  O2-  O458  1  0.71076844  0.13520033  0.87766864  1
  O2-  O459  1  0.66244769  0.32957820  0.17811096  1
  O2-  O460  1  0.66910808  0.36410274  0.52593494  1
  O2-  O461  1  0.66525456  0.33665929  0.85938786  1
  O2-  O462  1  0.66729920  0.57852328  0.19101683  1
  O2-  O463  1  0.66444340  0.57328492  0.51012611  1
  O2-  O464  1  0.68178857  0.58071236  0.86320761  1
  O2-  O465  1  0.67028584  0.82464489  0.18909430  1
  O2-  O466  1  0.67741605  0.80288268  0.52232673  1
  O2-  O467  1  0.66879109  0.84890096  0.87134943  1
  O2-  O468  1  0.92256952  0.09284262  0.13673781  1
  O2-  O469  1  0.90448406  0.06298384  0.52169475  1
  O2-  O470  1  0.92506241  0.10116754  0.89681264  1
  O2-  O471  1  0.91807493  0.33141159  0.17937681  1
  O2-  O472  1  0.91782791  0.31908847  0.52224498  1
  O2-  O473  1  0.85232151  0.29494551  0.87222403  1
  O2-  O474  1  0.90854491  0.57935382  0.17617288  1
  O2-  O475  1  0.92283197  0.58301343  0.51058092  1
  O2-  O476  1  0.91220878  0.56055434  0.84937465  1
  O2-  O477  1  0.92831578  0.86206984  0.19820769  1
  O2-  O478  1  0.90540473  0.82016971  0.49855194  1
  O2-  O479  1  0.91142919  0.81201683  0.84781722  1
  O2-  O480  1  0.16376046  0.08121663  0.31783687  1
  O2-  O481  1  0.16470296  0.08660757  0.64356623  1
  O2-  O482  1  0.13477635  0.05274976  0.97559143  1
  O2-  O483  1  0.15966888  0.32500085  0.34068438  1
  O2-  O484  1  0.16363663  0.31686915  0.62022152  1
  O2-  O485  1  0.15683430  0.32522986  0.98290290  1
  O2-  O486  1  0.18555747  0.59087413  0.30434986  1
  O2-  O487  1  0.15755803  0.57188804  0.66008296  1
  O2-  O488  1  0.17396352  0.58293766  0.97887796  1
  O2-  O489  1  0.16993523  0.83684877  0.30864975  1
  O2-  O490  1  0.20296922  0.81287340  0.61564394  1
  O2-  O491  1  0.15021266  0.83027877  0.97286205  1
  O2-  O492  1  0.41636867  0.09238384  0.30890661  1
  O2-  O493  1  0.38744684  0.06977322  0.63674598  1
  O2-  O494  1  0.41895542  0.07963395  0.97628040  1
  O2-  O495  1  0.40277881  0.32208387  0.30724671  1
  O2-  O496  1  0.42186721  0.32993522  0.64621953  1
  O2-  O497  1  0.43114477  0.33619596  0.98785110  1
  O2-  O498  1  0.43159302  0.59880943  0.30780955  1
  O2-  O499  1  0.40010135  0.57953112  0.63939537  1
  O2-  O500  1  0.30793333  0.52274641  0.95349889  1
  O2-  O501  1  0.42108528  0.83402803  0.30364590  1
  O2-  O502  1  0.41851701  0.83280677  0.66504377  1
  O2-  O503  1  0.41969363  0.83561737  0.97862521  1
  O2-  O504  1  0.64407106  0.08829302  0.31527303  1
  O2-  O505  1  0.67358011  0.07739803  0.67189171  1
  O2-  O506  1  0.66851042  0.09458779  0.99909113  1
  O2-  O507  1  0.65122166  0.32396970  0.30586667  1
  O2-  O508  1  0.67142596  0.34406766  0.64830704  1
  O2-  O509  1  0.67450452  0.32793236  0.97380527  1
  O2-  O510  1  0.63922341  0.55757045  0.31443653  1
  O2-  O511  1  0.66314640  0.57951973  0.63619983  1
  O2-  O512  1  0.70069783  0.60185415  0.98644785  1
  O2-  O513  1  0.65732897  0.84284858  0.31600353  1
  O2-  O514  1  0.67486281  0.87045212  0.64535866  1
  O2-  O515  1  0.67227819  0.83850466  0.98808556  1
  O2-  O516  1  0.94597154  0.09096532  0.30790891  1
  O2-  O517  1  0.90961449  0.06685628  0.64555265  1
  O2-  O518  1  0.89929892  0.11957098  1.01261559  1
  O2-  O519  1  0.91329319  0.33509839  0.30595174  1
  O2-  O520  1  0.92027126  0.32674408  0.64849219  1
  O2-  O521  1  0.92620739  0.33322341  0.98119406  1
  O2-  O522  1  0.92970736  0.58535259  0.29978136  1
  O2-  O523  1  0.90660619  0.58069691  0.63612679  1
  O2-  O524  1  0.92502918  0.57190950  0.97702992  1
  O2-  O525  1  0.93069021  0.85220664  0.32499141  1
  O2-  O526  1  0.90198753  0.82999265  0.67579351  1
  O2-  O527  1  0.88504732  0.78548706  1.01942563  1
  O2-  O528  1  0.07890391  0.15393191  0.02465087  1
  O2-  O529  1  0.08638774  0.16281412  0.36909336  1
  O2-  O530  1  0.08101218  0.17123342  0.67089512  1
  O2-  O531  1  0.08867312  0.41961720  0.02201670  1
  O2-  O532  1  0.07602507  0.42248097  0.35150442  1
  O2-  O533  1  0.08930438  0.39397858  0.67955164  1
  O2-  O534  1  0.08899711  0.65761501  0.00771429  1
  O2-  O535  1  0.09446998  0.66786422  0.34557058  1
  O2-  O536  1  0.07615090  0.67777788  0.66813172  1
  O2-  O537  1  0.05394967  0.88784036  0.02949179  1
  O2-  O538  1  0.09868284  0.92601328  0.36029568  1
  O2-  O539  1  0.08063491  0.91750601  0.66940700  1
  O2-  O540  1  0.35187315  0.16432149  0.02145077  1
  O2-  O541  1  0.32947429  0.16307222  0.35235195  1
  O2-  O542  1  0.32651505  0.16457786  0.69062788  1
  O2-  O543  1  0.32654630  0.40022386  0.01915643  1
  O2-  O544  1  0.34026692  0.42176875  0.34996341  1
  O2-  O545  1  0.32610697  0.40401442  0.67709182  1
  O2-  O546  1  0.33990733  0.67562312  0.02534010  1
  O2-  O547  1  0.34673433  0.67226707  0.33298620  1
  O2-  O548  1  0.32140970  0.66324320  0.68779666  1
  O2-  O549  1  0.30714491  0.87521969  0.03180016  1
  O2-  O550  1  0.33810325  0.92231289  0.33379623  1
  O2-  O551  1  0.33388070  0.92019075  0.69064385  1
  O2-  O552  1  0.58071683  0.16938962  0.02318814  1
  O2-  O553  1  0.56814754  0.17356564  0.34482736  1
  O2-  O554  1  0.53948222  0.18979637  0.68993069  1
  O2-  O555  1  0.59968550  0.45139490  0.02699172  1
  O2-  O556  1  0.56210850  0.39350443  0.34869040  1
  O2-  O557  1  0.58698524  0.42235409  0.69028632  1
  O2-  O558  1  0.61336160  0.67085195  0.03104025  1
  O2-  O559  1  0.59881412  0.66263752  0.35338463  1
  O2-  O560  1  0.55521307  0.61979846  0.69452288  1
  O2-  O561  1  0.54797019  0.93863328  0.05212675  1
  O2-  O562  1  0.57867406  0.92880408  0.35347133  1
  O2-  O563  1  0.57647513  0.91621968  0.71154299  1
  O2-  O564  1  0.85185639  0.16545826  0.01075016  1
  O2-  O565  1  0.86074538  0.16688370  0.34531385  1
  O2-  O566  1  0.84606899  0.16077456  0.69159756  1
  O2-  O567  1  0.83529309  0.40618124  0.01920773  1
  O2-  O568  1  0.82205161  0.41689198  0.32928590  1
  O2-  O569  1  0.84027675  0.41935159  0.68277621  1
  O2-  O570  1  0.84918365  0.69547903  0.03676053  1
  O2-  O571  1  0.85568838  0.67726040  0.34391713  1
  O2-  O572  1  0.82114737  0.65355873  0.68616440  1
  O2-  O573  1  0.83130768  0.89120341  0.03493524  1
  O2-  O574  1  0.83054565  0.92279370  0.34024044  1
  O2-  O575  1  0.83028218  0.92001814  0.70824110  1
