# generated using pymatgen
data_H2O
_symmetry_space_group_name_H-M   'P 1'
_cell_length_a   17.99318899
_cell_length_b   17.99591543
_cell_length_c   21.99455486
_cell_angle_alpha   89.97844966
_cell_angle_beta   90.02012195
_cell_angle_gamma   120.00085838
_symmetry_Int_Tables_number   1
_chemical_formula_structural   H2O
_chemical_formula_sum   'H384 O192'
_cell_volume   6167.71217821
_cell_formula_units_Z   192
loop_
 _symmetry_equiv_pos_site_id
 _symmetry_equiv_pos_as_xyz
  1  'x, y, z'
loop_
 _atom_type_symbol
 _atom_type_oxidation_number
  H+  1.0
  O2-  -2.0
loop_
 _atom_site_type_symbol
 _atom_site_label
 _atom_site_symmetry_multiplicity
 _atom_site_fract_x
 _atom_site_fract_y
 _atom_site_fract_z
 _atom_site_occupancy
  H+  H0  1  0.62278330  0.49826222  0.01312739  1
  H+  H1  1  0.51733370  0.87835762  0.03960515  1
  H+  H2  1  1.02228214  0.89210802  0.33844497  1
  H+  H3  1  0.97209329  0.11255147  0.50547396  1
  H+  H4  1  0.56451468  0.69419568  0.18020598  1
  H+  H5  1  0.32899677  0.52631360  0.22522225  1
  H+  H6  1  0.09484218  0.69292412  1.00730406  1
  H+  H7  1  0.86089208  0.40009492  0.00393006  1
  H+  H8  1  0.41100264  0.32675099  0.58848682  1
  H+  H9  1  0.62194613  0.22811976  0.62535030  1
  H+  H10  1  0.64325333  0.78336706  1.00055442  1
  H+  H11  1  0.04255162  0.14570258  0.01783543  1
  H+  H12  1  0.13308032  0.26822944  0.49946014  1
  H+  H13  1  0.06057787  0.66266374  0.71486812  1
  H+  H14  1  0.48656051  0.85805279  0.49908030  1
  H+  H15  1  0.22763940  0.36707515  0.83649171  1
  H+  H16  1  -0.02256672  0.87159601  -0.00858053  1
  H+  H17  1  0.73038070  0.11608708  0.83522764  1
  H+  H18  1  0.13662905  0.59728342  -0.01762913  1
  H+  H19  1  0.11478354  -0.02381000  1.00938229  1
  H+  H20  1  0.18581461  0.62663945  0.83372218  1
  H+  H21  1  0.38055335  0.73410021  0.66373821  1
  H+  H22  1  0.01920559  0.63846994  0.15550866  1
  H+  H23  1  0.52544962  0.88653972  0.66777997  1
  H+  H24  1  0.95961615  0.62675530  0.32608812  1
  H+  H25  1  0.73972850  0.86298925  -0.00148600  1
  H+  H26  1  0.86251253  0.22705142  0.49610327  1
  H+  H27  1  0.41213602  0.07785241  0.43461016  1
  H+  H28  1  0.32619514  0.94531307  0.62598384  1
  H+  H29  1  0.02828631  0.15244844  0.33346062  1
  H+  H30  1  0.62873502  0.16728590  1.02549414  1
  H+  H31  1  0.09412267  0.72859558  0.81168723  1
  H+  H32  1  0.48783459  0.60259259  0.17255086  1
  H+  H33  1  0.72608756  0.86989119  0.83841364  1
  H+  H34  1  0.96212778  0.60683180  0.98457774  1
  H+  H35  1  0.06477491  0.63189023  0.42578994  1
  H+  H36  1  0.63147290  0.61414489  0.48884414  1
  H+  H37  1  0.76516558  0.36471564  0.33357140  1
  H+  H38  1  0.76733353  0.38346225  0.48484515  1
  H+  H39  1  0.86341860  0.72305949  0.49063196  1
  H+  H40  1  0.86331171  0.35046488  0.33784135  1
  H+  H41  1  0.23072821  0.60706352  -0.01075838  1
  H+  H42  1  0.77641907  0.38676986  0.16140473  1
  H+  H43  1  0.32839232  0.65502681  0.40466773  1
  H+  H44  1  0.38892957  0.85462856  0.64510624  1
  H+  H45  1  0.03123804  0.90283467  0.82100981  1
  H+  H46  1  0.63523871  0.63345319  0.00773557  1
  H+  H47  1  0.49234176  0.39434344  1.00557707  1
  H+  H48  1  0.30234756  0.13776293  0.80485090  1
  H+  H49  1  0.39715437  0.71256861  0.83537659  1
  H+  H50  1  0.48346754  0.93582592  0.15955717  1
  H+  H51  1  0.36111275  0.38086783  0.66697756  1
  H+  H52  1  0.58430920  0.91903897  0.72799915  1
  H+  H53  1  0.27711578  0.90550117  0.81925305  1
  H+  H54  1  0.01935379  0.53911828  0.45218961  1
  H+  H55  1  0.64247696  0.02134426  0.65049135  1
  H+  H56  1  0.53081591  0.64184736  0.82599714  1
  H+  H57  1  0.38129063  0.88395981  0.82830193  1
  H+  H58  1  0.91099724  0.59898534  0.26336173  1
  H+  H59  1  0.10375710  0.38358875  0.83438494  1
  H+  H60  1  0.73946162  0.13457390  0.99115562  1
  H+  H61  1  1.02043570  0.39512275  1.00760782  1
  H+  H62  1  0.46201134  0.58021896  0.33314032  1
  H+  H63  1  0.73281109  0.62493896  0.65164365  1
  H+  H64  1  0.51766504  0.87843310  0.34427899  1
  H+  H65  1  0.59861341  0.18654549  0.42225395  1
  H+  H66  1  0.12486208  0.86570729  0.17550440  1
  H+  H67  1  0.91122057  0.02408384  0.17166134  1
  H+  H68  1  0.64026910  0.36088435  0.65762537  1
  H+  H69  1  0.10731249  0.12816821  0.66767831  1
  H+  H70  1  0.88188598  1.02257747  0.65903886  1
  H+  H71  1  0.16366446  0.33804549  0.23517312  1
  H+  H72  1  0.62113139  1.00470404  0.34056185  1
  H+  H73  1  0.10858013  0.37756301  0.49204397  1
  H+  H74  1  0.83912349  0.64310062  0.31952368  1
  H+  H75  1  0.36526301  0.63611223  0.00158824  1
  H+  H76  1  0.89349160  0.88941399  0.16324797  1
  H+  H77  1  0.83008952  0.67740494  0.72494952  1
  H+  H78  1  0.36622266  0.72390968  0.49633810  1
  H+  H79  1  0.52999618  0.13134482  0.87302101  1
  H+  H80  1  0.21839636  0.60795926  0.17221605  1
  H+  H81  1  0.89401402  0.93068547  0.33867124  1
  H+  H82  1  0.25827006  0.88605783  0.16736843  1
  H+  H83  1  0.72673124  0.10955903  0.49870361  1
  H+  H84  1  0.45607967  0.07691041  0.71116388  1
  H+  H85  1  0.13395403  0.02294432  0.33070703  1
  H+  H86  1  0.09557703  0.89065740  0.67058661  1
  H+  H87  1  0.89673486  0.79309855  0.83390529  1
  H+  H88  1  0.01890998  0.89077969  0.17124775  1
  H+  H89  1  0.37399818  0.39942586  1.01198351  1
  H+  H90  1  0.23607126  0.10894072  0.00592001  1
  H+  H91  1  0.14991797  0.11875766  0.17863176  1
  H+  H92  1  0.59858457  0.95749686  0.48927788  1
  H+  H93  1  0.13391413  0.26666323  0.64776710  1
  H+  H94  1  0.56346142  0.31294242  0.82817452  1
  H+  H95  1  0.38559910  0.52467322  0.99442910  1
  H+  H96  1  0.47582941  0.60523473  0.65490419  1
  H+  H97  1  0.75987686  0.12602623  0.34910169  1
  H+  H98  1  0.27463170  0.63483669  0.49915092  1
  H+  H99  1  0.37847038  0.10209936  0.35252579  1
  H+  H100  1  0.68232842  0.79555625  0.22717121  1
  H+  H101  1  0.37462457  0.79715701  0.80737997  1
  H+  H102  1  0.77387793  0.65629077  1.01062555  1
  H+  H103  1  0.81321255  0.93357028  0.35929397  1
  H+  H104  1  0.85313173  0.47405656  0.48592474  1
  H+  H105  1  0.20953301  0.10086490  0.65713945  1
  H+  H106  1  0.61424749  0.63840512  0.66808007  1
  H+  H107  1  0.67479222  0.87104769  0.19065975  1
  H+  H108  1  0.38574761  0.36251565  0.17111445  1
  H+  H109  1  0.52055807  0.63009893  0.48334127  1
  H+  H110  1  0.38408473  0.36347659  0.50087680  1
  H+  H111  1  0.62159253  0.09465341  0.33289587  1
  H+  H112  1  0.21700238  0.11132864  0.51635552  1
  H+  H113  1  0.44368338  0.32585309  0.84821761  1
  H+  H114  1  0.34586508  0.46267858  0.34197506  1
  H+  H115  1  0.61591612  0.48241621  0.16354642  1
  H+  H116  1  0.10850271  0.47854836  0.16057586  1
  H+  H117  1  0.35137732  0.61927327  0.16694340  1
  H+  H118  1  0.33525719  0.74024409  0.18859858  1
  H+  H119  1  0.35495669  0.46967589  0.49009161  1
  H+  H120  1  0.21736543  0.60198279  0.32836790  1
  H+  H121  1  0.36219420  0.13193581  0.02127551  1
  H+  H122  1  0.12643017  0.51548144  0.32687222  1
  H+  H123  1  0.72775514  0.38099384  -0.00426064  1
  H+  H124  1  0.86139334  0.73468583  0.66428438  1
  H+  H125  1  0.36035825  0.13928362  0.48540353  1
  H+  H126  1  0.13554491  0.79094382  1.07067934  1
  H+  H127  1  0.88379166  0.36414344  0.50122675  1
  H+  H128  1  0.40217959  0.60345094  0.83559148  1
  H+  H129  1  0.80453565  0.89305472  0.16775526  1
  H+  H130  1  0.10396836  0.63411702  0.33504777  1
  H+  H131  1  -0.02705712  0.36340791  0.50538785  1
  H+  H132  1  0.85351810  0.17422086  -0.06611158  1
  H+  H133  1  0.13015225  0.59457378  0.50966257  1
  H+  H134  1  0.38907709  0.60772052  0.65324803  1
  H+  H135  1  0.85897490  0.64929173  0.00403907  1
  H+  H136  1  0.10262086  0.88141166  0.01870037  1
  H+  H137  1  0.18573069  0.33373125  0.92845722  1
  H+  H138  1  0.44351494  0.85664817  0.97507522  1
  H+  H139  1  0.24983836  0.62048410  0.66367972  1
  H+  H140  1  0.61271268  0.73923872  0.82493473  1
  H+  H141  1  0.61937794  0.85417290  0.49593128  1
  H+  H142  1  0.30142589  0.63440520  0.82563340  1
  H+  H143  1  0.36962443  0.64045675  0.34430668  1
  H+  H144  1  0.97022158  0.37084001  0.83885684  1
  H+  H145  1  0.64760717  0.88192087  0.34623117  1
  H+  H146  1  0.87783198  0.13852985  -0.00925694  1
  H+  H147  1  0.87729121  0.27797817  0.65942862  1
  H+  H148  1  0.46915455  0.34570178  0.64693149  1
  H+  H149  1  0.10894859  0.88672861  0.34188741  1
  H+  H150  1  0.57633272  0.40849061  0.42814607  1
  H+  H151  1  0.31277967  0.95357668  -0.00720743  1
  H+  H152  1  0.67831835  0.03104101  0.18825792  1
  H+  H153  1  0.93234732  0.85462797  0.26027797  1
  H+  H154  1  0.36593144  -0.01272927  0.84153106  1
  H+  H155  1  0.88795869  0.62249505  0.16850745  1
  H+  H156  1  0.02743689  0.13858762  0.81992142  1
  H+  H157  1  0.26503727  0.37841900  0.49038645  1
  H+  H158  1  0.14033668  0.27632804  0.84032596  1
  H+  H159  1  0.61080490  0.89060739  0.82954914  1
  H+  H160  1  0.22132051  0.35577126  0.65038024  1
  H+  H161  1  0.86859566  0.25129294  0.33895199  1
  H+  H162  1  0.13141051  0.23855054  0.16485308  1
  H+  H163  1  0.27910916  0.13606246  0.17002862  1
  H+  H164  1  0.90182793  0.12847136  0.31798299  1
  H+  H165  1  0.85669658  0.64939532  0.82081404  1
  H+  H166  1  0.76456054  0.87985423  0.50419250  1
  H+  H167  1  0.90768085  0.79114548  0.17912846  1
  H+  H168  1  0.57464913  0.90286857  0.15478601  1
  H+  H169  1  0.88551499  0.79603551  0.31874029  1
  H+  H170  1  0.57520247  0.68039685  0.29853126  1
  H+  H171  1  0.38102509  0.35341876  0.32578454  1
  H+  H172  1  0.13018079  0.87040391  0.81838814  1
  H+  H173  1  0.60795558  0.47645190  0.48404989  1
  H+  H174  1  0.39045609  0.85270475  0.50711389  1
  H+  H175  1  0.51843495  0.92086218  1.03710158  1
  H+  H176  1  0.77967823  0.15841344  0.17522858  1
  H+  H177  1  0.63913471  0.11099308  0.49816532  1
  H+  H178  1  0.63364752  0.86108787  0.65574207  1
  H+  H179  1  0.85432205  0.96909668  0.50725831  1
  H+  H180  1  0.78086818  0.66991644  0.82537274  1
  H+  H181  1  1.00370417  0.63324704  0.65621302  1
  H+  H182  1  0.09936910  0.37754524  0.33944254  1
  H+  H183  1  0.92322871  0.84988612  0.89475639  1
  H+  H184  1  0.60958633  0.21223722  0.26817682  1
  H+  H185  1  0.95101706  0.61263652  0.83128079  1
  H+  H186  1  0.85737114  0.38677445  0.67300889  1
  H+  H187  1  0.86337056  0.13976674  0.67204671  1
  H+  H188  1  0.37514104  1.01092298  0.35564867  1
  H+  H189  1  0.37802637  0.76505532  0.34020719  1
  H+  H190  1  0.77929749  0.64777254  0.16062348  1
  H+  H191  1  0.61853083  0.46446645  0.83160685  1
  H+  H192  1  0.35802059  0.21306412  0.65961825  1
  H+  H193  1  0.51777895  0.37116762  0.33791371  1
  H+  H194  1  0.36307598  0.47103648  0.66765847  1
  H+  H195  1  0.35550071  0.38339206  0.82373478  1
  H+  H196  1  0.86381095  0.89463292  0.82009522  1
  H+  H197  1  0.76639306  0.88310415  0.66642293  1
  H+  H198  1  0.65802945  0.76595369  0.31849672  1
  H+  H199  1  0.32129768  0.91009956  0.11093969  1
  H+  H200  1  0.53823293  0.46005039  0.71789417  1
  H+  H201  1  0.27086582  0.38675763  0.15977429  1
  H+  H202  1  0.48618533  0.09841411  0.68470276  1
  H+  H203  1  0.13478099  0.36751996  0.17464346  1
  H+  H204  1  0.40323590  0.11179132  0.85817865  1
  H+  H205  1  0.63348844  0.36752300  0.49698895  1
  H+  H206  1  0.33684162  0.07853373  0.62520193  1
  H+  H207  1  0.25361522  0.37034107  -0.00432904  1
  H+  H208  1  0.67268701  1.01199477  0.02423502  1
  H+  H209  1  0.17934567  0.09675457  0.74653379  1
  H+  H210  1  0.86057843  0.14292113  0.81380453  1
  H+  H211  1  0.40335172  0.03140283  0.17183190  1
  H+  H212  1  0.15579897  0.27129207  -0.00788465  1
  H+  H213  1  0.38123781  0.60538313  0.50288923  1
  H+  H214  1  0.67790410  0.92541269  0.01713376  1
  H+  H215  1  0.81739187  0.41468222  0.76599006  1
  H+  H216  1  0.62020972  0.23539491  0.48480156  1
  H+  H217  1  0.89042415  0.38457652  0.16625802  1
  H+  H218  1  0.88618135  0.53208154  0.17113070  1
  H+  H219  1  0.73638734  0.37558545  0.65693785  1
  H+  H220  1  0.62790505  0.13112635  0.86255395  1
  H+  H221  1  0.63136221  0.77104568  0.65485085  1
  H+  H222  1  0.11302608  0.47370155  0.82415603  1
  H+  H223  1  0.71371007  0.35693777  0.84280601  1
  H+  H224  1  0.77417866  0.63675047  0.48166143  1
  H+  H225  1  0.60606254  0.72065634  0.48234030  1
  H+  H226  1  0.97317773  0.11083573  0.65865618  1
  H+  H227  1  0.10370610  -0.01106922  0.67072369  1
  H+  H228  1  0.12923325  0.14141641  1.00936115  1
  H+  H229  1  0.13814979  0.87179689  0.50399753  1
  H+  H230  1  0.35938702  0.22729170  0.49349799  1
  H+  H231  1  0.19773121  0.85138170  0.65547621  1
  H+  H232  1  0.35451610  0.71949262  0.00104765  1
  H+  H233  1  0.63986481  0.38463043  -0.00255936  1
  H+  H234  1  0.89261773  0.01630901  1.01530870  1
  H+  H235  1  0.10537893  0.13299126  0.49433521  1
  H+  H236  1  0.85648298  0.48723555  1.00422757  1
  H+  H237  1  0.35152606  0.87192216  0.34621796  1
  H+  H238  1  0.88006221  0.85703742  0.51253663  1
  H+  H239  1  0.10717405  0.72431898  0.34184805  1
  H+  H240  1  0.07876456  0.63304134  0.81098007  1
  H+  H241  1  0.28909791  0.85356751  0.59902560  1
  H+  H242  1  0.97172724  0.86079779  0.50531534  1
  H+  H243  1  0.58458235  0.66806023  0.72845406  1
  H+  H244  1  0.64776561  0.64927390  0.84424161  1
  H+  H245  1  0.86481097  0.13777940  0.49711000  1
  H+  H246  1  0.63946936  0.02469932  0.83903586  1
  H+  H247  1  0.51737361  0.64360212  0.01348601  1
  H+  H248  1  0.62448829  0.25333802  1.02017401  1
  H+  H249  1  0.39833334  0.51448600  0.83644824  1
  H+  H250  1  0.40715405  0.11905873  0.16627280  1
  H+  H251  1  0.85681084  0.47721265  0.67222871  1
  H+  H252  1  0.42224886  0.57931351  0.93303510  1
  H+  H253  1  0.35744259  0.67532537  0.72478263  1
  H+  H254  1  0.21806292  0.85488089  0.33067419  1
  H+  H255  1  0.16529426  0.32820950  0.55946585  1
  H+  H256  1  0.07726309  0.92168683  0.75426702  1
  H+  H257  1  0.35917209  0.47442325  0.16277700  1
  H+  H258  1  0.12360310  0.77348666  0.17363212  1
  H+  H259  1  0.10565599  0.76644954  0.65506883  1
  H+  H260  1  0.11942600  0.14390794  0.81070027  1
  H+  H261  1  0.62475649  0.23044518  0.86730732  1
  H+  H262  1  0.69066584  0.59731992  0.23580716  1
  H+  H263  1  0.99683706  0.11454549  0.17066942  1
  H+  H264  1  0.87190344  0.61060719  0.65234989  1
  H+  H265  1  0.06190439  0.62574272  0.05780618  1
  H+  H266  1  0.36186180  0.96683996  0.48894239  1
  H+  H267  1  0.11643899  0.46980095  1.00533299  1
  H+  H268  1  0.87421018  0.61027613  0.49907243  1
  H+  H269  1  0.47592068  0.36617233  0.49990996  1
  H+  H270  1  0.33170606  0.82782504  0.19077467  1
  H+  H271  1  0.16539308  0.57431691  0.57114632  1
  H+  H272  1  0.46501071  0.88960012  0.14997960  1
  H+  H273  1  0.63545418  0.61251374  0.18548243  1
  H+  H274  1  0.64761646  0.53370493  0.64326180  1
  H+  H275  1  0.40575551  0.20756691  0.80090247  1
  H+  H276  1  0.89136869  0.29084346  0.98716991  1
  H+  H277  1  0.14084126  0.02459690  0.17926269  1
  H+  H278  1  0.61632023  0.13906286  0.62717068  1
  H+  H279  1  0.65985452  0.46969568  0.84470845  1
  H+  H280  1  0.88012153  1.01983346  0.81909417  1
  H+  H281  1  -0.03862194  0.34633588  0.33643834  1
  H+  H282  1  0.34127922  0.88206512  0.99279821  1
  H+  H283  1  0.82430980  0.40135581  0.39553692  1
  H+  H284  1  0.42494292  0.04865788  1.02805549  1
  H+  H285  1  0.35074355  0.27445763  0.87730583  1
  H+  H286  1  0.26624798  0.13319985  0.33934836  1
  H+  H287  1  0.96896400  0.86723363  0.65794706  1
  H+  H288  1  0.69589965  0.66159902  0.31272219  1
  H+  H289  1  0.56955801  0.90490353  0.41123461  1
  H+  H290  1  0.38511532  0.81178234  0.27867707  1
  H+  H291  1  0.36979987  0.05689406  0.56411770  1
  H+  H292  1  0.60675617  0.21897450  0.15134379  1
  H+  H293  1  0.08309770  0.92490303  0.11031741  1
  H+  H294  1  0.88766008  0.78417602  0.98931593  1
  H+  H295  1  0.07954310  0.41841415  0.10029829  1
  H+  H296  1  0.21576600  0.35820130  0.32892975  1
  H+  H297  1  0.89956536  0.07859906  0.87672388  1
  H+  H298  1  0.32384379  0.40711517  0.40289356  1
  H+  H299  1  0.66903115  0.34201782  0.55554494  1
  H+  H300  1  0.87054690  0.89219155  0.01070192  1
  H+  H301  1  0.66596265  0.59034355  0.54843982  1
  H+  H302  1  0.38823904  0.82697323  0.91470781  1
  H+  H303  1  0.26778014  0.88379785  0.49985795  1
  H+  H304  1  0.60552292  0.37014514  0.33793045  1
  H+  H305  1  0.15890662  0.58106651  0.23148256  1
  H+  H306  1  0.62873887  0.18002692  0.74887646  1
  H+  H307  1  0.82518201  0.15941481  0.40614850  1
  H+  H308  1  0.36629635  0.22757979  0.16359923  1
  H+  H309  1  0.70928510  0.88400149  0.29354154  1
  H+  H310  1  0.67132552  0.61756189  0.94540390  1
  H+  H311  1  0.67283246  0.84031734  0.90107256  1
  H+  H312  1  0.50283084  0.14135890  1.01719587  1
  H+  H313  1  0.32462179  0.15595599  0.07929321  1
  H+  H314  1  0.48134255  0.11734792  0.48624789  1
  H+  H315  1  0.10582330  -0.02196363  0.49550922  1
  H+  H316  1  0.42605637  0.08837590  0.92599759  1
  H+  H317  1  0.07352641  0.40868625  0.39994901  1
  H+  H318  1  -0.01788060  0.37760636  0.16634842  1
  H+  H319  1  0.19260012  0.58440037  0.89594304  1
  H+  H320  1  0.66525808  0.09057828  0.94476680  1
  H+  H321  1  0.82605280  0.91336303  0.75843448  1
  H+  H322  1  0.52590052  0.39495390  0.15860086  1
  H+  H323  1  0.90589576  0.33822127  0.60147097  1
  H+  H324  1  0.67651758  0.33226521  0.24331801  1
  H+  H325  1  0.52269426  0.89358831  0.82369391  1
  H+  H326  1  0.15237548  0.03476366  0.80172894  1
  H+  H327  1  0.84530425  0.91505722  0.07725768  1
  H+  H328  1  0.43099452  0.59690717  0.26668363  1
  H+  H329  1  0.34599879  0.14857692  0.71381687  1
  H+  H330  1  0.20473989  0.83664784  1.02013486  1
  H+  H331  1  0.65599166  0.94396362  0.11008051  1
  H+  H332  1  0.91276511  0.83171262  0.59595881  1
  H+  H333  1  0.07934120  0.92121984  0.43427599  1
  H+  H334  1  0.53005071  0.34215376  0.77086712  1
  H+  H335  1  0.15214697  0.07915246  0.57409002  1
  H+  H336  1  0.16649374  0.08253152  0.27106008  1
  H+  H337  1  0.66295598  0.34049917  0.90807429  1
  H+  H338  1  0.11078731  0.13787090  0.34012974  1
  H+  H339  1  0.15653132  0.83513538  0.87585934  1
  H+  H340  1  0.94727989  0.06550279  0.95841983  1
  H+  H341  1  0.82570994  0.17305662  0.75875573  1
  H+  H342  1  0.32380591  0.16854941  0.39919326  1
  H+  H343  1  0.32826392  0.42048332  0.06891297  1
  H+  H344  1  0.15478019  0.83795593  0.56545286  1
  H+  H345  1  0.42948392  0.36194680  0.94781091  1
  H+  H346  1  0.12888286  0.26915245  0.32742052  1
  H+  H347  1  0.11382092  0.46838186  0.49657808  1
  H+  H348  1  0.89862454  0.58637892  0.92769917  1
  H+  H349  1  0.83304096  0.42540860  0.09997384  1
  H+  H350  1  0.88077731  0.28447790  0.16893592  1
  H+  H351  1  0.15858469  0.82983236  0.27078966  1
  H+  H352  1  0.42822238  0.82694459  0.59071884  1
  H+  H353  1  0.80920280  0.19936077  0.10886791  1
  H+  H354  1  0.17999461  0.08473161  0.94290873  1
  H+  H355  1  0.59191116  0.43484068  0.07207226  1
  H+  H356  1  0.77295646  0.13563076  0.66586377  1
  H+  H357  1  0.07777800  0.16247265  0.43268105  1
  H+  H358  1  0.56479982  0.66565203  0.07777163  1
  H+  H359  1  0.31687515  0.89440311  0.40626201  1
  H+  H360  1  0.83854262  0.68060492  0.10145918  1
  H+  H361  1  0.91461333  0.08641679  0.56620939  1
  H+  H362  1  0.67381449  0.07561432  0.58829874  1
  H+  H363  1  0.37970348  0.26432603  0.32383342  1
  H+  H364  1  0.33089084  0.65414358  0.10372795  1
  H+  H365  1  0.85577679  0.88328650  0.66654916  1
  H+  H366  1  0.62290451  0.21855143  0.74768111  1
  H+  H367  1  0.62620283  0.47215084  0.73657397  1
  H+  H368  1  0.41296843  0.57297982  0.55957658  1
  H+  H369  1  0.41584400  0.33302230  0.23062228  1
  H+  H370  1  0.08042819  0.17191295  0.72211230  1
  H+  H371  1  0.85005629  0.38990664  0.82617555  1
  H+  H372  1  0.95699556  0.59599976  0.50156947  1
  H+  H373  1  0.89542792  0.57421267  0.59263785  1
  H+  H374  1  0.65118237  0.82468648  0.55516013  1
  H+  H375  1  0.91385739  0.34960646  0.92940253  1
  H+  H376  1  0.88085020  0.28278603  0.83482058  1
  H+  H377  1  0.68567290  0.08349815  0.24821659  1
  H+  H378  1  0.86298213  0.52261350  0.83391636  1
  H+  H379  1  0.10874598  0.63887526  0.15744119  1
  H+  H380  1  0.65934934  0.56837739  0.85580504  1
  H+  H381  1  0.94110116  0.11708815  0.25572999  1
  H+  H382  1  0.11282698  0.18282475  0.10433404  1
  H+  H383  1  0.33233259  0.41459688  0.76088165  1
  O2-  O384  1  0.10988770  0.17902726  0.14921942  1
  O2-  O385  1  0.07628171  0.16392848  0.47839309  1
  O2-  O386  1  0.08842381  0.17663225  0.80870883  1
  O2-  O387  1  0.07751573  0.41707832  0.14647769  1
  O2-  O388  1  0.07901367  0.40995675  0.47866283  1
  O2-  O389  1  0.07153018  0.41208378  0.82179398  1
  O2-  O390  1  0.07911644  0.66716840  0.13779060  1
  O2-  O391  1  0.05026822  0.59881135  0.46553236  1
  O2-  O392  1  0.05297814  0.66745666  0.79997960  1
  O2-  O393  1  0.08662642  0.92330296  0.15498675  1
  O2-  O394  1  0.07760605  0.91804999  0.47979915  1
  O2-  O395  1  0.08863082  0.92556644  0.80132821  1
  O2-  O396  1  0.33711240  0.16620174  0.15040058  1
  O2-  O397  1  0.32432303  0.16663663  0.47960630  1
  O2-  O398  1  0.36140282  0.14621180  0.80208244  1
  O2-  O399  1  0.33056749  0.41582929  0.14268269  1
  O2-  O400  1  0.32638652  0.40876425  0.47469553  1
  O2-  O401  1  0.33093805  0.41769339  0.80680913  1
  O2-  O402  1  0.32286069  0.65040287  0.14821627  1
  O2-  O403  1  0.33337169  0.66218676  0.48141328  1
  O2-  O404  1  0.36160955  0.66536648  0.80785042  1
  O2-  O405  1  0.32006161  0.91011975  0.15533935  1
  O2-  O406  1  0.32837111  0.90345699  0.48482192  1
  O2-  O407  1  0.34025327  0.93639414  0.81448784  1
  O2-  O408  1  0.64856818  0.23651872  0.18477029  1
  O2-  O409  1  0.59399535  0.17669854  0.46605918  1
  O2-  O410  1  0.59581980  0.16427647  0.87550834  1
  O2-  O411  1  0.58492557  0.42710371  0.14166523  1
  O2-  O412  1  0.57627518  0.41339580  0.47443299  1
  O2-  O413  1  0.51063660  0.30575504  0.80753153  1
  O2-  O414  1  0.54800777  0.64069237  0.15879391  1
  O2-  O415  1  0.57975687  0.66012976  0.46727232  1
  O2-  O416  1  0.58984034  0.67947803  0.80886114  1
  O2-  O417  1  0.63668538  0.92711296  0.15431898  1
  O2-  O418  1  0.56696190  0.89807206  0.47416609  1
  O2-  O419  1  0.58418637  0.92337898  0.81215619  1
  O2-  O420  1  0.83183381  0.20148495  0.14935492  1
  O2-  O421  1  0.83272522  0.16657466  0.48112247  1
  O2-  O422  1  0.82760346  0.17259673  0.80531461  1
  O2-  O423  1  0.83703384  0.42451934  0.14531198  1
  O2-  O424  1  0.82866375  0.41347018  0.47061738  1
  O2-  O425  1  0.81407459  0.41473136  0.81189676  1
  O2-  O426  1  0.83994391  0.67591146  0.14643328  1
  O2-  O427  1  0.83670439  0.66363584  0.47399093  1
  O2-  O428  1  0.83720296  0.68915992  0.80513817  1
  O2-  O429  1  0.85903884  0.91839753  0.14428995  1
  O2-  O430  1  0.82760998  0.90606902  0.50952878  1
  O2-  O431  1  0.82873216  0.91982124  0.80446853  1
  O2-  O432  1  0.17588693  0.08509815  0.19522003  1
  O2-  O433  1  0.15554574  0.08145606  0.52824264  1
  O2-  O434  1  0.18699684  0.09765163  0.79125281  1
  O2-  O435  1  0.16906041  0.34152954  0.18960437  1
  O2-  O436  1  0.16502332  0.32994288  0.51286656  1
  O2-  O437  1  0.17148533  0.33541196  0.85848369  1
  O2-  O438  1  0.15716729  0.58103361  0.18601634  1
  O2-  O439  1  0.16831161  0.57409107  0.52624850  1
  O2-  O440  1  0.20361137  0.58772759  0.85004857  1
  O2-  O441  1  0.15534733  0.83316702  0.18926193  1
  O2-  O442  1  0.16914029  0.84371320  0.52144092  1
  O2-  O443  1  0.15859005  0.83515759  0.83158630  1
  O2-  O444  1  0.44426003  0.09319304  0.16816693  1
  O2-  O445  1  0.41777424  0.08418678  0.48181886  1
  O2-  O446  1  0.43114243  0.08383045  0.88081968  1
  O2-  O447  1  0.41790854  0.33403534  0.18508684  1
  O2-  O448  1  0.41546346  0.33450881  0.51682035  1
  O2-  O449  1  0.39705780  0.33229729  0.86825574  1
  O2-  O450  1  0.38430166  0.56190826  0.20535955  1
  O2-  O451  1  0.40932628  0.57116185  0.51432904  1
  O2-  O452  1  0.43145173  0.57424671  0.85381541  1
  O2-  O453  1  0.33062566  0.78149260  0.21584544  1
  O2-  O454  1  0.42192010  0.82323781  0.52022882  1
  O2-  O455  1  0.40537829  0.84273483  0.83722138  1
  O2-  O456  1  0.69758801  0.08943706  0.20388762  1
  O2-  O457  1  0.66537789  0.07705799  0.51224746  1
  O2-  O458  1  0.67298167  0.08414690  0.85674801  1
  O2-  O459  1  0.67933567  0.32878952  0.19032353  1
  O2-  O460  1  0.66576801  0.33794235  0.51042420  1
  O2-  O461  1  0.65600693  0.32270613  0.86328289  1
  O2-  O462  1  0.67549377  0.59081564  0.19161040  1
  O2-  O463  1  0.66219362  0.58271537  0.50402598  1
  O2-  O464  1  0.68493103  0.62940755  0.86580529  1
  O2-  O465  1  0.71370718  0.85480798  0.21185155  1
  O2-  O466  1  0.65199025  0.82377745  0.51022154  1
  O2-  O467  1  0.66667673  0.84081275  0.85574621  1
  O2-  O468  1  0.93641644  0.08512853  0.18409301  1
  O2-  O469  1  0.91174339  0.08544253  0.52085220  1
  O2-  O470  1  0.91152822  0.08260120  0.83335290  1
  O2-  O471  1  0.92000100  0.35163568  0.18181294  1
  O2-  O472  1  0.91207616  0.33383033  0.51958729  1
  O2-  O473  1  0.90787160  0.34174857  0.85196736  1
  O2-  O474  1  0.92006733  0.59334118  0.18353235  1
  O2-  O475  1  0.89763283  0.57254444  0.51679143  1
  O2-  O476  1  0.89205057  0.58343787  0.84882505  1
  O2-  O477  1  0.93740063  0.85170109  0.19162963  1
  O2-  O478  1  0.91257938  0.82570082  0.52223094  1
  O2-  O479  1  0.92553185  0.85353579  0.84917772  1
  O2-  O480  1  0.16492768  0.08432348  0.31668814  1
  O2-  O481  1  0.14695522  0.07467651  0.65416033  1
  O2-  O482  1  0.17316820  0.08213130  0.98692101  1
  O2-  O483  1  0.15652746  0.33069714  0.31228385  1
  O2-  O484  1  0.16457918  0.32601145  0.63080088  1
  O2-  O485  1  0.19017452  0.33203934  0.97506474  1
  O2-  O486  1  0.15824969  0.57569033  0.31135190  1
  O2-  O487  1  0.18542730  0.58360089  0.65405700  1
  O2-  O488  1  0.17447362  0.57562447  0.96703568  1
  O2-  O489  1  0.15697219  0.82707129  0.31604312  1
  O2-  O490  1  0.13690170  0.83052561  0.64550974  1
  O2-  O491  1  0.14147135  0.80285725  1.02690833  1
  O2-  O492  1  0.41066190  0.07314796  0.36534644  1
  O2-  O493  1  0.33290638  0.03127864  0.59970739  1
  O2-  O494  1  0.44107440  0.09895590  1.00258820  1
  O2-  O495  1  0.41131281  0.32522253  0.30835438  1
  O2-  O496  1  0.40939145  0.32161096  0.63499031  1
  O2-  O497  1  0.43044324  0.36597113  0.99236451  1
  O2-  O498  1  0.45736112  0.62310012  0.30909921  1
  O2-  O499  1  0.41543476  0.57309935  0.63971648  1
  O2-  O500  1  0.41728114  0.58461574  0.97787634  1
  O2-  O501  1  0.40638501  0.82369079  0.32223044  1
  O2-  O502  1  0.42634504  0.82907901  0.63772434  1
  O2-  O503  1  0.38420413  0.82552029  0.96022766  1
  O2-  O504  1  0.65575107  0.06752556  0.32512586  1
  O2-  O505  1  0.67683526  0.08044513  0.63394207  1
  O2-  O506  1  0.67584905  0.10405730  0.98841698  1
  O2-  O507  1  0.66963911  0.32666279  0.30188118  1
  O2-  O508  1  0.67913699  0.34931926  0.63427576  1
  O2-  O509  1  0.66682064  0.35110646  0.98060504  1
  O2-  O510  1  0.71996908  0.62173675  0.31096013  1
  O2-  O511  1  0.67151161  0.59477204  0.63534325  1
  O2-  O512  1  0.66904810  0.60811274  0.99004182  1
  O2-  O513  1  0.69287962  0.86637760  0.33624447  1
  O2-  O514  1  0.66335317  0.83091288  0.63947378  1
  O2-  O515  1  0.68083608  0.83922907  0.98027193  1
  O2-  O516  1  0.95519655  0.15018053  0.29483864  1
  O2-  O517  1  0.91125538  0.08362195  0.64558239  1
  O2-  O518  1  0.92993808  0.07794896  0.99734949  1
  O2-  O519  1  0.89939804  0.31475431  0.32389032  1
  O2-  O520  1  0.90205800  0.33862214  0.64645533  1
  O2-  O521  1  0.91492978  0.35127874  0.97515042  1
  O2-  O522  1  0.90246832  0.60400662  0.30747573  1
  O2-  O523  1  0.89741025  0.57550680  0.63849006  1
  O2-  O524  1  0.90156229  0.58757197  0.97317674  1
  O2-  O525  1  0.92877029  0.85493645  0.30748891  1
  O2-  O526  1  0.90840306  0.83239161  0.64207442  1
  O2-  O527  1  0.91858073  0.84455409  0.97307849  1
  O2-  O528  1  0.10588107  0.17913658  0.02314883  1
  O2-  O529  1  0.08515010  0.17187147  0.35618262  1
  O2-  O530  1  0.07664460  0.16347997  0.67774004  1
  O2-  O531  1  0.07758623  0.41526237  0.02612967  1
  O2-  O532  1  0.06798413  0.40699888  0.35451327  1
  O2-  O533  1  0.15503365  0.51346170  0.68911670  1
  O2-  O534  1  0.06459409  0.62952167  0.01250635  1
  O2-  O535  1  0.07448304  0.66228509  0.35433692  1
  O2-  O536  1  0.06434448  0.66806040  0.67044426  1
  O2-  O537  1  0.07557832  0.91696837  0.02488026  1
  O2-  O538  1  0.08223833  0.92037970  0.35656498  1
  O2-  O539  1  0.06747575  0.92242327  0.68712715  1
  O2-  O540  1  0.31966168  0.14853133  0.03323088  1
  O2-  O541  1  0.32760637  0.16539512  0.35406081  1
  O2-  O542  1  0.32842158  0.15172311  0.67204303  1
  O2-  O543  1  0.33182772  0.42170503  0.02270065  1
  O2-  O544  1  0.32186074  0.40407130  0.35630106  1
  O2-  O545  1  0.33407640  0.41176681  0.68558798  1
  O2-  O546  1  0.33083842  0.66146684  0.01837407  1
  O2-  O547  1  0.32593112  0.65418574  0.35898426  1
  O2-  O548  1  0.35025712  0.67258741  0.68019739  1
  O2-  O549  1  0.31344071  0.90867753  0.01718365  1
  O2-  O550  1  0.31710206  0.89853865  0.36084805  1
  O2-  O551  1  0.31125680  0.88438821  0.63729020  1
  O2-  O552  1  0.59722494  0.19576881  0.03991636  1
  O2-  O553  1  0.62225847  0.23258237  0.31085246  1
  O2-  O554  1  0.58273671  0.16711073  0.61704859  1
  O2-  O555  1  0.59394272  0.43681356  0.02509908  1
  O2-  O556  1  0.57596273  0.39850917  0.35614109  1
  O2-  O557  1  0.57458749  0.43431321  0.71325821  1
  O2-  O558  1  0.57487282  0.67602397  0.03336039  1
  O2-  O559  1  0.63835852  0.71175855  0.29358763  1
  O2-  O560  1  0.57930060  0.66351706  0.68337141  1
  O2-  O561  1  0.68961236  0.97375242  0.04465476  1
  O2-  O562  1  0.57623987  0.91182528  0.36184126  1
  O2-  O563  1  0.58623015  0.91731463  0.68308322  1
  O2-  O564  1  0.85093128  0.17328708  -0.02180166  1
  O2-  O565  1  0.82172761  0.16008370  0.36057044  1
  O2-  O566  1  0.83097956  0.16860860  0.68604116  1
  O2-  O567  1  0.82933170  0.42773421  0.02147719  1
  O2-  O568  1  0.82545688  0.39144514  0.35055699  1
  O2-  O569  1  0.82663854  0.41782715  0.68982062  1
  O2-  O570  1  0.83653359  0.68558388  0.02097990  1
  O2-  O571  1  0.80981508  0.67848321  0.32705932  1
  O2-  O572  1  0.82830318  0.67287278  0.67975134  1
  O2-  O573  1  0.83996113  0.91968353  0.03018230  1
  O2-  O574  1  0.87584829  0.96949320  0.35630339  1
  O2-  O575  1  0.82589566  0.91305624  0.68409745  1
