# generated using pymatgen
data_H2O
_symmetry_space_group_name_H-M   'P 1'
_cell_length_a   17.99920196
_cell_length_b   17.99809113
_cell_length_c   22.01187851
_cell_angle_alpha   90.00734208
_cell_angle_beta   89.99128865
_cell_angle_gamma   119.99753002
_symmetry_Int_Tables_number   1
_chemical_formula_structural   H2O
_chemical_formula_sum   'H384 O192'
_cell_volume   6175.58691236
_cell_formula_units_Z   192
loop_
 _symmetry_equiv_pos_site_id
 _symmetry_equiv_pos_as_xyz
  1  'x, y, z'
loop_
 _atom_type_symbol
 _atom_type_oxidation_number
  H+  1.0
  O2-  -2.0
loop_
 _atom_site_type_symbol
 _atom_site_label
 _atom_site_symmetry_multiplicity
 _atom_site_fract_x
 _atom_site_fract_y
 _atom_site_fract_z
 _atom_site_occupancy
  H+  H0  1  0.10990622  0.88423378  0.00455985  1
  H+  H1  1  0.87917569  0.10557005  0.98467654  1
  H+  H2  1  0.64251126  0.12103679  0.00080237  1
  H+  H3  1  0.60349750  0.87597169  0.02512758  1
  H+  H4  1  0.39276636  0.85411556  0.52183772  1
  H+  H5  1  0.14561784  0.52017666  0.33064758  1
  H+  H6  1  -0.03471891  0.88052214  -0.00768262  1
  H+  H7  1  0.23312689  0.61088547  0.33218787  1
  H+  H8  1  0.27782594  0.89838150  0.83262428  1
  H+  H9  1  0.34540410  0.12628122  0.49387814  1
  H+  H10  1  0.59543914  0.16852907  0.43333331  1
  H+  H11  1  0.63000118  0.35083991  0.50085991  1
  H+  H12  1  0.39667038  0.78176938  0.84419712  1
  H+  H13  1  0.66961360  0.82877774  0.91867989  1
  H+  H14  1  0.43057371  0.09765959  0.93742186  1
  H+  H15  1  0.65396070  0.73877036  0.35304061  1
  H+  H16  1  0.62282212  0.97861578  0.85723814  1
  H+  H17  1  0.62694656  0.10079994  0.31936728  1
  H+  H18  1  0.09284410  0.21897515  0.67755433  1
  H+  H19  1  0.75743115  0.11045011  0.48753959  1
  H+  H20  1  0.10659362  0.13930613  0.50451891  1
  H+  H21  1  0.23199449  0.61694207  0.50495941  1
  H+  H22  1  0.53218193  0.87631094  0.33471839  1
  H+  H23  1  0.61492719  0.63755472  1.00447287  1
  H+  H24  1  0.77445724  0.87973818  0.48474059  1
  H+  H25  1  0.16279433  0.34204900  0.92783599  1
  H+  H26  1  0.67714184  0.58223415  0.69714559  1
  H+  H27  1  0.61740209  0.89935815  0.63459126  1
  H+  H28  1  1.02438351  0.80513017  0.62501238  1
  H+  H29  1  0.88401264  0.86352684  0.31959077  1
  H+  H30  1  0.60079791  0.64967324  0.50228097  1
  H+  H31  1  0.63121659  1.02197416  0.51020233  1
  H+  H32  1  0.49514771  0.35487922  0.49498303  1
  H+  H33  1  0.52317864  0.63425773  0.00314375  1
  H+  H34  1  0.14880180  0.88360578  0.83877110  1
  H+  H35  1  0.37528626  0.51349355  0.49592755  1
  H+  H36  1  0.10997210  0.72684051  0.49061687  1
  H+  H37  1  0.87690758  0.40618444  0.34046502  1
  H+  H38  1  0.38429761  0.09165428  0.36950522  1
  H+  H39  1  0.92133867  0.32185116  0.91678636  1
  H+  H40  1  0.13038012  0.86811914  0.17196540  1
  H+  H41  1  0.81949848  0.37002783  0.66831782  1
  H+  H42  1  0.22128899  0.36094904  0.50688288  1
  H+  H43  1  0.48531181  0.61989094  0.62848384  1
  H+  H44  1  0.36377580  0.22558760  0.16261574  1
  H+  H45  1  0.88355922  0.64980214  0.49801176  1
  H+  H46  1  0.61105974  0.97200892  0.33438791  1
  H+  H47  1  0.79778998  0.65582015  0.48748810  1
  H+  H48  1  0.76804895  0.86112554  0.83704702  1
  H+  H49  1  0.32307537  0.89393304  0.46396838  1
  H+  H50  1  0.23904435  0.11129462  -0.00079682  1
  H+  H51  1  0.35683095  0.72465950  0.00463776  1
  H+  H52  1  0.14776715  0.62609817  0.18199228  1
  H+  H53  1  0.11695817  0.62636723  0.35039844  1
  H+  H54  1  0.88392421  0.76737536  0.16961055  1
  H+  H55  1  0.96231536  0.11020552  0.67216441  1
  H+  H56  1  0.10918471  0.97003462  0.15109020  1
  H+  H57  1  0.14490982  0.52967434  0.66379737  1
  H+  H58  1  0.86835160  0.46748899  0.99743019  1
  H+  H59  1  0.64748220  0.61288962  0.85567972  1
  H+  H60  1  0.34758016  0.37412789  0.49039661  1
  H+  H61  1  0.10708323  0.21956327  0.15974548  1
  H+  H62  1  0.64513678  0.12439115  0.83998780  1
  H+  H63  1  0.78096310  0.62280746  0.00909229  1
  H+  H64  1  0.10445593  0.73277885  0.17188224  1
  H+  H65  1  0.36492949  0.38311930  0.33917300  1
  H+  H66  1  0.14387768  0.77786929  -0.01973672  1
  H+  H67  1  0.37954974  0.86700397  -0.00403189  1
  H+  H68  1  0.90544111  0.78542362  0.50892003  1
  H+  H69  1  0.15441774  0.79246982  0.83750669  1
  H+  H70  1  0.60777632  0.62629570  0.15859080  1
  H+  H71  1  0.12118427  -0.01015388  0.68936480  1
  H+  H72  1  0.84961032  0.47040801  0.67206244  1
  H+  H73  1  0.73962722  0.13961843  0.84668465  1
  H+  H74  1  0.88855738  0.26772858  0.97834156  1
  H+  H75  1  0.89086915  0.53374745  0.50829314  1
  H+  H76  1  0.36759797  0.72280027  0.49704035  1
  H+  H77  1  0.63879671  0.35827194  0.86038785  1
  H+  H78  1  0.64614054  0.27145317  0.50008625  1
  H+  H79  1  0.87764984  0.10711901  0.17047136  1
  H+  H80  1  0.62980578  0.73818965  0.63706037  1
  H+  H81  1  0.62241304  0.49355790  0.62194942  1
  H+  H82  1  0.62134855  0.13604256  0.49295766  1
  H+  H83  1  0.37743057  0.24220705  1.00896052  1
  H+  H84  1  0.12793235  0.27869279  -0.01393773  1
  H+  H85  1  0.89507879  0.28558570  0.67298041  1
  H+  H86  1  0.87510138  0.07544792  0.50980680  1
  H+  H87  1  0.87427365  0.74071088  0.33856497  1
  H+  H88  1  0.48649020  0.38259009  0.00771817  1
  H+  H89  1  -0.00405536  0.14679090  0.83869292  1
  H+  H90  1  0.67272502  0.32545878  0.91405130  1
  H+  H91  1  0.86759110  0.40434946  0.49963990  1
  H+  H92  1  0.84037515  0.17208427  0.05532997  1
  H+  H93  1  0.12864291  0.26380487  0.33916043  1
  H+  H94  1  0.63356879  0.77375717  1.00645076  1
  H+  H95  1  0.35940282  0.11352792  0.82093534  1
  H+  H96  1  0.86464839  0.37799348  -0.01184093  1
  H+  H97  1  0.26642291  0.64672933  0.67767304  1
  H+  H98  1  0.87352340  0.51623367  0.18673524  1
  H+  H99  1  0.04439919  0.40193866  0.69091665  1
  H+  H100  1  0.12850598  1.02574083  0.50870285  1
  H+  H101  1  0.51071842  0.87072279  0.12249720  1
  H+  H102  1  0.36320200  0.63801163  0.00543749  1
  H+  H103  1  0.40609365  0.53426439  0.65241826  1
  H+  H104  1  1.01635967  0.13151830  0.15807771  1
  H+  H105  1  0.38137041  0.10404440  0.14094001  1
  H+  H106  1  0.22557220  0.60526907  -0.01513509  1
  H+  H107  1  0.92787824  0.36400149  0.58250104  1
  H+  H108  1  0.13518998  0.51700328  -0.01197743  1
  H+  H109  1  0.58774441  0.66401365  0.68389439  1
  H+  H110  1  0.13164675  0.44700523  0.79847872  1
  H+  H111  1  0.02185962  0.38520157  -0.00234136  1
  H+  H112  1  0.63176778  0.78331667  0.50695871  1
  H+  H113  1  0.84621461  0.11875844  0.32941673  1
  H+  H114  1  0.14273086  0.74612402  0.33168658  1
  H+  H115  1  0.52570117  0.88640891  0.49692206  1
  H+  H116  1  0.20201675  0.85423521  0.51771142  1
  H+  H117  1  0.44808949  0.86122628  0.69435911  1
  H+  H118  1  0.11754581  0.63227059  0.82031919  1
  H+  H119  1  0.70597514  0.36728417  0.65642706  1
  H+  H120  1  0.62362714  0.08554636  0.22114349  1
  H+  H121  1  0.68004597  0.63188634  0.44058189  1
  H+  H122  1  0.53231369  0.90458277  0.62878593  1
  H+  H123  1  0.11237305  0.38568236  0.49897685  1
  H+  H124  1  0.62619582  0.14581025  0.10777211  1
  H+  H125  1  0.52586556  0.62637474  0.87916001  1
  H+  H126  1  0.61300851  0.38909956  0.35765535  1
  H+  H127  1  0.98616962  0.61256496  0.98545242  1
  H+  H128  1  0.12835166  0.55075992  0.87761314  1
  H+  H129  1  0.12223847  0.62700273  -0.01741876  1
  H+  H130  1  0.77085205  0.37693436  0.83569702  1
  H+  H131  1  1.01591228  0.13762081  0.51051728  1
  H+  H132  1  0.22960314  0.12886892  0.66084059  1
  H+  H133  1  0.90762282  0.72710879  0.67295234  1
  H+  H134  1  0.09428390  0.36583793  0.15805957  1
  H+  H135  1  0.13670756  0.12246533  0.66403613  1
  H+  H136  1  0.64409673  0.87698901  0.50317897  1
  H+  H137  1  0.01796647  0.89984172  0.33470005  1
  H+  H138  1  0.50634594  0.63698998  0.49581241  1
  H+  H139  1  0.48056927  0.36453074  0.33296274  1
  H+  H140  1  0.71559358  0.10303768  0.31064091  1
  H+  H141  1  0.36740456  0.98425328  0.00009029  1
  H+  H142  1  0.35160540  0.89460705  0.67803502  1
  H+  H143  1  0.35644726  0.97482477  0.14459849  1
  H+  H144  1  0.61760223  0.22982631  0.83127864  1
  H+  H145  1  0.86106308  0.85602296  0.67543979  1
  H+  H146  1  0.52129639  0.37821233  0.16214421  1
  H+  H147  1  0.38402288  0.52494840  0.99848248  1
  H+  H148  1  0.35752459  0.25230481  0.50270837  1
  H+  H149  1  0.85647365  0.63122831  0.16791627  1
  H+  H150  1  0.88555774  0.29898350  0.52970323  1
  H+  H151  1  0.27275170  0.37694880  0.33832865  1
  H+  H152  1  0.86546534  0.88251932  0.15490803  1
  H+  H153  1  0.34888302  0.49099935  0.84692962  1
  H+  H154  1  0.86451568  0.03236846  0.67793522  1
  H+  H155  1  0.35900344  0.63019170  0.49005336  1
  H+  H156  1  0.10038834  -0.00834432  0.33143835  1
  H+  H157  1  0.57408445  0.41707172  0.53312448  1
  H+  H158  1  0.40423941  0.75098420  0.31442452  1
  H+  H159  1  0.14303749  0.52783410  0.50562547  1
  H+  H160  1  0.77424421  0.88378415  0.33347662  1
  H+  H161  1  0.58080451  0.92018188  0.43438069  1
  H+  H162  1  0.12092400  0.97745956  0.01172121  1
  H+  H163  1  0.88233935  0.50769661  0.84786978  1
  H+  H164  1  0.64633137  0.28158890  0.34820679  1
  H+  H165  1  0.88618093  0.60242471  0.84397842  1
  H+  H166  1  0.87735078  0.53471915  0.33411668  1
  H+  H167  1  0.11117151  0.38795377  0.00182888  1
  H+  H168  1  0.89529074  0.60153712  0.66626982  1
  H+  H169  1  0.64861250  0.36820420  1.00516000  1
  H+  H170  1  0.28097795  0.64641643  0.15951210  1
  H+  H171  1  0.78838801  0.63419883  0.82862345  1
  H+  H172  1  0.61010963  0.39895424  0.62205523  1
  H+  H173  1  0.36298303  0.62883565  0.33915352  1
  H+  H174  1  0.57231939  0.41266433  0.41322951  1
  H+  H175  1  0.35805260  0.47319600  0.16196458  1
  H+  H176  1  0.38773089  0.40023877  0.67849556  1
  H+  H177  1  0.95884984  0.10639972  0.33423235  1
  H+  H178  1  0.91769660  0.08759208  0.92550682  1
  H+  H179  1  0.36547063  0.89334953  0.83275793  1
  H+  H180  1  0.63303760  0.35826934  0.18580776  1
  H+  H181  1  0.90630412  0.77716127  0.84499026  1
  H+  H182  1  0.38809228  0.61444297  0.16766591  1
  H+  H183  1  0.22162286  0.11037887  0.85178895  1
  H+  H184  1  0.77537639  0.39576727  0.49034851  1
  H+  H185  1  0.45068645  0.08789417  0.10726154  1
  H+  H186  1  1.01154070  0.14446092  0.99823571  1
  H+  H187  1  0.61017764  0.71682434  0.86564975  1
  H+  H188  1  0.64481175  0.86143790  0.32563357  1
  H+  H189  1  0.52914992  0.14127620  0.01748625  1
  H+  H190  1  0.39586934  0.27323225  0.32927375  1
  H+  H191  1  0.36955597  0.96465043  0.51421430  1
  H+  H192  1  0.61701438  0.51335933  0.32609347  1
  H+  H193  1  0.80909639  0.65066837  0.67283735  1
  H+  H194  1  0.85647582  0.17836194  0.47886295  1
  H+  H195  1  0.32593114  0.41170589  0.10390760  1
  H+  H196  1  0.88609629  0.25234723  0.32391506  1
  H+  H197  1  0.17310028  0.84579415  0.92668969  1
  H+  H198  1  0.87022839  0.33516002  0.82391268  1
  H+  H199  1  0.63967346  0.52717303  0.99867524  1
  H+  H200  1  0.20766002  0.33723881  0.65490357  1
  H+  H201  1  0.39410069  0.28018959  0.65773673  1
  H+  H202  1  0.91691040  0.16354193  0.84220411  1
  H+  H203  1  0.23130824  0.39380192  0.82567225  1
  H+  H204  1  0.76508486  0.39139649  0.18055137  1
  H+  H205  1  0.26484518  0.85927694  0.35446798  1
  H+  H206  1  0.55052494  0.47554694  0.05413039  1
  H+  H207  1  0.38007480  0.77258586  0.15803416  1
  H+  H208  1  0.36041000  0.38733890  0.01289899  1
  H+  H209  1  0.85434484  0.22402716  0.15510243  1
  H+  H210  1  0.80618820  0.91975239  0.75287338  1
  H+  H211  1  0.11097739  0.13408449  0.27186151  1
  H+  H212  1  0.61687558  0.22902308  1.02543994  1
  H+  H213  1  0.38252253  0.36055948  0.17529907  1
  H+  H214  1  0.92463226  0.38271722  0.69269438  1
  H+  H215  1  0.13002003  0.86516844  0.48536901  1
  H+  H216  1  0.07952763  0.16297095  0.73778367  1
  H+  H217  1  0.96371061  0.29031360  0.27974498  1
  H+  H218  1  0.51889107  0.38624203  0.85681550  1
  H+  H219  1  0.86330606  0.96902313  -0.00437632  1
  H+  H220  1  0.86705231  0.88158532  0.64703146  1
  H+  H221  1  0.89015317  0.60750232  0.99540054  1
  H+  H222  1  0.46373325  0.85772808  1.00287972  1
  H+  H223  1  0.39051697  0.57488637  0.93662642  1
  H+  H224  1  0.26072548  0.88185049  0.16695886  1
  H+  H225  1  0.47665574  0.37000462  0.63356794  1
  H+  H226  1  0.12404512  0.13162212  0.83264668  1
  H+  H227  1  0.36804924  0.14310931  0.66508510  1
  H+  H228  1  0.86743378  0.15288109  0.68022863  1
  H+  H229  1  0.72854555  0.85322594  0.17367959  1
  H+  H230  1  0.20247671  0.17499760  0.29812143  1
  H+  H231  1  0.13685807  0.86515375  0.65854166  1
  H+  H232  1  0.48099129  0.77243701  0.27068338  1
  H+  H233  1  -0.03397054  0.60823774  0.19097610  1
  H+  H234  1  0.73576636  0.36316410  -0.00008742  1
  H+  H235  1  0.08670680  0.65985346  0.40796766  1
  H+  H236  1  0.48256424  0.11756984  0.84057509  1
  H+  H237  1  0.47427613  0.60896369  0.17019985  1
  H+  H238  1  0.42389248  0.83290986  0.21502627  1
  H+  H239  1  0.29201922  0.12386102  0.33396056  1
  H+  H240  1  0.64807484  0.52440478  0.85325142  1
  H+  H241  1  0.27371254  0.13742920  0.15156047  1
  H+  H242  1  0.64340565  0.12884389  0.66038185  1
  H+  H243  1  0.71923302  0.87572279  0.66314015  1
  H+  H244  1  0.87348496  0.63560052  0.33610323  1
  H+  H245  1  0.72283058  0.86369612  0.00462336  1
  H+  H246  1  0.56321071  0.17112247  0.30078268  1
  H+  H247  1  0.63876559  0.85529359  0.86088740  1
  H+  H248  1  0.57843289  0.40584693  0.80051280  1
  H+  H249  1  0.63355675  0.51476589  0.17009567  1
  H+  H250  1  0.36915284  0.63588703  0.83386187  1
  H+  H251  1  0.13584104  0.01480721  0.84637333  1
  H+  H252  1  0.53023454  0.89349705  0.85675074  1
  H+  H253  1  0.31391598  0.41663405  0.70280922  1
  H+  H254  1  0.38268687  0.52120739  0.32378184  1
  H+  H255  1  0.35590549  0.87740780  0.16126946  1
  H+  H256  1  0.40933749  0.83356608  0.90665777  1
  H+  H257  1  0.04734782  0.89990743  0.83387961  1
  H+  H258  1  0.86504484  0.88397849  0.48953103  1
  H+  H259  1  0.12124243  0.64332797  0.66831383  1
  H+  H260  1  0.44280302  0.71075797  0.79329864  1
  H+  H261  1  0.13148469  0.10887416  0.15435162  1
  H+  H262  1  0.76842830  0.63153256  0.16089466  1
  H+  H263  1  0.38237411  0.37933757  0.85227132  1
  H+  H264  1  0.38288001  0.02348265  0.66509585  1
  H+  H265  1  0.11658046  0.64028137  0.50227281  1
  H+  H266  1  0.02586926  0.89906221  0.49233961  1
  H+  H267  1  0.39489465  1.02594687  0.84474518  1
  H+  H268  1  0.48384710  0.12003160  0.50593826  1
  H+  H269  1  0.83868995  0.64790571  0.06884456  1
  H+  H270  1  0.87649571  0.01256551  0.32634999  1
  H+  H271  1  0.28710965  0.53688758  0.87967554  1
  H+  H272  1  0.98438149  0.61787767  0.51395294  1
  H+  H273  1  0.02780761  0.39441697  0.49993503  1
  H+  H274  1  0.37744791  -0.00201068  0.37588561  1
  H+  H275  1  0.35391942  0.86502285  0.36658133  1
  H+  H276  1  0.12755595  0.39798189  0.68095830  1
  H+  H277  1  0.13961382  0.35650080  0.33340846  1
  H+  H278  1  1.02873722  0.63143667  0.67425254  1
  H+  H279  1  0.41212388  0.07021971  0.46031013  1
  H+  H280  1  0.52041201  0.13743830  0.67273625  1
  H+  H281  1  0.27039999  0.38615705  1.00639440  1
  H+  H282  1  0.37582285  0.28669375  0.85182528  1
  H+  H283  1  0.08561240  0.12398986  0.36533921  1
  H+  H284  1  0.60351941  0.23019671  0.66969509  1
  H+  H285  1  0.11756848  0.77008649  0.64800630  1
  H+  H286  1  0.85317159  0.39296827  0.16551836  1
  H+  H287  1  0.51119559  0.11592339  0.35641425  1
  H+  H288  1  0.16023554  0.83647879  0.23392270  1
  H+  H289  1  0.77296696  0.14114237  0.00062998  1
  H+  H290  1  0.58550478  0.39811238  0.72313834  1
  H+  H291  1  0.11047774  0.68759146  0.76628722  1
  H+  H292  1  0.34039181  0.66917643  0.39844831  1
  H+  H293  1  0.41201454  0.07497868  0.60163879  1
  H+  H294  1  0.32328103  0.40732463  0.43013179  1
  H+  H295  1  0.27034617  0.06114182  0.78854871  1
  H+  H296  1  0.86073958  0.86864619  0.82440381  1
  H+  H297  1  0.27659027  0.89676289  -0.00262445  1
  H+  H298  1  0.91743231  0.57058542  0.60424459  1
  H+  H299  1  0.06763342  0.39846814  0.09904864  1
  H+  H300  1  0.33556240  0.93116910  0.73930000  1
  H+  H301  1  0.36475571  0.44607461  0.78522134  1
  H+  H302  1  0.68197698  0.58821162  0.93957925  1
  H+  H303  1  0.75490526  0.96749588  0.73531924  1
  H+  H304  1  0.76539839  0.14124754  0.14278777  1
  H+  H305  1  0.55300926  0.41316752  0.72483463  1
  H+  H306  1  0.82015084  0.40939180  0.77217809  1
  H+  H307  1  0.11370680  0.67057031  0.04128728  1
  H+  H308  1  0.90316244  0.33021913  0.22419340  1
  H+  H309  1  0.85893147  0.68857251  0.40348024  1
  H+  H310  1  0.66222350  0.32970658  0.59143290  1
  H+  H311  1  0.91543097  0.83141401  0.26121112  1
  H+  H312  1  0.92163105  0.84195522  0.90007113  1
  H+  H313  1  0.42425868  0.82092186  0.57617466  1
  H+  H314  1  0.40427888  0.57228408  0.55666486  1
  H+  H315  1  0.97472139  0.85545411  0.16703090  1
  H+  H316  1  0.58733807  0.17555160  0.76842245  1
  H+  H317  1  0.67091834  0.09684868  0.93868012  1
  H+  H318  1  0.42380172  0.06643649  0.25719144  1
  H+  H319  1  0.63945726  0.76540914  0.17614936  1
  H+  H320  1  0.17142136  0.58421927  0.60074639  1
  H+  H321  1  0.25281412  0.12302254  0.49486735  1
  H+  H322  1  0.64837971  0.04324754  0.64714193  1
  H+  H323  1  0.40856044  0.57976557  0.26455008  1
  H+  H324  1  0.57860102  0.92577678  0.74202527  1
  H+  H325  1  0.65195337  0.55005347  0.48107901  1
  H+  H326  1  0.06333437  0.16501435  0.42063034  1
  H+  H327  1  0.84066245  0.91222810  0.05635385  1
  H+  H328  1  0.84717922  0.42906125  0.40319727  1
  H+  H329  1  0.89957510  0.58737573  0.26904863  1
  H+  H330  1  0.85196326  0.21132640  0.77185355  1
  H+  H331  1  0.08920598  0.41416269  0.40493677  1
  H+  H332  1  0.13025315  0.27208718  0.51105536  1
  H+  H333  1  0.42137599  0.34704171  0.94731351  1
  H+  H334  1  0.90888080  0.08123222  0.57805602  1
  H+  H335  1  0.16339023  0.32302745  0.23472200  1
  H+  H336  1  0.15303143  0.32885802  0.59746159  1
  H+  H337  1  0.67219198  0.82707580  0.26555604  1
  H+  H338  1  0.85426899  0.66344518  0.77172729  1
  H+  H339  1  0.37237062  0.77070913  0.67122733  1
  H+  H340  1  0.08095777  0.93620088  0.43051271  1
  H+  H341  1  0.08163648  0.90711922  0.09374007  1
  H+  H342  1  0.34700262  0.17836405  0.06573462  1
  H+  H343  1  0.57956400  0.69782933  0.75446330  1
  H+  H344  1  0.33339935  0.67607371  0.73488662  1
  H+  H345  1  0.62368107  0.96291081  0.74403506  1
  H+  H346  1  0.14300285  0.22836951  0.82318711  1
  H+  H347  1  0.65545084  0.57381177  0.22873654  1
  H+  H348  1  0.86220309  0.96957790  0.15473255  1
  H+  H349  1  0.40060545  0.12945358  -0.00434514  1
  H+  H350  1  0.10092765  0.93419454  0.75344231  1
  H+  H351  1  0.91596707  0.57448080  0.91594300  1
  H+  H352  1  0.41570951  0.33288272  0.23434469  1
  H+  H353  1  0.03199010  0.38110856  0.34494871  1
  H+  H354  1  0.07079667  0.17607421  0.05736044  1
  H+  H355  1  0.32410275  0.15700246  0.40174352  1
  H+  H356  1  0.66616982  0.63102331  0.64258570  1
  H+  H357  1  0.43927047  0.11341323  0.25332106  1
  H+  H358  1  0.83470559  0.90963084  0.39345701  1
  H+  H359  1  0.16223301  0.08619647  0.56980727  1
  H+  H360  1  0.73419436  0.37132861  0.34384027  1
  H+  H361  1  0.33799267  0.16524033  0.72635810  1
  H+  H362  1  0.60276264  0.68291835  0.40990295  1
  H+  H363  1  0.17087917  0.07885126  0.94558105  1
  H+  H364  1  0.68256604  0.84990843  0.59217300  1
  H+  H365  1  0.21538492  0.77627231  0.28245832  1
  H+  H366  1  0.62737048  0.71481640  0.75544298  1
  H+  H367  1  0.58093845  0.41089116  0.10309202  1
  H+  H368  1  0.18168868  0.59522428  0.23750947  1
  H+  H369  1  1.00585514  0.86044689  0.66706596  1
  H+  H370  1  0.78130730  0.15871504  0.67736196  1
  H+  H371  1  0.80905389  0.14063271  0.38746922  1
  H+  H372  1  0.16526042  0.08272285  0.21183478  1
  H+  H373  1  0.90734013  0.07814831  0.23023833  1
  H+  H374  1  0.96401807  0.35410870  0.16563918  1
  H+  H375  1  0.22287751  0.35647221  0.17544858  1
  H+  H376  1  0.05552599  0.66267635  0.12124688  1
  H+  H377  1  0.94338928  0.83942511  0.56894812  1
  H+  H378  1  0.63563520  0.60927029  0.32750560  1
  H+  H379  1  0.33344683  0.66819842  0.09573698  1
  H+  H380  1  0.67110531  0.09236956  0.56537341  1
  H+  H381  1  0.66375573  0.34193194  0.24972317  1
  H+  H382  1  0.57980166  0.66018005  0.10049710  1
  H+  H383  1  0.38978694  0.31552223  0.56138991  1
  O2-  O384  1  0.07701671  0.15969197  0.14338013  1
  O2-  O385  1  0.07606588  0.17075115  0.49192327  1
  O2-  O386  1  0.10211273  0.16918692  0.81250087  1
  O2-  O387  1  0.05909006  0.39027259  0.14369379  1
  O2-  O388  1  0.08550609  0.41859999  0.48177848  1
  O2-  O389  1  0.15536162  0.44215249  0.83803519  1
  O2-  O390  1  0.07322052  0.66910568  0.16357186  1
  O2-  O391  1  0.07903862  0.66208433  0.48648626  1
  O2-  O392  1  0.12062567  0.68989542  0.81041694  1
  O2-  O393  1  0.08105397  0.90784622  0.14090228  1
  O2-  O394  1  0.08602678  0.93281417  0.47563642  1
  O2-  O395  1  0.10787661  0.93466386  0.82091626  1
  O2-  O396  1  0.33656953  0.16738197  0.14326069  1
  O2-  O397  1  0.31281634  0.15194871  0.47597743  1
  O2-  O398  1  0.31407761  0.12024584  0.79801229  1
  O2-  O399  1  0.32739971  0.41123202  0.14961454  1
  O2-  O400  1  0.31973493  0.40705693  0.47579277  1
  O2-  O401  1  0.33976876  0.43080694  0.82617334  1
  O2-  O402  1  0.34046709  0.67459550  0.14116604  1
  O2-  O403  1  0.33322912  0.66605080  0.47658837  1
  O2-  O404  1  0.38427379  0.69010234  0.80703004  1
  O2-  O405  1  0.32098332  0.90714163  0.14982877  1
  O2-  O406  1  0.33848971  0.90209986  0.50752165  1
  O2-  O407  1  0.34023601  0.92845458  0.81772628  1
  O2-  O408  1  0.65902314  0.14166352  0.14304794  1
  O2-  O409  1  0.59346064  0.16970465  0.47776499  1
  O2-  O410  1  0.58686288  0.17078186  0.81354599  1
  O2-  O411  1  0.58226581  0.40610590  0.14922053  1
  O2-  O412  1  0.55939430  0.39017328  0.49154855  1
  O2-  O413  1  0.58066001  0.41028993  0.84492742  1
  O2-  O414  1  0.57744231  0.65781392  0.14583138  1
  O2-  O415  1  0.56928060  0.67786259  0.48803510  1
  O2-  O416  1  0.58149411  0.65263082  0.85931322  1
  O2-  O417  1  0.56154495  0.86989173  0.10608158  1
  O2-  O418  1  0.58443880  0.92378841  0.47978522  1
  O2-  O419  1  0.59294747  0.91567415  0.85397004  1
  O2-  O420  1  0.82761494  0.16316789  0.14036446  1
  O2-  O421  1  0.81129823  0.12283147  0.46466796  1
  O2-  O422  1  0.85048865  0.21609633  0.81727948  1
  O2-  O423  1  0.82499008  0.42814219  0.16407839  1
  O2-  O424  1  0.83721276  0.42967966  0.47773704  1
  O2-  O425  1  0.82936485  0.40561319  0.81630040  1
  O2-  O426  1  0.83018364  0.66241024  0.14793087  1
  O2-  O427  1  0.86030599  0.68498135  0.47902924  1
  O2-  O428  1  0.84989711  0.65844833  0.81688327  1
  O2-  O429  1  0.83393938  0.91046368  0.13810657  1
  O2-  O430  1  0.83182745  0.90389610  0.46567180  1
  O2-  O431  1  0.81851438  0.88550151  0.80957056  1
  O2-  O432  1  0.16488915  0.07989504  0.16725850  1
  O2-  O433  1  0.16050999  0.08722003  0.52413403  1
  O2-  O434  1  0.16117756  0.08050365  0.86435022  1
  O2-  O435  1  0.16186786  0.32184894  0.18975540  1
  O2-  O436  1  0.16167993  0.33407458  0.52460411  1
  O2-  O437  1  0.16740685  0.36585184  0.83108326  1
  O2-  O438  1  0.18835084  0.60694482  0.19316189  1
  O2-  O439  1  0.17214971  0.58724530  0.52204374  1
  O2-  O440  1  0.11187403  0.54251046  0.83444506  1
  O2-  O441  1  0.16193449  0.83777637  0.18891279  1
  O2-  O442  1  0.15942767  0.83076367  0.48520166  1
  O2-  O443  1  0.18173925  0.85229447  0.85388731  1
  O2-  O444  1  0.40723063  0.06608565  0.13909011  1
  O2-  O445  1  0.42016292  0.08459167  0.50497668  1
  O2-  O446  1  0.42301374  0.08850491  0.85734672  1
  O2-  O447  1  0.41173660  0.32855400  0.18926716  1
  O2-  O448  1  0.39018869  0.31383875  0.51599682  1
  O2-  O449  1  0.41176698  0.34560839  0.86570938  1
  O2-  O450  1  0.41290036  0.58005152  0.18450128  1
  O2-  O451  1  0.40430425  0.57427290  0.51036407  1
  O2-  O452  1  0.34853403  0.55994547  0.87265624  1
  O2-  O453  1  0.40926872  0.83549039  0.17198172  1
  O2-  O454  1  0.42598811  0.82387813  0.53134217  1
  O2-  O455  1  0.41570801  0.83995595  0.86134905  1
  O2-  O456  1  0.59047951  0.08919653  0.18611410  1
  O2-  O457  1  0.66628221  0.08519676  0.52009916  1
  O2-  O458  1  0.67945359  0.10044084  0.85824444  1
  O2-  O459  1  0.66581798  0.33381293  0.20576644  1
  O2-  O460  1  0.67174306  0.33265696  0.51395816  1
  O2-  O461  1  0.67173807  0.32837562  0.86827902  1
  O2-  O462  1  0.66196209  0.57621581  0.18310524  1
  O2-  O463  1  0.68435657  0.61267617  0.48194138  1
  O2-  O464  1  0.68560013  0.58697807  0.85923577  1
  O2-  O465  1  0.67214894  0.82333642  0.19464802  1
  O2-  O466  1  0.67251596  0.84462135  0.51761586  1
  O2-  O467  1  0.66655824  0.82119806  0.87340018  1
  O2-  O468  1  0.91052101  0.07942013  0.18511705  1
  O2-  O469  1  0.92300433  0.08105585  0.53442724  1
  O2-  O470  1  0.93544349  0.12196197  0.85150978  1
  O2-  O471  1  0.90156410  0.32788277  0.17963074  1
  O2-  O472  1  0.92262804  0.36009542  0.53714569  1
  O2-  O473  1  0.90674496  0.30807297  0.83040437  1
  O2-  O474  1  0.90451304  0.58034307  0.20199197  1
  O2-  O475  1  0.92244344  0.59058485  0.52865900  1
  O2-  O476  1  0.91106658  0.56794848  0.86383846  1
  O2-  O477  1  0.91557610  0.82843737  0.18435733  1
  O2-  O478  1  0.93112215  0.84502170  0.52535292  1
  O2-  O479  1  0.92909724  0.83825138  0.85430365  1
  O2-  O480  1  0.15178419  0.11947637  0.28983403  1
  O2-  O481  1  0.16909651  0.09559819  0.64687142  1
  O2-  O482  1  0.17720733  0.07488699  0.99010225  1
  O2-  O483  1  0.16349208  0.31997601  0.31841168  1
  O2-  O484  1  0.15036056  0.32461430  0.64363587  1
  O2-  O485  1  0.16656624  0.34081062  0.97227805  1
  O2-  O486  1  0.17224451  0.58087439  0.31729289  1
  O2-  O487  1  0.16968779  0.58841492  0.64585336  1
  O2-  O488  1  0.16587960  0.57514355  0.96853625  1
  O2-  O489  1  0.18643311  0.80005858  0.30632534  1
  O2-  O490  1  0.12345897  0.82168363  0.62660301  1
  O2-  O491  1  0.16972266  0.83998961  0.97275407  1
  O2-  O492  1  0.41392198  0.06101913  0.38492361  1
  O2-  O493  1  0.41587707  0.08394178  0.64559646  1
  O2-  O494  1  0.43106681  0.09779240  0.98270747  1
  O2-  O495  1  0.42123429  0.33298876  0.31482242  1
  O2-  O496  1  0.41305419  0.33770571  0.63847840  1
  O2-  O497  1  0.42122960  0.34439081  0.99210002  1
  O2-  O498  1  0.40760798  0.58122496  0.30982838  1
  O2-  O499  1  0.42221794  0.58519817  0.62671521  1
  O2-  O500  1  0.41389177  0.58361122  0.98047260  1
  O2-  O501  1  0.44998505  0.79882970  0.28843629  1
  O2-  O502  1  0.41142968  0.83707839  0.65879816  1
  O2-  O503  1  0.40623781  0.83066249  0.98374593  1
  O2-  O504  1  0.65366058  0.07115606  0.29853623  1
  O2-  O505  1  0.68112580  0.10753349  0.64376719  1
  O2-  O506  1  0.67506828  0.09519358  0.98346833  1
  O2-  O507  1  0.67111836  0.34198515  0.33635367  1
  O2-  O508  1  0.64962018  0.33339780  0.63541252  1
  O2-  O509  1  0.67108405  0.33194415  0.99052126  1
  O2-  O510  1  0.64014318  0.56634928  0.30195457  1
  O2-  O511  1  0.69278457  0.59519810  0.65440043  1
  O2-  O512  1  0.67705634  0.58909100  0.98452360  1
  O2-  O513  1  0.67455066  0.83057290  0.31214548  1
  O2-  O514  1  0.66833878  0.83893050  0.63678025  1
  O2-  O515  1  0.65997940  0.83548322  0.99465541  1
  O2-  O516  1  0.90378413  0.07484298  0.31194457  1
  O2-  O517  1  0.90242308  0.08875647  0.65722773  1
  O2-  O518  1  0.91024902  0.07592546  0.97029629  1
  O2-  O519  1  0.93226562  0.30869932  0.30614053  1
  O2-  O520  1  0.92802919  0.34858378  0.65950186  1
  O2-  O521  1  0.91989201  0.32783124  0.96129021  1
  O2-  O522  1  0.90026496  0.59275275  0.31606729  1
  O2-  O523  1  0.91440079  0.56162288  0.64947988  1
  O2-  O524  1  0.92417290  0.58089837  0.97347229  1
  O2-  O525  1  0.91683169  0.83423046  0.30690053  1
  O2-  O526  1  0.97366329  0.81223618  0.63711938  1
  O2-  O527  1  0.90863178  0.84790053  0.97196882  1
  O2-  O528  1  0.06964245  0.18734205  0.01377284  1
  O2-  O529  1  0.06134524  0.16078858  0.37421189  1
  O2-  O530  1  0.06971819  0.15947055  0.69248641  1
  O2-  O531  1  0.07902469  0.41586696  0.01797449  1
  O2-  O532  1  0.09214668  0.41254437  0.35941402  1
  O2-  O533  1  0.10595713  0.43327722  0.70020265  1
  O2-  O534  1  0.09470828  0.66190468  -0.00076540  1
  O2-  O535  1  0.09017702  0.66094359  0.36273887  1
  O2-  O536  1  0.08971833  0.67307212  0.68205599  1
  O2-  O537  1  0.08308427  0.91494785  0.02424213  1
  O2-  O538  1  0.07604911  0.93727548  0.35296129  1
  O2-  O539  1  0.09572952  0.93136524  0.70587876  1
  O2-  O540  1  0.35013642  0.17957760  0.02052579  1
  O2-  O541  1  0.34306688  0.15980919  0.35798989  1
  O2-  O542  1  0.34273479  0.17751094  0.68171609  1
  O2-  O543  1  0.32764727  0.41624048  0.02657806  1
  O2-  O544  1  0.33249355  0.41119963  0.35405197  1
  O2-  O545  1  0.37587912  0.44291085  0.70005102  1
  O2-  O546  1  0.32774464  0.66371367  0.01921907  1
  O2-  O547  1  0.33771520  0.66600400  0.35297532  1
  O2-  O548  1  0.32734263  0.68361322  0.69088775  1
  O2-  O549  1  0.33668371  0.92314576  0.01250046  1
  O2-  O550  1  0.32005969  0.89109641  0.37876162  1
  O2-  O551  1  0.33276850  0.93384814  0.69396776  1
  O2-  O552  1  0.58565274  0.16818950  0.03930723  1
  O2-  O553  1  0.57182125  0.15611323  0.34193626  1
  O2-  O554  1  0.58109402  0.17188549  0.68742156  1
  O2-  O555  1  0.56944035  0.43947317  0.03389548  1
  O2-  O556  1  0.57597317  0.41391043  0.36831448  1
  O2-  O557  1  0.58391271  0.43382503  0.60762425  1
  O2-  O558  1  0.58220366  0.66471771  0.02067714  1
  O2-  O559  1  0.64251798  0.68719386  0.37726706  1
  O2-  O560  1  0.60219582  0.67299545  0.64054928  1
  O2-  O561  1  0.56491031  0.89678774  0.04283593  1
  O2-  O562  1  0.58712443  0.91549173  0.35570463  1
  O2-  O563  1  0.59491522  0.93899011  0.62640563  1
  O2-  O564  1  0.83714199  0.17055846  0.01040811  1
  O2-  O565  1  0.81632424  0.15116303  0.34275302  1
  O2-  O566  1  0.84136912  0.18877896  0.69382239  1
  O2-  O567  1  0.83490436  0.40598699  0.00750418  1
  O2-  O568  1  0.84328821  0.43015216  0.35745433  1
  O2-  O569  1  0.80696639  0.41037874  0.68932955  1
  O2-  O570  1  0.83964387  0.63949492  0.02420908  1
  O2-  O571  1  0.84819430  0.68197734  0.35841779  1
  O2-  O572  1  0.86534164  0.66907618  0.69184487  1
  O2-  O573  1  0.83034410  0.90917254  0.01173072  1
  O2-  O574  1  0.83620664  0.91545284  0.34733922  1
  O2-  O575  1  0.78866680  0.94546758  0.71585163  1
