# generated using pymatgen
data_H2O
_symmetry_space_group_name_H-M   'P 1'
_cell_length_a   17.98630516
_cell_length_b   17.97936261
_cell_length_c   22.00039285
_cell_angle_alpha   90.02764795
_cell_angle_beta   89.97971740
_cell_angle_gamma   120.01065282
_symmetry_Int_Tables_number   1
_chemical_formula_structural   H2O
_chemical_formula_sum   'H384 O192'
_cell_volume   6160.70811556
_cell_formula_units_Z   192
loop_
 _symmetry_equiv_pos_site_id
 _symmetry_equiv_pos_as_xyz
  1  'x, y, z'
loop_
 _atom_type_symbol
 _atom_type_oxidation_number
  H+  1.0
  O2-  -2.0
loop_
 _atom_site_type_symbol
 _atom_site_label
 _atom_site_symmetry_multiplicity
 _atom_site_fract_x
 _atom_site_fract_y
 _atom_site_fract_z
 _atom_site_occupancy
  H+  H0  1  0.64568152  0.85738215  0.83084288  1
  H+  H1  1  0.10919590  0.38366847  0.16170754  1
  H+  H2  1  0.47291505  0.86756142  0.97582206  1
  H+  H3  1  0.47896930  0.84249493  0.52384434  1
  H+  H4  1  0.09341236  0.45371431  0.83730884  1
  H+  H5  1  0.84702022  0.37266160  0.32421415  1
  H+  H6  1  0.48744622  0.37007688  0.33276065  1
  H+  H7  1  0.63672171  -0.00399714  0.33519926  1
  H+  H8  1  0.13503954  0.52645878  -0.00679273  1
  H+  H9  1  0.12431566  0.26390888  0.16744038  1
  H+  H10  1  0.85907555  0.71683437  0.34392050  1
  H+  H11  1  0.37496227  0.73660711  0.16472514  1
  H+  H12  1  0.37904161  0.00987134  0.84046488  1
  H+  H13  1  0.19615011  0.98884612  0.79398244  1
  H+  H14  1  0.91767372  0.33237596  0.20926556  1
  H+  H15  1  0.87679784  0.73014738  0.82872103  1
  H+  H16  1  0.22764963  0.12497790  -0.00519447  1
  H+  H17  1  0.37749082  1.01403072  0.66727064  1
  H+  H18  1  0.82058394  0.03009571  -0.05138167  1
  H+  H19  1  0.22527808  0.61709701  0.99131542  1
  H+  H20  1  0.27384238  0.37448252  0.65872172  1
  H+  H21  1  0.53975776  0.64129399  0.81932894  1
  H+  H22  1  0.14317161  0.29828820  0.23384686  1
  H+  H23  1  0.85299584  0.47257473  0.82455211  1
  H+  H24  1  0.17173083  0.54758638  0.32537871  1
  H+  H25  1  0.87336822  0.39068309  0.51439351  1
  H+  H26  1  0.72216869  0.35889480  0.98818977  1
  H+  H27  1  0.36735813  0.14128033  0.51122867  1
  H+  H28  1  0.14999018  0.61893413  0.16729028  1
  H+  H29  1  0.94648557  0.34860885  0.68326928  1
  H+  H30  1  0.82800314  0.91709620  0.43395723  1
  H+  H31  1  0.35470599  0.38483329  0.00991485  1
  H+  H32  1  0.40894409  0.53322816  0.83967756  1
  H+  H33  1  0.64340173  0.53079497  0.98482106  1
  H+  H34  1  0.87403099  0.72280056  0.67227068  1
  H+  H35  1  0.92346227  0.83385525  0.93993568  1
  H+  H36  1  0.85055879  0.46859298  0.66502038  1
  H+  H37  1  0.14399845  0.79083802  0.16946039  1
  H+  H38  1  0.79974484  0.55607217  0.35450858  1
  H+  H39  1  0.71074334  0.36013176  0.65664184  1
  H+  H40  1  0.15583764  0.14298538  0.31180431  1
  H+  H41  1  0.08788256  0.40369304  0.74194287  1
  H+  H42  1  0.61312617  0.96569127  0.81343066  1
  H+  H43  1  0.09086954  0.36247486  0.83873612  1
  H+  H44  1  0.11910889  -0.00430613  0.50382107  1
  H+  H45  1  0.93029157  0.57624778  0.14355358  1
  H+  H46  1  -0.03230299  0.87115501  0.50718376  1
  H+  H47  1  0.13402587  0.02277892  0.16871687  1
  H+  H48  1  0.11220300  0.21988709  0.48771030  1
  H+  H49  1  0.60955904  0.24252889  0.99963489  1
  H+  H50  1  0.87151083  0.12687301  -0.00247092  1
  H+  H51  1  0.63195159  0.47948218  0.82508071  1
  H+  H52  1  0.27332747  0.13799455  0.67540598  1
  H+  H53  1  0.76588917  0.63792021  0.50798556  1
  H+  H54  1  0.78016704  0.64030628  0.00820783  1
  H+  H55  1  0.61473495  0.63888894  0.15590030  1
  H+  H56  1  0.36042290  0.22873223  0.01174840  1
  H+  H57  1  0.38426708  0.11802829  0.16675729  1
  H+  H58  1  0.89697734  0.86399336  0.17286957  1
  H+  H59  1  0.18177013  0.43627958  0.72751830  1
  H+  H60  1  0.38654237  0.60715600  0.50569377  1
  H+  H61  1  0.64363628  0.86309140  -0.02049442  1
  H+  H62  1  -0.01486506  0.86785587  0.84368786  1
  H+  H63  1  0.11051740  0.99062268  0.01396201  1
  H+  H64  1  0.06279080  0.19141974  0.30997700  1
  H+  H65  1  0.66505383  0.32482579  0.92523201  1
  H+  H66  1  0.86359877  0.87850775  0.67591747  1
  H+  H67  1  0.86196654  0.88674841  0.33739614  1
  H+  H68  1  0.38032340  0.26163692  0.33343255  1
  H+  H69  1  0.60604315  0.95559140  0.72311014  1
  H+  H70  1  0.30766088  0.40553256  0.10393380  1
  H+  H71  1  0.61342756  0.51655806  0.52484108  1
  H+  H72  1  0.59541307  0.38579456  0.32996656  1
  H+  H73  1  0.60198317  0.13419808  0.49250469  1
  H+  H74  1  0.40529109  0.03457483  0.31792288  1
  H+  H75  1  0.23854217  0.61969170  0.16578242  1
  H+  H76  1  0.16302230  0.09915176  0.93772156  1
  H+  H77  1  0.85802609  0.12152220  0.68257797  1
  H+  H78  1  0.34074326  0.11163447  0.82729076  1
  H+  H79  1  0.13263547  0.85704272  0.65133418  1
  H+  H80  1  0.89035512  0.61242599  0.99686800  1
  H+  H81  1  0.73363745  0.87578589  0.34058194  1
  H+  H82  1  0.66761905  0.14608105  0.97211989  1
  H+  H83  1  0.11022366  0.36909880  0.50024698  1
  H+  H84  1  0.88885272  0.60919324  0.66185710  1
  H+  H85  1  0.22596013  0.39755738  0.81546803  1
  H+  H86  1  0.14130027  0.18008253  0.99615893  1
  H+  H87  1  0.62971620  0.38827975  0.82468056  1
  H+  H88  1  0.11912482  -0.02011559  0.66452112  1
  H+  H89  1  0.88993502  0.61240213  0.84278369  1
  H+  H90  1  0.26403712  0.87428792  0.15072378  1
  H+  H91  1  0.65735857  0.54960007  0.19405665  1
  H+  H92  1  0.80354080  0.15416368  0.34709349  1
  H+  H93  1  0.08693720  0.42330051  0.05972840  1
  H+  H94  1  0.23884388  0.12714262  0.51371009  1
  H+  H95  1  0.61366931  0.72344740  0.99839457  1
  H+  H96  1  0.46428285  0.84476280  0.82657793  1
  H+  H97  1  0.88549040  0.23276312  0.53455866  1
  H+  H98  1  0.88020214  0.35209587  0.99093885  1
  H+  H99  1  0.02887643  0.89692069  0.01166924  1
  H+  H100  1  0.65057056  0.77145863  0.82992598  1
  H+  H101  1  0.64502313  0.11672211  0.16528877  1
  H+  H102  1  0.36566635  0.64369690  0.00413591  1
  H+  H103  1  0.68089359  0.59075926  0.89523493  1
  H+  H104  1  0.63411605  0.82443728  0.67183036  1
  H+  H105  1  0.13931083  0.35403216  0.65311624  1
  H+  H106  1  0.61608929  0.22473140  0.15627776  1
  H+  H107  1  0.03883119  0.63645158  0.32110664  1
  H+  H108  1  0.90999153  0.12090670  0.32920627  1
  H+  H109  1  0.31396439  0.35013458  0.86782404  1
  H+  H110  1  0.83163374  0.34978977  0.50939242  1
  H+  H111  1  0.08582387  0.92359299  0.10058323  1
  H+  H112  1  0.82304508  0.14933515  0.44810049  1
  H+  H113  1  0.37577999  0.47604018  0.50402406  1
  H+  H114  1  0.38005950  0.23538427  0.51144792  1
  H+  H115  1  0.97355122  0.60062121  0.66127932  1
  H+  H116  1  0.64152332  0.10321788  0.82708745  1
  H+  H117  1  0.35925536  0.62938512  0.67261269  1
  H+  H118  1  0.88368802  0.12342490  0.83512687  1
  H+  H119  1  0.13422462  0.10841727  0.66131860  1
  H+  H120  1  0.61110181  0.97154324  -0.05320960  1
  H+  H121  1  1.02808945  0.88762578  0.16255913  1
  H+  H122  1  0.85666287  0.38443825  0.14863763  1
  H+  H123  1  0.15457988  0.30968036  0.90349842  1
  H+  H124  1  0.22650769  0.85373577  0.83977083  1
  H+  H125  1  0.51045703  0.14426374  0.00443530  1
  H+  H126  1  0.04660271  0.65515524  0.16213010  1
  H+  H127  1  0.22030052  0.58756961  0.51168446  1
  H+  H128  1  0.13232411  0.60364103  0.66436830  1
  H+  H129  1  -0.00964455  0.70844747  0.54842194  1
  H+  H130  1  0.86428038  0.65609050  0.50922493  1
  H+  H131  1  0.54225989  0.14880355  0.33058437  1
  H+  H132  1  0.47140835  0.45007204  0.79536309  1
  H+  H133  1  0.62269996  0.98548568  0.16921152  1
  H+  H134  1  0.61675828  0.61111073  0.34072106  1
  H+  H135  1  0.89608307  0.86636936  0.84022915  1
  H+  H136  1  0.18309715  0.33765278  0.44443747  1
  H+  H137  1  0.89311267  0.11350819  0.16723689  1
  H+  H138  1  0.39356666  0.24053460  0.85253459  1
  H+  H139  1  0.79394546  0.14659579  -0.00062588  1
  H+  H140  1  0.83400026  0.66550071  0.10745497  1
  H+  H141  1  0.42835835  0.85488787  0.28003950  1
  H+  H142  1  0.02350291  0.63592336  0.00408744  1
  H+  H143  1  0.36866388  0.13838931  0.32648519  1
  H+  H144  1  0.37993484  0.61826347  0.35506399  1
  H+  H145  1  0.51451916  0.12761960  0.67710140  1
  H+  H146  1  0.78613422  0.51106920  0.49650276  1
  H+  H147  1  0.36655910  0.51296173  0.16280273  1
  H+  H148  1  0.90589646  0.30135794  0.62017453  1
  H+  H149  1  0.04612890  0.11187966  0.84535872  1
  H+  H150  1  0.98197862  0.36960093  0.15460677  1
  H+  H151  1  0.28919661  0.30204611  0.86571579  1
  H+  H152  1  0.35096498  0.35666898  0.18036640  1
  H+  H153  1  0.91766104  0.58141591  0.93616340  1
  H+  H154  1  0.16672465  0.86179427  0.48469980  1
  H+  H155  1  0.26525295  0.87734161  0.67505081  1
  H+  H156  1  0.88149595  0.23341216  0.84528944  1
  H+  H157  1  0.39547004  0.61395050  0.83563348  1
  H+  H158  1  -0.00465287  0.34336849  0.43725538  1
  H+  H159  1  0.89274047  0.86440592  0.99815335  1
  H+  H160  1  0.14687041  0.76483492  0.49147441  1
  H+  H161  1  0.23061821  0.85513141  0.98791177  1
  H+  H162  1  0.38527430  0.02999709  0.16211028  1
  H+  H163  1  0.41171685  0.58417401  0.59875484  1
  H+  H164  1  0.62869624  0.70215395  0.66593191  1
  H+  H165  1  0.44747006  0.40277109  0.78902662  1
  H+  H166  1  0.35964726  0.13242724  0.67799604  1
  H+  H167  1  0.52331646  0.65389414  0.36254781  1
  H+  H168  1  0.64232913  0.61912754  -0.01229417  1
  H+  H169  1  0.38050552  0.52136425  0.65498051  1
  H+  H170  1  0.15720921  0.77873348  0.31812489  1
  H+  H171  1  0.02430539  0.13759743  0.14855556  1
  H+  H172  1  0.01804335  0.12262626  0.66977458  1
  H+  H173  1  0.87838360  0.77925717  0.50897824  1
  H+  H174  1  0.83981489  0.11050207  0.50702959  1
  H+  H175  1  0.44169647  0.36575428  0.18967509  1
  H+  H176  1  0.20698184  0.12487214  0.84045342  1
  H+  H177  1  0.11064840  0.71402480  0.82755270  1
  H+  H178  1  0.73952616  0.63829228  0.18548316  1
  H+  H179  1  0.39561657  0.85161012  0.51824895  1
  H+  H180  1  0.85555486  0.62564979  0.16575374  1
  H+  H181  1  0.02709166  0.39538920  0.00137819  1
  H+  H182  1  0.28842220  0.87702047  0.50007868  1
  H+  H183  1  0.59774712  0.65780731  0.75953688  1
  H+  H184  1  0.36182873  0.88909176  -0.00731810  1
  H+  H185  1  0.38340415  0.11894191  0.99704880  1
  H+  H186  1  0.93309145  0.09251032  0.26591012  1
  H+  H187  1  0.61608514  0.73536462  0.51077090  1
  H+  H188  1  0.13623610  0.11359993  0.16391341  1
  H+  H189  1  0.01748638  0.36451728  0.37016860  1
  H+  H190  1  0.97350477  0.60324982  0.84196568  1
  H+  H191  1  0.84647566  0.92048337  0.10081965  1
  H+  H192  1  0.35202630  0.70361263  0.82352178  1
  H+  H193  1  -0.02004426  0.86422569  0.65833824  1
  H+  H194  1  0.31480148  0.45970732  0.36966003  1
  H+  H195  1  0.52448292  0.13749970  0.15099170  1
  H+  H196  1  0.72982713  0.35801090  0.83699294  1
  H+  H197  1  0.89885150  1.02718992  0.16930687  1
  H+  H198  1  0.40940595  0.89006725  0.34143828  1
  H+  H199  1  0.35279971  0.87116604  0.82372948  1
  H+  H200  1  0.62728358  0.23906560  0.33970688  1
  H+  H201  1  0.90945470  0.02105953  0.84262270  1
  H+  H202  1  0.10875483  0.71700568  0.67089362  1
  H+  H203  1  0.13494546  0.25626227  0.84306180  1
  H+  H204  1  0.71422077  0.08988859  0.69779622  1
  H+  H205  1  0.70174933  0.09852900  0.50854685  1
  H+  H206  1  0.96593570  0.33849877  0.84459544  1
  H+  H207  1  0.61324934  0.27300109  0.50590299  1
  H+  H208  1  0.84069091  0.37484092  0.67135874  1
  H+  H209  1  0.81884673  0.41686649  0.76332052  1
  H+  H210  1  0.89516963  0.22674264  0.37548848  1
  H+  H211  1  0.86695180  0.22416385  0.14659648  1
  H+  H212  1  0.12395996  0.99661946  0.82439735  1
  H+  H213  1  0.68586399  0.37420414  0.50397592  1
  H+  H214  1  0.41918685  0.38040727  0.51520615  1
  H+  H215  1  0.35944891  0.71448968  0.50670547  1
  H+  H216  1  0.65489554  0.12562896  0.32443863  1
  H+  H217  1  0.87202934  0.98106258  0.33779114  1
  H+  H218  1  0.97916758  0.31883758  0.53941344  1
  H+  H219  1  0.91457313  0.83444608  0.60209597  1
  H+  H220  1  0.38652592  1.03039108  -0.00560621  1
  H+  H221  1  0.77056759  0.86936214  0.67763127  1
  H+  H222  1  0.11388832  0.63475376  1.00314981  1
  H+  H223  1  0.27769670  0.89762653  0.34010870  1
  H+  H224  1  0.84581688  0.46990352  0.15795634  1
  H+  H225  1  0.58057833  0.43163270  0.14164993  1
  H+  H226  1  0.37873808  0.74649429  0.35088819  1
  H+  H227  1  0.24730933  0.37841866  0.16486332  1
  H+  H228  1  0.52514077  0.12617834  0.82715549  1
  H+  H229  1  0.56488131  0.37005288  0.50848169  1
  H+  H230  1  0.12010100  0.47811295  0.15782313  1
  H+  H231  1  0.46762468  0.36432604  0.99451601  1
  H+  H232  1  0.89398049  0.77301523  0.17575210  1
  H+  H233  1  0.35020157  0.22319317  0.16630622  1
  H+  H234  1  0.39283042  1.02153205  0.51533733  1
  H+  H235  1  0.39236627  0.86772129  0.18262372  1
  H+  H236  1  0.27755082  0.49872252  0.80221828  1
  H+  H237  1  0.14184314  0.86126174  0.84214741  1
  H+  H238  1  0.48050569  0.61582053  0.50831279  1
  H+  H239  1  0.26999689  0.63078134  0.67617515  1
  H+  H240  1  0.36999806  0.64588065  0.15295374  1
  H+  H241  1  0.10605605  0.21057191  0.66274450  1
  H+  H242  1  0.85407817  0.88555318  0.49405708  1
  H+  H243  1  0.14270734  0.51960093  0.67064399  1
  H+  H244  1  0.72959774  0.34866989  0.17321547  1
  H+  H245  1  0.21741289  0.33519907  1.00196436  1
  H+  H246  1  0.87525956  0.37360948  0.34976246  1
  H+  H247  1  0.91504877  0.83224656  0.27064507  1
  H+  H248  1  0.47501151  0.61274398  0.99544260  1
  H+  H249  1  0.73515943  0.11724679  0.16407523  1
  H+  H250  1  0.79303310  0.89629036  0.16388200  1
  H+  H251  1  0.89325434  0.26851065  0.99511694  1
  H+  H252  1  0.39466176  0.27214617  0.68023994  1
  H+  H253  1  0.37787628  0.76961403  0.67352208  1
  H+  H254  1  0.63954026  0.26575113  0.83837072  1
  H+  H255  1  0.51960262  0.62083233  0.14311932  1
  H+  H256  1  0.62595923  0.09074547  0.69168540  1
  H+  H257  1  0.09210147  0.67586494  0.09697532  1
  H+  H258  1  0.13108526  0.64743547  0.32920500  1
  H+  H259  1  0.64501340  0.35254140  0.18057490  1
  H+  H260  1  0.09672580  0.90235661  0.52302138  1
  H+  H261  1  0.65968773  0.87783529  0.18798488  1
  H+  H262  1  0.87796296  1.01034685  0.66637663  1
  H+  H263  1  0.54192367  0.90651985  0.34050044  1
  H+  H264  1  0.61157867  0.64118615  0.50208654  1
  H+  H265  1  0.85724439  0.47024195  0.00258593  1
  H+  H266  1  0.10910955  0.62389988  0.82635658  1
  H+  H267  1  0.85140520  0.20810925  0.68920642  1
  H+  H268  1  0.96871299  0.86601251  0.33219875  1
  H+  H269  1  0.78702268  0.64185730  0.82636248  1
  H+  H270  1  0.65125461  0.61573193  0.83374421  1
  H+  H271  1  0.68902256  0.10386710  0.91606053  1
  H+  H272  1  0.10322030  0.45387683  0.51207142  1
  H+  H273  1  0.14442694  0.88074722  0.16831136  1
  H+  H274  1  0.96248655  0.10213013  0.51348749  1
  H+  H275  1  0.95380953  0.50299305  0.28565092  1
  H+  H276  1  0.71589934  0.40268700  0.32830453  1
  H+  H277  1  0.61417955  1.01109810  0.51222906  1
  H+  H278  1  0.38561385  0.77685464  0.98596143  1
  H+  H279  1  0.48406292  0.87365857  0.18849784  1
  H+  H280  1  0.35453841  0.87625736  0.67892046  1
  H+  H281  1  0.78651236  0.88588345  0.82768584  1
  H+  H282  1  0.61282852  0.86353782  0.51771364  1
  H+  H283  1  0.26567833  0.13149594  0.16148346  1
  H+  H284  1  0.21581503  0.59207051  0.83766995  1
  H+  H285  1  0.13491678  0.75586300  0.99098592  1
  H+  H286  1  0.61125803  0.38421082  -0.01349551  1
  H+  H287  1  0.60988337  0.38547996  0.67261808  1
  H+  H288  1  0.62479721  0.54840536  0.67677691  1
  H+  H289  1  0.42140231  0.58315352  0.21233201  1
  H+  H290  1  0.65186782  0.58577289  0.57817015  1
  H+  H291  1  0.47670653  0.11390273  0.51223427  1
  H+  H292  1  0.87496601  0.01095182  0.50979865  1
  H+  H293  1  0.57912420  0.17032076  0.43351863  1
  H+  H294  1  0.40179278  0.56296324  0.31045061  1
  H+  H295  1  0.85104603  0.51224536  0.33455747  1
  H+  H296  1  0.58291055  0.89214329  0.45613467  1
  H+  H297  1  0.10244812  0.98922400  0.34470995  1
  H+  H298  1  0.07638099  0.93239741  0.40439279  1
  H+  H299  1  0.16569205  0.82043237  0.92563727  1
  H+  H300  1  0.78235053  0.88302045  1.00786073  1
  H+  H301  1  0.32082415  0.90449584  0.76729136  1
  H+  H302  1  0.08093899  0.65960268  0.73187531  1
  H+  H303  1  0.58554980  0.66117471  0.05725764  1
  H+  H304  1  0.03714923  0.65111816  0.48186603  1
  H+  H305  1  0.39328699  0.36358475  0.67666903  1
  H+  H306  1  0.33987621  0.68044678  0.06159331  1
  H+  H307  1  0.57955694  0.17735257  0.06584919  1
  H+  H308  1  0.68368020  0.09494031  0.26507184  1
  H+  H309  1  0.58111013  0.15908437  0.76686650  1
  H+  H310  1  0.86430369  -0.02363991  1.00238982  1
  H+  H311  1  0.41144550  0.07579129  0.60851359  1
  H+  H312  1  0.48294896  0.32794307  0.85119242  1
  H+  H313  1  0.15699475  0.32413362  0.58909923  1
  H+  H314  1  0.90489022  0.30712129  0.90691868  1
  H+  H315  1  0.32585907  0.64665841  0.76323135  1
  H+  H316  1  0.59141412  0.41825622  0.73866088  1
  H+  H317  1  0.67581630  0.82865649  0.92579591  1
  H+  H318  1  0.72926674  0.09796689  0.82887515  1
  H+  H319  1  0.97358282  0.30657207  0.27693509  1
  H+  H320  1  0.86994874  0.72764401  0.01154032  1
  H+  H321  1  0.08949293  0.18076261  0.09125523  1
  H+  H322  1  0.09425120  0.92142137  0.72308918  1
  H+  H323  1  0.27702232  0.13465394  0.32949727  1
  H+  H324  1  0.58750723  0.90769893  0.12182207  1
  H+  H325  1  0.60911692  0.96848345  0.01545042  1
  H+  H326  1  0.18953541  0.84636887  0.26269017  1
  H+  H327  1  0.40937088  0.31528778  0.94023159  1
  H+  H328  1  0.84962918  0.66685125  0.73250908  1
  H+  H329  1  0.31778880  0.15110104  0.76941677  1
  H+  H330  1  0.90349282  0.06941610  0.60692511  1
  H+  H331  1  0.92697393  0.55759174  0.24232510  1
  H+  H332  1  0.60220905  0.21761780  0.67409019  1
  H+  H333  1  0.92269594  0.07313229  0.90599589  1
  H+  H334  1  0.41024351  0.82699573  0.61477216  1
  H+  H335  1  0.84669603  0.15081460  0.77556630  1
  H+  H336  1  0.83978245  0.15984553  0.09080917  1
  H+  H337  1  0.66299196  0.81181288  0.60236200  1
  H+  H338  1  0.58763244  0.47541340  0.33424896  1
  H+  H339  1  0.16629993  0.08751098  0.26188762  1
  H+  H340  1  0.17361546  0.08753626  0.60250311  1
  H+  H341  1  0.39205983  0.32887174  0.28018889  1
  H+  H342  1  0.93651438  0.61525926  0.57512940  1
  H+  H343  1  0.43170110  0.08940922  0.25642887  1
  H+  H344  1  0.34978568  0.47099827  0.00994695  1
  H+  H345  1  0.41581848  0.58468074  0.93762616  1
  H+  H346  1  0.09062211  0.67412859  0.41938570  1
  H+  H347  1  0.29655605  0.81741186  0.11942787  1
  H+  H348  1  0.06815763  0.14582357  0.43882978  1
  H+  H349  1  0.23745792  0.35212798  0.50433817  1
  H+  H350  1  0.40938898  0.82113137  0.88777809  1
  H+  H351  1  0.32899370  0.16624127  0.06983048  1
  H+  H352  1  0.14486593  0.12146147  0.50958000  1
  H+  H353  1  0.71392069  0.85072400  0.52236702  1
  H+  H354  1  0.28800428  0.66042485  0.33920523  1
  H+  H355  1  0.31756707  0.97933047  0.38404622  1
  H+  H356  1  0.92514456  0.27940419  0.27738836  1
  H+  H357  1  0.33145078  0.66724399  0.44259719  1
  H+  H358  1  0.65465772  0.59344934  0.28042535  1
  H+  H359  1  0.16093216  0.57315811  0.89875181  1
  H+  H360  1  0.63716095  0.89129943  0.33984509  1
  H+  H361  1  0.31280454  0.41675738  0.72164468  1
  H+  H362  1  0.84304234  0.91235518  0.76756355  1
  H+  H363  1  0.40971002  0.07602533  0.89645638  1
  H+  H364  1  0.50501305  0.37539723  0.68313072  1
  H+  H365  1  0.78387588  0.47274305  0.43185400  1
  H+  H366  1  0.35116985  0.91312081  0.44398376  1
  H+  H367  1  0.18952284  0.59733250  0.26077999  1
  H+  H368  1  0.16255867  0.56307027  0.57071439  1
  H+  H369  1  0.67040992  0.34022167  0.27108356  1
  H+  H370  1  0.32814857  0.91037151  0.05397298  1
  H+  H371  1  0.67893604  0.47469416  0.12564927  1
  H+  H372  1  0.64372380  0.32954768  0.60032807  1
  H+  H373  1  0.13648756  0.47761681  0.41015141  1
  H+  H374  1  0.69172915  0.84664421  0.24289091  1
  H+  H375  1  0.16526984  0.82367097  0.59500960  1
  H+  H376  1  0.33924818  0.40745515  0.44997986  1
  H+  H377  1  0.58948341  0.68433746  0.41729512  1
  H+  H378  1  0.16888026  0.42595223  0.36987801  1
  H+  H379  1  0.15118768  0.27463834  0.33371114  1
  H+  H380  1  0.58459799  0.41095381  0.04613956  1
  H+  H381  1  0.83159591  0.67230254  0.40857532  1
  H+  H382  1  0.63678833  0.78565637  0.34655205  1
  H+  H383  1  0.82074277  0.40957221  0.06096848  1
  O2-  O384  1  0.08641654  0.16976516  0.13545432  1
  O2-  O385  1  0.07477623  0.15548164  0.48258252  1
  O2-  O386  1  0.10854263  0.14339230  0.83101937  1
  O2-  O387  1  0.08591325  0.41808065  0.14235651  1
  O2-  O388  1  0.06897606  0.39058001  0.49965802  1
  O2-  O389  1  0.06082173  0.39271978  0.82266064  1
  O2-  O390  1  0.10267400  0.68268213  0.14208854  1
  O2-  O391  1  0.09542363  0.67720203  0.46472191  1
  O2-  O392  1  0.07935611  0.65473184  0.81126456  1
  O2-  O393  1  0.08879518  0.92147033  0.14702842  1
  O2-  O394  1  0.08210949  0.93218459  0.49244745  1
  O2-  O395  1  0.13527339  0.95314778  0.80441966  1
  O2-  O396  1  0.32854224  0.16498158  0.14874089  1
  O2-  O397  1  0.33927981  0.17511748  0.50090357  1
  O2-  O398  1  0.30697817  0.13926786  0.81425987  1
  O2-  O399  1  0.30866534  0.41001665  0.14939566  1
  O2-  O400  1  0.35042919  0.41278420  0.49460546  1
  O2-  O401  1  0.25944325  0.44261139  0.78409339  1
  O2-  O402  1  0.34340790  0.68150370  0.14205869  1
  O2-  O403  1  0.32895820  0.65615392  0.48691286  1
  O2-  O404  1  0.32484852  0.64230065  0.81018286  1
  O2-  O405  1  0.31712781  0.87754308  0.12974287  1
  O2-  O406  1  0.35063075  0.91150548  0.48882562  1
  O2-  O407  1  0.32175351  0.90287483  0.81367756  1
  O2-  O408  1  0.58439136  0.16712646  0.13441141  1
  O2-  O409  1  0.57458477  0.16884674  0.47843183  1
  O2-  O410  1  0.58544577  0.15660161  0.81262766  1
  O2-  O411  1  0.63642116  0.44505489  0.15763122  1
  O2-  O412  1  0.53563103  0.40428023  0.49916061  1
  O2-  O413  1  0.60017276  0.41912335  0.80936078  1
  O2-  O414  1  0.57947886  0.65361751  0.12921781  1
  O2-  O415  1  0.58464941  0.67448977  0.48774021  1
  O2-  O416  1  0.59980653  0.66767138  0.80453066  1
  O2-  O417  1  0.58828558  0.92044077  0.16491850  1
  O2-  O418  1  0.57974676  0.89427898  0.50022029  1
  O2-  O419  1  0.58069258  0.90216108  0.80508108  1
  O2-  O420  1  0.83532780  0.16182728  0.13677732  1
  O2-  O421  1  0.81233619  0.14390045  0.49266452  1
  O2-  O422  1  0.84812952  0.15039588  0.82214753  1
  O2-  O423  1  0.81734322  0.40669785  0.13869734  1
  O2-  O424  1  0.77513954  0.45857037  0.47616258  1
  O2-  O425  1  0.81973491  0.41316102  0.80840049  1
  O2-  O426  1  0.83390359  0.66594809  0.15278553  1
  O2-  O427  1  0.82475114  0.67409454  0.49130315  1
  O2-  O428  1  0.84853337  0.67012311  0.81319607  1
  O2-  O429  1  0.85240921  0.92374975  0.14623047  1
  O2-  O430  1  0.82360826  0.91566806  0.47902858  1
  O2-  O431  1  0.84730628  0.91439185  0.81338868  1
  O2-  O432  1  0.16606032  0.08479976  0.18213968  1
  O2-  O433  1  0.17548091  0.09222422  0.52543322  1
  O2-  O434  1  0.14713076  0.09510388  0.85787849  1
  O2-  O435  1  0.14903155  0.31946848  0.19126066  1
  O2-  O436  1  0.17562234  0.32383667  0.49237479  1
  O2-  O437  1  0.14832439  0.31347981  0.85851824  1
  O2-  O438  1  0.17832934  0.58691933  0.18158035  1
  O2-  O439  1  0.16040730  0.55199091  0.52641074  1
  O2-  O440  1  0.15579161  0.56423123  0.85354268  1
  O2-  O441  1  0.17847521  0.85187050  0.18194077  1
  O2-  O442  1  0.17936157  0.82612350  0.51141231  1
  O2-  O443  1  0.16514691  0.82495435  0.85682807  1
  O2-  O444  1  0.41912987  0.08909771  0.17643542  1
  O2-  O445  1  0.41810924  0.08097585  0.53120827  1
  O2-  O446  1  0.40826274  0.07212686  0.85162903  1
  O2-  O447  1  0.38130758  0.32706958  0.19845651  1
  O2-  O448  1  0.45316837  0.35336681  0.53099365  1
  O2-  O449  1  0.44006179  0.28404939  0.87828936  1
  O2-  O450  1  0.40673801  0.57682806  0.16938674  1
  O2-  O451  1  0.41883655  0.57899773  0.52113789  1
  O2-  O452  1  0.43306508  0.59242932  0.85356257  1
  O2-  O453  1  0.42305093  0.84182029  0.20311905  1
  O2-  O454  1  0.41658883  0.81473036  0.53611365  1
  O2-  O455  1  0.40470554  0.81481325  0.84265135  1
  O2-  O456  1  0.67557933  0.08844903  0.18255459  1
  O2-  O457  1  0.63931692  0.07387603  0.51616612  1
  O2-  O458  1  0.66899050  0.07038101  0.84348639  1
  O2-  O459  1  0.66926379  0.31592586  0.19187439  1
  O2-  O460  1  0.63062527  0.33059122  0.52385157  1
  O2-  O461  1  0.66867956  0.32528057  0.85527775  1
  O2-  O462  1  0.67894430  0.61078758  0.20172353  1
  O2-  O463  1  0.65554903  0.57748035  0.53395656  1
  O2-  O464  1  0.68202595  0.58647472  0.84993485  1
  O2-  O465  1  0.69628927  0.85349096  0.19860377  1
  O2-  O466  1  0.65585394  0.81796933  0.53960911  1
  O2-  O467  1  0.67799425  0.83065076  0.84780756  1
  O2-  O468  1  0.92820537  0.08893338  0.18303948  1
  O2-  O469  1  0.90323048  0.06973978  0.52942656  1
  O2-  O470  1  0.94196081  0.08019196  0.85976729  1
  O2-  O471  1  0.91850114  0.33641336  0.16496222  1
  O2-  O472  1  0.92993940  0.27419712  0.56317983  1
  O2-  O473  1  0.90492307  0.29870774  0.86040201  1
  O2-  O474  1  0.89163077  0.55914199  0.17823337  1
  O2-  O475  1  0.95169458  0.64951103  0.53544240  1
  O2-  O476  1  0.91464923  0.57717849  0.85944654  1
  O2-  O477  1  0.92645016  0.83389791  0.19012443  1
  O2-  O478  1  0.90870246  0.84018067  0.52419712  1
  O2-  O479  1  0.92600957  0.83584384  0.85796497  1
  O2-  O480  1  0.16965832  0.09638054  0.30679334  1
  O2-  O481  1  0.17059031  0.08199961  0.64790966  1
  O2-  O482  1  0.16673089  0.10331224  0.98272373  1
  O2-  O483  1  0.19899147  0.35939435  0.38036977  1
  O2-  O484  1  0.16455347  0.32212774  0.63301148  1
  O2-  O485  1  0.16266580  0.29798063  0.97941213  1
  O2-  O486  1  0.19340855  0.60561928  0.30573147  1
  O2-  O487  1  0.16633288  0.57643285  0.65077696  1
  O2-  O488  1  0.16485432  0.58822849  0.97664172  1
  O2-  O489  1  0.19817894  0.83934322  0.30626652  1
  O2-  O490  1  0.15973603  0.82207466  0.63987125  1
  O2-  O491  1  0.16871726  0.81824210  0.97277663  1
  O2-  O492  1  0.43816447  0.09363778  0.30134866  1
  O2-  O493  1  0.40843910  0.07563617  0.65410591  1
  O2-  O494  1  0.41821383  0.09211503  0.98225536  1
  O2-  O495  1  0.40704900  0.32613322  0.32302898  1
  O2-  O496  1  0.42879297  0.33524438  0.67045756  1
  O2-  O497  1  0.40592551  0.33064568  0.98392227  1
  O2-  O498  1  0.40212457  0.57657225  0.35322267  1
  O2-  O499  1  0.40497533  0.58228246  0.64387160  1
  O2-  O500  1  0.41290833  0.58422789  0.98263721  1
  O2-  O501  1  0.43758901  0.85938123  0.32529683  1
  O2-  O502  1  0.40315355  0.82991096  0.65944819  1
  O2-  O503  1  0.41039163  0.83558735  0.96688840  1
  O2-  O504  1  0.68397030  0.09330233  0.31028289  1
  O2-  O505  1  0.65088612  0.05378835  0.69989936  1
  O2-  O506  1  0.69338437  0.11126609  0.96149980  1
  O2-  O507  1  0.66241710  0.34933711  0.31460276  1
  O2-  O508  1  0.64791090  0.33013090  0.64598096  1
  O2-  O509  1  0.66089558  0.32662371  0.97223675  1
  O2-  O510  1  0.63203594  0.57078206  0.32148724  1
  O2-  O511  1  0.65335441  0.60712250  0.65977074  1
  O2-  O512  1  0.67736780  0.59237470  0.97407271  1
  O2-  O513  1  0.66982903  0.84685345  0.32906717  1
  O2-  O514  1  0.66847350  0.80362125  0.65132131  1
  O2-  O515  1  0.67236229  0.82972798  0.97128463  1
  O2-  O516  1  0.94142099  0.09389086  0.31074192  1
  O2-  O517  1  0.90686164  0.07156212  0.65238883  1
  O2-  O518  1  0.87840502  0.05760281  0.96575587  1
  O2-  O519  1  0.96850529  0.32756698  0.39640687  1
  O2-  O520  1  0.89110150  0.31385691  0.66357073  1
  O2-  O521  1  0.91483148  0.32694068  0.97544323  1
  O2-  O522  1  0.94580967  0.55272097  0.28606005  1
  O2-  O523  1  0.91526882  0.57555543  0.64272244  1
  O2-  O524  1  0.92058792  0.58172727  0.98201759  1
  O2-  O525  1  0.90859626  0.83226520  0.31569957  1
  O2-  O526  1  0.91788406  0.83133176  0.64730794  1
  O2-  O527  1  0.92260813  0.83222182  0.98507574  1
  O2-  O528  1  0.11787584  0.21673812  0.01267943  1
  O2-  O529  1  0.12470055  0.22846137  0.30141915  1
  O2-  O530  1  0.08024019  0.15234213  0.68015469  1
  O2-  O531  1  0.08719427  0.43084084  0.01515380  1
  O2-  O532  1  0.13976693  0.46281899  0.36784627  1
  O2-  O533  1  0.12725482  0.42158796  0.70644381  1
  O2-  O534  1  0.08561926  0.66833216  0.01835057  1
  O2-  O535  1  0.09547488  0.67376400  0.34088276  1
  O2-  O536  1  0.07989218  0.65687435  0.68653589  1
  O2-  O537  1  0.08774773  0.93129754  0.02890755  1
  O2-  O538  1  0.06907277  0.92964605  0.36014368  1
  O2-  O539  1  0.08846619  0.91749058  0.67842928  1
  O2-  O540  1  0.33170094  0.16670595  0.02432257  1
  O2-  O541  1  0.33723086  0.16463630  0.34478645  1
  O2-  O542  1  0.33263865  0.16594053  0.69358828  1
  O2-  O543  1  0.32093421  0.41109152  0.02581687  1
  O2-  O544  1  0.29349041  0.39779005  0.37615549  1
  O2-  O545  1  0.32943122  0.40717491  0.68086564  1
  O2-  O546  1  0.33670687  0.67691848  0.01638200  1
  O2-  O547  1  0.34355705  0.68536739  0.36256075  1
  O2-  O548  1  0.32928898  0.65809645  0.69360919  1
  O2-  O549  1  0.32850509  0.91653102  0.00876747  1
  O2-  O550  1  0.33356059  0.94102534  0.36362868  1
  O2-  O551  1  0.32328835  0.90822515  0.69365556  1
  O2-  O552  1  0.57451589  0.17956716  0.01863990  1
  O2-  O553  1  0.60055553  0.17690417  0.34946795  1
  O2-  O554  1  0.57542866  0.15907033  0.69182268  1
  O2-  O555  1  0.58295227  0.41650901  0.00229982  1
  O2-  O556  1  0.55922270  0.41064634  0.34441373  1
  O2-  O557  1  0.58110804  0.41681891  0.69251029  1
  O2-  O558  1  0.58261322  0.66188218  0.01108445  1
  O2-  O559  1  0.58571600  0.68769110  0.37066449  1
  O2-  O560  1  0.59844282  0.64021580  0.68240313  1
  O2-  O561  1  0.58735105  0.93021811  -0.01963709  1
  O2-  O562  1  0.60485642  0.93414800  0.35136365  1
  O2-  O563  1  0.58521430  0.89473993  0.73855373  1
  O2-  O564  1  0.85195817  0.16865577  0.01713995  1
  O2-  O565  1  0.85448521  0.16334042  0.37005225  1
  O2-  O566  1  0.82913663  0.14885529  0.70541999  1
  O2-  O567  1  0.82240614  0.40866238  0.01521283  1
  O2-  O568  1  0.79616336  0.49838686  0.35467749  1
  O2-  O569  1  0.81324800  0.40960108  0.68196044  1
  O2-  O570  1  0.83909750  0.66633276  0.02583646  1
  O2-  O571  1  0.83486468  0.66109210  0.36505044  1
  O2-  O572  1  0.84965309  0.66313969  0.68749078  1
  O2-  O573  1  0.84227321  0.91680438  0.02257751  1
  O2-  O574  1  0.83459164  0.92111229  0.35258473  1
  O2-  O575  1  0.83130008  0.90626664  0.69227634  1
