# generated using pymatgen
data_H2O
_symmetry_space_group_name_H-M   'P 1'
_cell_length_a   17.97972326
_cell_length_b   17.99611813
_cell_length_c   22.00282028
_cell_angle_alpha   89.98302902
_cell_angle_beta   90.01817885
_cell_angle_gamma   120.00601137
_symmetry_Int_Tables_number   1
_chemical_formula_structural   H2O
_chemical_formula_sum   'H384 O192'
_cell_volume   6165.16186567
_cell_formula_units_Z   192
loop_
 _symmetry_equiv_pos_site_id
 _symmetry_equiv_pos_as_xyz
  1  'x, y, z'
loop_
 _atom_type_symbol
 _atom_type_oxidation_number
  H+  1.0
  O2-  -2.0
loop_
 _atom_site_type_symbol
 _atom_site_label
 _atom_site_symmetry_multiplicity
 _atom_site_fract_x
 _atom_site_fract_y
 _atom_site_fract_z
 _atom_site_occupancy
  H+  H0  1  0.87435704  0.10569569  0.50969222  1
  H+  H1  1  0.87892281  0.38231959  0.34064500  1
  H+  H2  1  0.63911292  0.52871204  0.34150141  1
  H+  H3  1  0.38583990  0.77284795  0.65767969  1
  H+  H4  1  0.88870380  0.35126358  0.82125500  1
  H+  H5  1  0.36911549  0.66158759  0.16765809  1
  H+  H6  1  0.14623089  1.00806341  0.84545750  1
  H+  H7  1  0.39711080  1.03299481  0.16801781  1
  H+  H8  1  0.40021202  0.58104996  0.94384424  1
  H+  H9  1  0.76326313  0.12673661  0.50211369  1
  H+  H10  1  0.88182679  0.34871875  -0.01778076  1
  H+  H11  1  0.02800811  0.40404835  0.63212932  1
  H+  H12  1  0.64154656  0.61159688  0.84861509  1
  H+  H13  1  0.76469535  0.11281885  0.32769055  1
  H+  H14  1  0.87044544  -0.03265421  0.33925684  1
  H+  H15  1  0.30007788  -0.04704694  0.50262724  1
  H+  H16  1  0.53461750  0.65848187  0.16213495  1
  H+  H17  1  0.42594981  0.08127672  0.53939067  1
  H+  H18  1  0.63683078  0.27544651  0.00243367  1
  H+  H19  1  0.87416784  0.38726673  0.15561683  1
  H+  H20  1  0.62569364  0.73145707  0.34551082  1
  H+  H21  1  0.22323552  0.79327696  0.20695812  1
  H+  H22  1  0.37489080  0.28010194  0.51782697  1
  H+  H23  1  0.74050756  0.87046216  0.83787645  1
  H+  H24  1  0.88007591  0.10344511  0.16206267  1
  H+  H25  1  0.89031132  0.02976836  0.83038375  1
  H+  H26  1  0.16173445  0.32065943  1.07217286  1
  H+  H27  1  0.89310319  0.53342663  0.65913306  1
  H+  H28  1  0.57868422  0.16400488  0.25525486  1
  H+  H29  1  0.40038692  0.62660833  0.32649198  1
  H+  H30  1  0.78066163  0.64136773  0.67753741  1
  H+  H31  1  0.41199640  0.27568357  0.17545126  1
  H+  H32  1  0.12085775  0.75810700  0.48433264  1
  H+  H33  1  0.65435936  0.11896445  0.18021673  1
  H+  H34  1  0.45489756  0.10991626  0.31605711  1
  H+  H35  1  0.26385510  0.67744473  0.80740445  1
  H+  H36  1  0.50862831  0.34882990  0.18310940  1
  H+  H37  1  0.72951684  0.11581141  0.83492968  1
  H+  H38  1  0.74348262  0.37292564  0.17361151  1
  H+  H39  1  0.62329813  0.23003896  0.83154246  1
  H+  H40  1  0.60560331  0.38907800  0.00940352  1
  H+  H41  1  0.88966730  0.74760793  0.84889830  1
  H+  H42  1  0.11226532  0.75675167  0.15480992  1
  H+  H43  1  0.08966770  0.12193233  0.34295686  1
  H+  H44  1  0.84891865  0.71525020  0.16862786  1
  H+  H45  1  0.60076257  0.13983662  0.31839699  1
  H+  H46  1  0.11278434  -0.01868110  0.68313130  1
  H+  H47  1  0.23186269  0.34458992  0.52096728  1
  H+  H48  1  0.61888996  0.63952074  0.34948288  1
  H+  H49  1  0.39198148  0.27570430  0.33065006  1
  H+  H50  1  0.48195579  0.35202919  0.66943678  1
  H+  H51  1  0.14131041  0.35575277  0.84378255  1
  H+  H52  1  0.28295042  0.64538159  0.34234632  1
  H+  H53  1  0.63984535  0.97519817  0.01802651  1
  H+  H54  1  0.13675704  0.76889903  0.33035394  1
  H+  H55  1  0.14125778  0.09664102  0.99373289  1
  H+  H56  1  0.34334426  0.08320677  0.51349167  1
  H+  H57  1  0.21987649  0.07972231  0.48323684  1
  H+  H58  1  0.11837608  0.23927300  0.82737799  1
  H+  H59  1  0.42613436  0.42869188  0.52948239  1
  H+  H60  1  0.61317608  0.88564559  0.50179550  1
  H+  H61  1  0.61601301  0.09432791  0.52611038  1
  H+  H62  1  0.88072203  0.76524073  1.00821813  1
  H+  H63  1  0.64100244  -0.02753187  0.34166501  1
  H+  H64  1  0.59053066  0.40621386  0.77504883  1
  H+  H65  1  0.39689185  0.36226069  0.66850053  1
  H+  H66  1  0.86658401  0.97413790  0.49468668  1
  H+  H67  1  1.00591968  0.60086361  0.98246294  1
  H+  H68  1  0.76856029  0.12641998  0.99794472  1
  H+  H69  1  0.16910934  0.73186012  0.82518615  1
  H+  H70  1  0.85603150  0.44920248  0.80266869  1
  H+  H71  1  0.34835428  0.12808657  0.60662732  1
  H+  H72  1  0.32163283  0.63522172  0.82757677  1
  H+  H73  1  0.90018069  0.81480042  0.23659972  1
  H+  H74  1  0.85919484  0.57665170  0.83660345  1
  H+  H75  1  0.96641678  0.11282607  0.65864084  1
  H+  H76  1  0.63705112  0.51174544  0.49377852  1
  H+  H77  1  0.72665565  0.76931095  0.61615665  1
  H+  H78  1  0.96845252  0.61922148  0.16274484  1
  H+  H79  1  0.82669656  0.92391087  0.75043342  1
  H+  H80  1  0.61614073  0.47513673  0.82889811  1
  H+  H81  1  0.10708589  1.00845934  0.17961369  1
  H+  H82  1  0.03090686  0.87721648  0.01161317  1
  H+  H83  1  0.93915526  0.84539969  0.17068519  1
  H+  H84  1  0.13110741  0.01989421  0.33462833  1
  H+  H85  1  0.51005086  0.38110342  0.00309668  1
  H+  H86  1  0.13958475  0.88931538  0.44633183  1
  H+  H87  1  0.63477354  0.40429051  0.15641566  1
  H+  H88  1  0.55971165  0.15294406  0.58251194  1
  H+  H89  1  0.86999227  0.46149835  -0.00027575  1
  H+  H90  1  0.02274727  0.37616461  0.82402639  1
  H+  H91  1  0.63866931  0.89762120  0.17043085  1
  H+  H92  1  0.37116087  0.21673869  0.64002992  1
  H+  H93  1  0.48693884  0.86884736  0.83965438  1
  H+  H94  1  0.40293255  0.79415215  0.18057130  1
  H+  H95  1  0.13648874  0.51328138  0.98382416  1
  H+  H96  1  0.89802388  0.18069532  0.35522115  1
  H+  H97  1  0.40507626  0.40365877  0.28901038  1
  H+  H98  1  0.08663522  0.50133093  0.84894189  1
  H+  H99  1  0.11814149  0.21404576  0.00866826  1
  H+  H100  1  0.62190914  0.51250139  -0.00327561  1
  H+  H101  1  0.63475218  0.88479876  0.01454089  1
  H+  H102  1  0.47236957  0.36464184  0.84645073  1
  H+  H103  1  0.52218028  0.13198672  0.67410670  1
  H+  H104  1  0.03200976  0.86562321  0.83185932  1
  H+  H105  1  0.14425143  0.88254844  0.64452500  1
  H+  H106  1  0.65434357  0.02913295  0.17456138  1
  H+  H107  1  0.76273402  0.86387184  0.66212203  1
  H+  H108  1  0.64857680  0.78564923  0.84665641  1
  H+  H109  1  0.74221316  0.62440583  1.01294780  1
  H+  H110  1  -0.02292467  0.86918573  0.66994568  1
  H+  H111  1  0.88990781  0.61217507  0.33992490  1
  H+  H112  1  0.35577876  0.22959774  0.83530393  1
  H+  H113  1  0.61482386  0.14488927  0.01553811  1
  H+  H114  1  0.23644831  0.60798058  0.50459063  1
  H+  H115  1  0.72869930  0.86431421  0.50690417  1
  H+  H116  1  0.13361550  0.72863851  -0.00009927  1
  H+  H117  1  0.86693033  0.48800099  0.35129881  1
  H+  H118  1  0.56478029  0.18756720  0.51475544  1
  H+  H119  1  0.52302763  0.71427180  0.79712059  1
  H+  H120  1  0.52494261  0.14188048  0.01607019  1
  H+  H121  1  0.92267874  0.81466175  0.94707205  1
  H+  H122  1  0.85613280  0.21577706  -0.00711113  1
  H+  H123  1  0.98247081  0.11239225  0.98560406  1
  H+  H124  1  0.88706604  0.52246749  0.16058937  1
  H+  H125  1  0.87443435  0.25435723  0.35011208  1
  H+  H126  1  0.77680420  0.63913751  0.34913644  1
  H+  H127  1  0.96680834  0.10882042  0.50886989  1
  H+  H128  1  0.39804119  1.03637437  0.83687487  1
  H+  H129  1  0.30054742  0.90123209  0.15625146  1
  H+  H130  1  0.59097240  0.17147947  0.11650148  1
  H+  H131  1  0.11139243  0.38066083  1.01022732  1
  H+  H132  1  0.36795263  0.43941288  0.19683993  1
  H+  H133  1  0.74371830  0.86257678  0.33569265  1
  H+  H134  1  0.08507059  0.10427341  0.48728909  1
  H+  H135  1  0.11176449  0.36783694  0.19440950  1
  H+  H136  1  0.41727889  0.58238471  0.60422747  1
  H+  H137  1  0.86398030  0.13304401  0.81938391  1
  H+  H138  1  0.47254753  0.86395248  0.66064607  1
  H+  H139  1  0.11873272  0.64448981  0.34905099  1
  H+  H140  1  0.11896536  0.48427136  0.49459742  1
  H+  H141  1  0.39683649  0.10973115  0.68919115  1
  H+  H142  1  0.14327276  0.25397169  0.51604463  1
  H+  H143  1  0.63158481  0.61811418  0.18981406  1
  H+  H144  1  0.90685412  0.54712672  0.51266518  1
  H+  H145  1  0.54201635  0.89487375  0.34412560  1
  H+  H146  1  0.35843099  0.88272698  0.67057400  1
  H+  H147  1  0.39304587  0.78423542  0.83861498  1
  H+  H148  1  0.14187828  0.51938893  0.65711037  1
  H+  H149  1  0.38916947  0.55468528  0.17244726  1
  H+  H150  1  0.44598899  0.31679746  0.26972609  1
  H+  H151  1  0.35307311  -0.02479754  0.33756038  1
  H+  H152  1  0.06592480  0.15440673  0.43669827  1
  H+  H153  1  0.60697235  0.97621218  0.67653126  1
  H+  H154  1  0.62654877  0.89487701  0.83181677  1
  H+  H155  1  0.77338788  0.39354809  0.65070551  1
  H+  H156  1  0.46863463  0.85716816  0.50666354  1
  H+  H157  1  0.87560011  0.89088240  1.01168307  1
  H+  H158  1  0.87878769  0.65612430  0.50117465  1
  H+  H159  1  0.12654127  0.88034534  0.34239617  1
  H+  H160  1  0.03527816  0.66769127  0.49534288  1
  H+  H161  1  0.21253675  0.11310382  0.32807400  1
  H+  H162  1  0.14130570  0.52845194  0.33334094  1
  H+  H163  1  0.14634147  0.24069376  0.17654012  1
  H+  H164  1  0.63469225  0.53123355  0.18788653  1
  H+  H165  1  0.52632577  0.43437880  0.52276218  1
  H+  H166  1  0.86804683  0.73235599  0.68231786  1
  H+  H167  1  0.78191269  0.14063618  0.15305674  1
  H+  H168  1  0.00081119  0.39548184  0.50848791  1
  H+  H169  1  0.88318897  0.91528736  0.80168740  1
  H+  H170  1  0.88224516  0.41059627  0.50143009  1
  H+  H171  1  0.98741043  0.85669187  0.32545817  1
  H+  H172  1  0.13658881  0.64415586  0.18687380  1
  H+  H173  1  0.89711032  0.62327372  0.66951306  1
  H+  H174  1  0.12647596  0.55612611  0.16669083  1
  H+  H175  1  0.83144687  0.05627518  0.30530377  1
  H+  H176  1  0.34530227  0.42418547  0.45726271  1
  H+  H177  1  0.10414775  0.25754732  0.33068030  1
  H+  H178  1  0.79834850  0.42245960  0.50720022  1
  H+  H179  1  0.89539167  0.26623364  0.15845437  1
  H+  H180  1  0.09903032  0.38462611  0.34000316  1
  H+  H181  1  0.76231653  0.13063456  0.66776282  1
  H+  H182  1  0.39046834  0.90379130  0.15930405  1
  H+  H183  1  0.65370996  0.63602320  0.50581943  1
  H+  H184  1  0.84522637  -0.03042933  0.66515284  1
  H+  H185  1  0.39722144  1.03351138  -0.00727730  1
  H+  H186  1  0.63154206  0.23967060  0.17011601  1
  H+  H187  1  0.90067582  0.86041762  0.32894790  1
  H+  H188  1  0.22967754  0.11768517  0.65263026  1
  H+  H189  1  0.65449278  0.86521747  0.33433776  1
  H+  H190  1  0.77437486  0.62947668  0.82994075  1
  H+  H191  1  0.87817955  0.89194018  0.49788530  1
  H+  H192  1  0.47961432  0.60943844  0.66186597  1
  H+  H193  1  0.23441135  0.27011545  0.20875505  1
  H+  H194  1  0.01462117  0.41461231  0.14082861  1
  H+  H195  1  0.82800324  0.62116413  0.01852677  1
  H+  H196  1  0.29867456  0.17282254  0.49290357  1
  H+  H197  1  0.74702894  0.87040201  0.00163195  1
  H+  H198  1  0.12000182  0.56113979  0.91319969  1
  H+  H199  1  0.83578191  0.66172662  0.77041072  1
  H+  H200  1  0.47898264  0.62169970  0.51041406  1
  H+  H201  1  0.24344568  0.86596035  0.83929604  1
  H+  H202  1  0.86537274  0.22247550  0.81582943  1
  H+  H203  1  0.41275523  0.27283191  0.51854042  1
  H+  H204  1  0.88877845  0.83385094  0.86028703  1
  H+  H205  1  0.37688328  0.23812931  -0.00558139  1
  H+  H206  1  0.52791232  0.38617372  0.34979739  1
  H+  H207  1  0.86880811  0.72484940  0.34319032  1
  H+  H208  1  0.07901629  0.87760626  0.16691009  1
  H+  H209  1  0.33872295  0.21686346  0.08429293  1
  H+  H210  1  0.03687174  0.73862943  0.10943035  1
  H+  H211  1  0.17947300  0.83439781  0.24222133  1
  H+  H212  1  0.01917240  0.40041490  0.34184803  1
  H+  H213  1  0.36659035  0.72982475  0.49724608  1
  H+  H214  1  0.14928486  0.60856704  -0.00855644  1
  H+  H215  1  0.63514534  0.10399574  0.39397998  1
  H+  H216  1  0.38899752  0.62307718  0.50855030  1
  H+  H217  1  0.15718290  0.40486543  0.19034498  1
  H+  H218  1  0.51489396  0.64094022  0.83796474  1
  H+  H219  1  0.37032758  0.49521747  0.50916878  1
  H+  H220  1  0.83696354  0.42764686  0.41168709  1
  H+  H221  1  0.01359218  0.12223000  0.15263086  1
  H+  H222  1  0.11892044  0.62716591  0.67614727  1
  H+  H223  1  0.42875160  0.61377511  0.23111527  1
  H+  H224  1  0.61462948  0.73486155  0.49837482  1
  H+  H225  1  0.22862383  0.85980558  0.32913664  1
  H+  H226  1  0.23181538  0.60780259  0.65781844  1
  H+  H227  1  0.77409916  0.37893712  1.00562711  1
  H+  H228  1  0.37531411  0.89851306  0.82474640  1
  H+  H229  1  0.10813703  0.14000109  0.67871456  1
  H+  H230  1  0.52870338  0.64305220  -0.01897754  1
  H+  H231  1  0.86460586  0.00868499  0.17151256  1
  H+  H232  1  0.83075557  0.17082571  0.44820511  1
  H+  H233  1  0.49689931  0.87020622  -0.00529409  1
  H+  H234  1  0.27620595  0.89593047  0.66444842  1
  H+  H235  1  0.86129201  0.62280730  0.15974628  1
  H+  H236  1  0.37036658  0.48622507  1.01643749  1
  H+  H237  1  0.35138875  0.30645916  1.09939148  1
  H+  H238  1  0.11670275  0.60646479  0.84174888  1
  H+  H239  1  0.64548805  0.12274425  0.65705055  1
  H+  H240  1  0.24158377  0.86552145  0.99353255  1
  H+  H241  1  0.12155212  0.86793642  0.82646828  1
  H+  H242  1  -0.02154773  0.61212680  0.33971213  1
  H+  H243  1  0.89157085  0.11061242  0.98526878  1
  H+  H244  1  0.39823569  0.12416989  0.99302074  1
  H+  H245  1  -0.00123150  0.11796857  0.34184280  1
  H+  H246  1  0.27874042  0.38319573  0.67835245  1
  H+  H247  1  0.64571538  0.28927493  0.31725400  1
  H+  H248  1  1.01854764  0.14229615  0.82531531  1
  H+  H249  1  0.62018348  0.98047965  0.82876142  1
  H+  H250  1  0.13348575  0.35674719  0.65933410  1
  H+  H251  1  0.28674564  0.52501666  0.89026798  1
  H+  H252  1  0.31558050  0.91634641  0.39714828  1
  H+  H253  1  0.91893927  0.79935517  0.51184003  1
  H+  H254  1  0.87506743  0.97835988  0.00323542  1
  H+  H255  1  0.65444767  0.38249890  0.84809093  1
  H+  H256  1  0.59159124  0.03112170  0.97104407  1
  H+  H257  1  0.67678616  0.14568661  0.39718266  1
  H+  H258  1  0.88637679  0.86797619  0.66640718  1
  H+  H259  1  0.97092480  0.34907476  0.97841021  1
  H+  H260  1  0.14949339  0.86005434  0.99599755  1
  H+  H261  1  0.39949707  0.87369334  0.33549943  1
  H+  H262  1  0.66722135  0.41609568  0.52300446  1
  H+  H263  1  0.07862369  0.17298953  0.76171615  1
  H+  H264  1  0.49761405  0.87729740  0.18171302  1
  H+  H265  1  0.40522955  0.49426510  0.28846195  1
  H+  H266  1  0.28800719  0.14281190  -0.00117292  1
  H+  H267  1  0.62677567  0.60693605  0.98128449  1
  H+  H268  1  0.38286779  0.73874207  1.01118944  1
  H+  H269  1  0.64584528  0.61133430  0.66106125  1
  H+  H270  1  0.96217354  0.31946013  0.21002058  1
  H+  H271  1  0.80979640  0.85354905  0.18326283  1
  H+  H272  1  0.38067369  0.89582564  1.00103213  1
  H+  H273  1  0.93205848  0.84738063  0.57430684  1
  H+  H274  1  0.09753032  -0.02260133  0.45896746  1
  H+  H275  1  0.62101443  0.39602711  0.35068815  1
  H+  H276  1  0.92383777  0.60565719  0.96898829  1
  H+  H277  1  0.47444917  0.12643471  0.17866617  1
  H+  H278  1  0.91343356  0.41121166  0.60892430  1
  H+  H279  1  0.36744588  0.47233669  0.67611760  1
  H+  H280  1  0.10842143  0.22915864  0.67664752  1
  H+  H281  1  0.62699527  1.01181872  0.51446860  1
  H+  H282  1  0.37246797  0.73521289  0.34315274  1
  H+  H283  1  0.17064261  0.06368418  0.93591087  1
  H+  H284  1  0.77484366  0.36061084  0.80029092  1
  H+  H285  1  0.34279601  0.50422425  0.84708697  1
  H+  H286  1  0.73431215  0.37596177  0.33498492  1
  H+  H287  1  0.36628926  0.38734552  0.83680195  1
  H+  H288  1  0.68928460  0.84872921  0.94125187  1
  H+  H289  1  0.33372504  0.66889703  0.72734561  1
  H+  H290  1  0.17517035  0.57888939  0.56266209  1
  H+  H291  1  0.74784358  0.64122379  0.50518851  1
  H+  H292  1  0.40926021  0.82884100  0.56486234  1
  H+  H293  1  0.39525076  0.02096979  0.69216236  1
  H+  H294  1  0.83507458  0.16461076  0.08959488  1
  H+  H295  1  0.62328277  0.72719460  -0.01696735  1
  H+  H296  1  0.08801918  0.91115223  0.73570184  1
  H+  H297  1  0.91989290  0.08498282  0.89333207  1
  H+  H298  1  0.22845425  0.35117567  0.83887931  1
  H+  H299  1  0.39499520  0.62471066  0.00544343  1
  H+  H300  1  0.83025930  0.15922529  0.72979651  1
  H+  H301  1  0.28023847  0.66406130  0.16695833  1
  H+  H302  1  0.59082827  0.43464737  0.44226592  1
  H+  H303  1  0.60361854  0.22709899  0.66557208  1
  H+  H304  1  0.07489173  0.42277833  0.43621950  1
  H+  H305  1  0.35140914  0.43658599  0.07928066  1
  H+  H306  1  0.06573766  0.90547851  0.10080873  1
  H+  H307  1  0.18290029  0.82785013  0.89848652  1
  H+  H308  1  0.13402252  0.66967429  0.76438939  1
  H+  H309  1  0.68564682  0.59798122  0.60069799  1
  H+  H310  1  0.71560278  0.07388935  0.26438165  1
  H+  H311  1  0.75178195  0.42610764  0.86791814  1
  H+  H312  1  0.93329986  0.60443002  0.57348536  1
  H+  H313  1  0.15313117  0.31405237  0.27365497  1
  H+  H314  1  0.90404712  0.54283875  0.88402862  1
  H+  H315  1  0.34372419  0.12959110  0.33338273  1
  H+  H316  1  0.09450909  0.67382087  0.05931828  1
  H+  H317  1  0.42833013  0.09313644  0.89737460  1
  H+  H318  1  0.66339350  0.08558794  0.92394587  1
  H+  H319  1  0.34970258  0.68602028  0.07250812  1
  H+  H320  1  0.58387862  0.66588385  0.72851398  1
  H+  H321  1  0.17975423  0.87371916  0.58047658  1
  H+  H322  1  0.01664788  0.37003748  0.69808911  1
  H+  H323  1  0.33651517  0.91955906  0.76562385  1
  H+  H324  1  0.06936266  0.42446784  0.04881297  1
  H+  H325  1  0.36497163  0.14752991  0.82823416  1
  H+  H326  1  0.68611382  0.35447101  0.23405293  1
  H+  H327  1  0.58941277  0.42601065  0.10167120  1
  H+  H328  1  0.43330384  0.85030114  0.27571826  1
  H+  H329  1  0.62762289  0.25512554  0.43142498  1
  H+  H330  1  0.12028410  0.96801376  0.01131131  1
  H+  H331  1  0.08893727  0.68264981  0.40541343  1
  H+  H332  1  0.10084710  0.42713217  0.77701328  1
  H+  H333  1  0.15153714  0.08215485  0.60832763  1
  H+  H334  1  0.58553139  0.67400747  0.43944637  1
  H+  H335  1  0.67138988  0.08059518  0.60322166  1
  H+  H336  1  0.14151843  0.07059973  0.23697783  1
  H+  H337  1  0.07787697  0.14759262  0.06185393  1
  H+  H338  1  0.07182047  -0.02198923  0.52500294  1
  H+  H339  1  0.34262274  0.67088840  0.43654900  1
  H+  H340  1  0.23788531  0.37174749  1.02683849  1
  H+  H341  1  0.09900304  0.11601347  0.15825138  1
  H+  H342  1  0.39398321  0.36024461  0.99336318  1
  H+  H343  1  0.22733629  0.10330325  0.84664343  1
  H+  H344  1  0.58018030  0.23949054  0.43005519  1
  H+  H345  1  0.83321906  0.40247713  0.70535528  1
  H+  H346  1  0.66440664  0.58687186  0.28092088  1
  H+  H347  1  0.16997250  0.32024151  0.60838232  1
  H+  H348  1  0.60365760  0.91772026  0.10958771  1
  H+  H349  1  0.30915502  0.14832740  0.39461697  1
  H+  H350  1  0.30044215  0.41205501  0.37906074  1
  H+  H351  1  0.81352617  0.65579113  0.10420558  1
  H+  H352  1  0.67121267  0.33676425  0.94277474  1
  H+  H353  1  0.16940448  0.59051416  0.27565721  1
  H+  H354  1  0.36735299  0.63383940  0.67223601  1
  H+  H355  1  0.90898467  0.08357183  0.59660200  1
  H+  H356  1  0.91334880  0.32395069  0.88575522  1
  H+  H357  1  0.62561277  0.71913997  0.66574404  1
  H+  H358  1  0.33721099  0.41355313  0.77384778  1
  H+  H359  1  0.28014261  0.39891342  0.16513643  1
  H+  H360  1  0.64099004  0.11957936  0.83656363  1
  H+  H361  1  0.46144374  0.39403083  0.58909413  1
  H+  H362  1  0.89837529  0.35105886  0.27714435  1
  H+  H363  1  0.67671896  0.82600579  0.56901528  1
  H+  H364  1  0.84950395  0.68282097  0.43992394  1
  H+  H365  1  0.39479748  0.07642406  0.25973985  1
  H+  H366  1  0.35146683  0.92439410  0.06056553  1
  H+  H367  1  0.53376018  0.14410095  0.82788662  1
  H+  H368  1  0.84961594  0.91405945  0.40258017  1
  H+  H369  1  0.41952527  0.33919641  0.91113032  1
  H+  H370  1  0.62901393  0.73712227  0.16614779  1
  H+  H371  1  0.43718907  0.84359127  0.93427630  1
  H+  H372  1  0.49255855  0.63182965  0.32612485  1
  H+  H373  1  0.30644920  0.45672755  0.38024531  1
  H+  H374  1  0.69959289  0.84789072  0.24441725  1
  H+  H375  1  0.90226574  0.06884839  0.25843991  1
  H+  H376  1  0.03499497  0.63424497  0.68920834  1
  H+  H377  1  0.57854140  0.91590487  0.73386112  1
  H+  H378  1  0.73170355  0.46046267  0.57532629  1
  H+  H379  1  0.84181878  0.41000410  0.09428429  1
  H+  H380  1  0.58934440  0.91668984  0.44068355  1
  H+  H381  1  0.86000073  0.12927487  0.66539149  1
  H+  H382  1  0.11001084  0.43925594  0.14010954  1
  H+  H383  1  0.66705019  0.57577771  0.90595889  1
  O2-  O384  1  0.07400856  0.15028302  0.13826577  1
  O2-  O385  1  0.07056814  0.15045698  0.48179018  1
  O2-  O386  1  0.07971788  0.17473226  0.80863257  1
  O2-  O387  1  0.07160697  0.45905849  0.12436999  1
  O2-  O388  1  0.07552734  0.42232133  0.48134723  1
  O2-  O389  1  0.08739856  0.41534076  0.82015942  1
  O2-  O390  1  0.06517695  0.71073398  0.12915849  1
  O2-  O391  1  0.09138887  0.69635224  0.47397182  1
  O2-  O392  1  0.16472183  0.67863224  0.80636048  1
  O2-  O393  1  0.04684314  0.89941507  0.14499768  1
  O2-  O394  1  0.08335270  0.89546060  0.42211858  1
  O2-  O395  1  0.08936527  0.89705369  0.81291269  1
  O2-  O396  1  0.33442635  0.25137659  0.11841629  1
  O2-  O397  1  0.28181454  0.11805471  0.47309040  1
  O2-  O398  1  0.32671069  0.17055393  0.81835031  1
  O2-  O399  1  0.34045852  0.44279349  0.15710161  1
  O2-  O400  1  0.34851776  0.43078637  0.50141931  1
  O2-  O401  1  0.33104204  0.41310927  0.81888911  1
  O2-  O402  1  0.34051209  0.69509987  0.15325056  1
  O2-  O403  1  0.34163928  0.66793483  0.48174182  1
  O2-  O404  1  0.32200940  0.68312142  0.80516364  1
  O2-  O405  1  0.35876638  0.92996714  0.13884298  1
  O2-  O406  1  0.26811743  0.90731146  0.47196415  1
  O2-  O407  1  0.34133304  0.92529319  0.81112540  1
  O2-  O408  1  0.59936703  0.17607704  0.16159545  1
  O2-  O409  1  0.54384193  0.13485300  0.53825150  1
  O2-  O410  1  0.59613031  0.17144164  0.81622689  1
  O2-  O411  1  0.59953031  0.43094639  0.14656303  1
  O2-  O412  1  0.59826820  0.44704246  0.48753696  1
  O2-  O413  1  0.58862551  0.41283456  0.81961754  1
  O2-  O414  1  0.59517402  0.67752075  0.15191811  1
  O2-  O415  1  0.58480746  0.67290279  0.48512635  1
  O2-  O416  1  0.55528303  0.68737493  0.81167044  1
  O2-  O417  1  0.60494482  0.92385879  0.15487971  1
  O2-  O418  1  0.58247300  0.91518154  0.48566410  1
  O2-  O419  1  0.59079727  0.91880641  0.81629750  1
  O2-  O420  1  0.84148382  0.16956165  0.13491281  1
  O2-  O421  1  0.82508186  0.15480965  0.49148623  1
  O2-  O422  1  0.83242845  0.16111344  0.80179820  1
  O2-  O423  1  0.84579569  0.41790229  0.13967884  1
  O2-  O424  1  0.85346031  0.44223453  0.48480409  1
  O2-  O425  1  0.83406017  0.39068772  0.78430879  1
  O2-  O426  1  0.82672950  0.65583443  0.14913838  1
  O2-  O427  1  0.85099617  0.68877251  0.48530025  1
  O2-  O428  1  0.83537614  0.65508152  0.81650669  1
  O2-  O429  1  0.78773170  0.89402226  0.17695665  1
  O2-  O430  1  0.84253157  0.91452848  0.47856017  1
  O2-  O431  1  0.83816200  0.93010129  0.79806503  1
  O2-  O432  1  0.14073072  0.06913474  0.19179658  1
  O2-  O433  1  0.10813614  0.01946894  0.49386044  1
  O2-  O434  1  0.16893897  0.06490231  0.86456311  1
  O2-  O435  1  0.19392763  0.28965527  0.19941502  1
  O2-  O436  1  0.17447402  0.30887404  0.53858968  1
  O2-  O437  1  0.16652717  0.31914650  0.85280872  1
  O2-  O438  1  0.16304159  0.60860947  0.19106358  1
  O2-  O439  1  0.17547910  0.57499335  0.51780991  1
  O2-  O440  1  0.08394382  0.54959587  0.86989774  1
  O2-  O441  1  0.19434462  0.82589208  0.19846546  1
  O2-  O442  1  0.17757981  0.87540409  0.48933822  1
  O2-  O443  1  0.18286165  0.82450263  0.85327329  1
  O2-  O444  1  0.41369901  0.08808686  0.18880649  1
  O2-  O445  1  0.36329649  0.05784770  0.54511515  1
  O2-  O446  1  0.43035928  0.09635243  0.85221356  1
  O2-  O447  1  0.46179653  0.29752475  0.20377924  1
  O2-  O448  1  0.47911835  0.43482727  0.55203883  1
  O2-  O449  1  0.41376892  0.34103770  0.86273165  1
  O2-  O450  1  0.42247913  0.61573667  0.18563960  1
  O2-  O451  1  0.41828825  0.59098531  0.52573136  1
  O2-  O452  1  0.34069671  0.55361239  0.86775038  1
  O2-  O453  1  0.43733938  0.85496509  0.19581768  1
  O2-  O454  1  0.40791943  0.82412617  0.51968293  1
  O2-  O455  1  0.42706312  0.84284072  0.85622688  1
  O2-  O456  1  0.68819129  0.09010447  0.18942825  1
  O2-  O457  1  0.65652916  0.07230793  0.53135659  1
  O2-  O458  1  0.67039063  0.08690340  0.85218141  1
  O2-  O459  1  0.68356952  0.34523348  0.18906214  1
  O2-  O460  1  0.71182872  0.41223762  0.54731960  1
  O2-  O461  1  0.69890041  0.36936548  0.86517293  1
  O2-  O462  1  0.65683452  0.58610498  0.21001287  1
  O2-  O463  1  0.68594849  0.60656740  0.51880308  1
  O2-  O464  1  0.67050767  0.58000437  0.85969356  1
  O2-  O465  1  0.69801339  0.84863578  0.19765969  1
  O2-  O466  1  0.66970186  0.83705874  0.52391963  1
  O2-  O467  1  0.68444599  0.84593382  0.85957095  1
  O2-  O468  1  0.90517307  0.06996488  0.18017270  1
  O2-  O469  1  0.90689002  0.07632802  0.52518179  1
  O2-  O470  1  0.92078037  0.08955745  0.84731367  1
  O2-  O471  1  0.92942723  0.32628214  0.17728129  1
  O2-  O472  1  0.93687634  0.36953978  0.53351703  1
  O2-  O473  1  0.92047873  0.32434648  0.84041189  1
  O2-  O474  1  0.90791183  0.58260314  0.17472234  1
  O2-  O475  1  0.93155869  0.60706529  0.52815788  1
  O2-  O476  1  0.86288618  0.52542024  0.85020284  1
  O2-  O477  1  0.88370819  0.80895571  0.19222537  1
  O2-  O478  1  0.94273191  0.85761960  0.52985978  1
  O2-  O479  1  0.92304177  0.80686150  0.86839789  1
  O2-  O480  1  0.14962043  0.07799773  0.31786828  1
  O2-  O481  1  0.16525394  0.09161387  0.65150302  1
  O2-  O482  1  0.17193668  0.06569975  0.98260726  1
  O2-  O483  1  0.12784612  0.31569955  0.31303876  1
  O2-  O484  1  0.16730683  0.32737850  0.65434059  1
  O2-  O485  1  0.17243674  0.33475118  1.02903728  1
  O2-  O486  1  0.17409524  0.59037591  0.32028607  1
  O2-  O487  1  0.17084158  0.57925519  0.64320686  1
  O2-  O488  1  0.16274978  0.57172531  0.96503075  1
  O2-  O489  1  0.16777179  0.83061232  0.31311507  1
  O2-  O490  1  0.18363860  0.86687157  0.62449660  1
  O2-  O491  1  0.18020053  0.83105891  0.97946896  1
  O2-  O492  1  0.39321363  0.07513119  0.30630621  1
  O2-  O493  1  0.43172364  0.08385340  0.70058689  1
  O2-  O494  1  0.43120951  0.09464467  0.97984267  1
  O2-  O495  1  0.43580314  0.33128191  0.31314218  1
  O2-  O496  1  0.42927550  0.33847997  0.64620809  1
  O2-  O497  1  0.42579558  0.33384256  0.97659447  1
  O2-  O498  1  0.43494664  0.60456198  0.30589284  1
  O2-  O499  1  0.41723549  0.57770326  0.64956553  1
  O2-  O500  1  0.41836034  0.58832756  0.98674063  1
  O2-  O501  1  0.43285321  0.84661738  0.32103165  1
  O2-  O502  1  0.41219470  0.83356510  0.64421265  1
  O2-  O503  1  0.43705960  0.84558918  0.97979445  1
  O2-  O504  1  0.73012000  0.05856673  0.30441387  1
  O2-  O505  1  0.67680698  0.09039705  0.64913278  1
  O2-  O506  1  0.65150717  0.07725479  0.96986784  1
  O2-  O507  1  0.67745767  0.35241336  0.31335767  1
  O2-  O508  1  0.63595205  0.34379645  0.67400419  1
  O2-  O509  1  0.67095761  0.33617328  0.98802181  1
  O2-  O510  1  0.67025282  0.58941312  0.32737761  1
  O2-  O511  1  0.68551288  0.59230670  0.64554052  1
  O2-  O512  1  0.65932760  0.57366875  0.97976507  1
  O2-  O513  1  0.68491987  0.83618605  0.31684876  1
  O2-  O514  1  0.69638256  0.79741798  0.63231818  1
  O2-  O515  1  0.68517392  0.84153035  0.98608982  1
  O2-  O516  1  0.89046203  0.06460495  0.30326278  1
  O2-  O517  1  0.90644659  0.08504534  0.64318754  1
  O2-  O518  1  0.92277353  0.08287718  0.96803011  1
  O2-  O519  1  0.90923998  0.35173213  0.32057823  1
  O2-  O520  1  0.96769871  0.42397718  0.58824468  1
  O2-  O521  1  0.91024892  0.31845669  0.96339873  1
  O2-  O522  1  0.91729126  0.57844696  0.32689364  1
  O2-  O523  1  0.92963092  0.59615979  0.65286149  1
  O2-  O524  1  0.94579456  0.56616405  0.96592090  1
  O2-  O525  1  0.92725966  0.82816780  0.31051742  1
  O2-  O526  1  0.91666226  0.83630576  0.65439646  1
  O2-  O527  1  0.92211266  0.82268154  0.99183881  1
  O2-  O528  1  0.08221343  0.15185017  0.01613341  1
  O2-  O529  1  0.05725016  0.14992338  0.35882297  1
  O2-  O530  1  0.07437690  0.16745156  0.69192564  1
  O2-  O531  1  0.07573816  0.40919168  0.00644699  1
  O2-  O532  1  0.07965757  0.42495246  0.35527925  1
  O2-  O533  1  0.06164318  0.39956615  0.66790215  1
  O2-  O534  1  0.10319260  0.66750752  0.01572189  1
  O2-  O535  1  0.08891895  0.67695562  0.35852086  1
  O2-  O536  1  0.09458781  0.65446010  0.70287755  1
  O2-  O537  1  0.09045271  0.90711723  0.02847247  1
  O2-  O538  1  0.09815190  0.91441866  0.35710436  1
  O2-  O539  1  0.08247189  0.91889299  0.69118867  1
  O2-  O540  1  0.34828848  0.17658608  0.01308240  1
  O2-  O541  1  0.31640976  0.16182016  0.35054105  1
  O2-  O542  1  0.33548949  0.15346840  0.64231118  1
  O2-  O543  1  0.34162717  0.42723054  0.03462852  1
  O2-  O544  1  0.38487194  0.43890614  0.26759176  1
  O2-  O545  1  0.33973639  0.41204398  0.69216788  1
  O2-  O546  1  0.35402393  0.67981396  0.02812459  1
  O2-  O547  1  0.34389304  0.67413193  0.35644020  1
  O2-  O548  1  0.33496679  0.66418337  0.68235898  1
  O2-  O549  1  0.34671321  0.92280202  0.01530738  1
  O2-  O550  1  0.32836082  0.91503167  0.35345511  1
  O2-  O551  1  0.33009085  0.91364219  0.68827550  1
  O2-  O552  1  0.58474193  0.17205667  0.03460878  1
  O2-  O553  1  0.57662146  0.17208429  0.29924091  1
  O2-  O554  1  0.58158014  0.16683250  0.65344286  1
  O2-  O555  1  0.57392973  0.41816681  0.02219856  1
  O2-  O556  1  0.58709440  0.42088359  0.36833236  1
  O2-  O557  1  0.58910261  0.37436596  0.69511603  1
  O2-  O558  1  0.58973707  0.66708918  -0.03168969  1
  O2-  O559  1  0.58947636  0.67249994  0.36219815  1
  O2-  O560  1  0.58289947  0.65910091  0.68430137  1
  O2-  O561  1  0.60382664  0.91540498  0.03097607  1
  O2-  O562  1  0.60098463  0.91616310  0.36075170  1
  O2-  O563  1  0.57273857  0.91574329  0.68916682  1
  O2-  O564  1  0.82873837  0.15705035  0.01162291  1
  O2-  O565  1  0.85352047  0.19456778  0.36568361  1
  O2-  O566  1  0.82820791  0.15968206  0.68327989  1
  O2-  O567  1  0.83675660  0.40291161  0.01701116  1
  O2-  O568  1  0.83247380  0.42466420  0.36587459  1
  O2-  O569  1  0.83381496  0.41665900  0.66152533  1
  O2-  O570  1  0.80409184  0.65629907  0.03217563  1
  O2-  O571  1  0.83807456  0.66757176  0.36311160  1
  O2-  O572  1  0.83983285  0.67156835  0.69703285  1
  O2-  O573  1  0.84474209  0.92132831  0.02323669  1
  O2-  O574  1  0.84756285  0.90893295  0.35677013  1
  O2-  O575  1  0.82285683  0.91294133  0.68471387  1
