# generated using pymatgen
data_H2O
_symmetry_space_group_name_H-M   'P 1'
_cell_length_a   17.99277868
_cell_length_b   17.99861985
_cell_length_c   21.99613648
_cell_angle_alpha   90.01646251
_cell_angle_beta   89.96701191
_cell_angle_gamma   120.02708079
_symmetry_Int_Tables_number   1
_chemical_formula_structural   H2O
_chemical_formula_sum   'H384 O192'
_cell_volume   6167.31074225
_cell_formula_units_Z   192
loop_
 _symmetry_equiv_pos_site_id
 _symmetry_equiv_pos_as_xyz
  1  'x, y, z'
loop_
 _atom_type_symbol
 _atom_type_oxidation_number
  H+  1.0
  O2-  -2.0
loop_
 _atom_site_type_symbol
 _atom_site_label
 _atom_site_symmetry_multiplicity
 _atom_site_fract_x
 _atom_site_fract_y
 _atom_site_fract_z
 _atom_site_occupancy
  H+  H0  1  0.27762196  0.64206972  0.65104036  1
  H+  H1  1  0.72965708  0.85029103  0.18160015  1
  H+  H2  1  0.47213464  0.38050390  0.32211912  1
  H+  H3  1  0.38817900  0.01498325  0.32301783  1
  H+  H4  1  0.88549366  0.14026382  0.16511475  1
  H+  H5  1  0.36589901  0.89009542  0.13388224  1
  H+  H6  1  0.23591599  0.09683243  -0.02499928  1
  H+  H7  1  0.65108923  0.60493605  0.82879102  1
  H+  H8  1  0.17028969  0.74987059  0.14871220  1
  H+  H9  1  0.60076848  0.46883571  0.00250873  1
  H+  H10  1  0.86007855  0.72848849  0.66950001  1
  H+  H11  1  0.14807165  0.32432519  0.83098765  1
  H+  H12  1  0.28938198  0.41860993  0.82093710  1
  H+  H13  1  0.52981010  0.63909594  0.99705609  1
  H+  H14  1  0.88081120  0.84649783  0.50149167  1
  H+  H15  1  0.93185687  0.68954899  0.14499144  1
  H+  H16  1  0.48860907  0.32698916  0.85604939  1
  H+  H17  1  0.77333173  0.87175150  0.47830402  1
  H+  H18  1  0.35925122  0.21467171  0.82738357  1
  H+  H19  1  0.87403365  0.76584323  0.32385392  1
  H+  H20  1  0.64447418  0.36352430  0.83359474  1
  H+  H21  1  0.64341221  0.10741893  0.50149912  1
  H+  H22  1  0.56279907  0.64768483  0.75619821  1
  H+  H23  1  0.89119582  0.52044251  0.51290578  1
  H+  H24  1  0.66087204  0.37690020  0.31854893  1
  H+  H25  1  0.77128888  0.13154766  0.00890159  1
  H+  H26  1  0.76530147  0.38778515  0.99535426  1
  H+  H27  1  0.61843521  0.22873306  0.82480712  1
  H+  H28  1  0.35988400  0.94845648  0.50959595  1
  H+  H29  1  0.17236823  0.86780667  0.00921107  1
  H+  H30  1  0.89396893  0.65333555  0.16077714  1
  H+  H31  1  0.58770303  0.66766429  0.84423148  1
  H+  H32  1  0.99914073  0.94253898  0.96791066  1
  H+  H33  1  0.90191429  0.87157085  0.17433024  1
  H+  H34  1  0.53017642  0.90625084  0.82296570  1
  H+  H35  1  0.77255059  0.38923533  0.51122871  1
  H+  H36  1  0.61423530  0.14435074  0.66688903  1
  H+  H37  1  0.61110281  0.21968228  0.50022813  1
  H+  H38  1  0.62909358  0.10756391  0.33338882  1
  H+  H39  1  0.10908484  0.12470365  0.49939424  1
  H+  H40  1  0.62970766  0.75690542  0.47829846  1
  H+  H41  1  0.85848164  0.22166909  0.01367357  1
  H+  H42  1  0.26933982  0.38238100  0.51555341  1
  H+  H43  1  0.63042912  0.27000599  -0.00738023  1
  H+  H44  1  0.39153921  0.86066911  0.97089426  1
  H+  H45  1  0.35432302  0.71527068  0.49534444  1
  H+  H46  1  0.38501078  0.00891982  1.01643445  1
  H+  H47  1  0.86396617  0.95704675  0.49361000  1
  H+  H48  1  0.89939192  0.87405865  0.65331773  1
  H+  H49  1  0.22705514  0.60812052  0.32835878  1
  H+  H50  1  0.86080471  0.90951364  0.00446465  1
  H+  H51  1  0.14795405  0.52140242  0.17503702  1
  H+  H52  1  0.35874139  0.47748582  0.50939595  1
  H+  H53  1  0.88113871  0.61289974  0.66000326  1
  H+  H54  1  0.61467736  0.48946948  0.32912970  1
  H+  H55  1  0.48050366  0.86375386  -0.02212632  1
  H+  H56  1  0.73173557  0.63380734  0.16820195  1
  H+  H57  1  0.48229780  0.35545731  0.51180032  1
  H+  H58  1  0.63156088  0.27840311  0.61473088  1
  H+  H59  1  0.98046588  0.35972937  0.32849752  1
  H+  H60  1  0.91026818  0.63442718  0.83108803  1
  H+  H61  1  0.88597757  0.48838507  0.83092979  1
  H+  H62  1  0.36777504  0.83438792  0.33278863  1
  H+  H63  1  0.13871397  0.01845098  0.17900067  1
  H+  H64  1  0.39288270  0.54260848  0.83431987  1
  H+  H65  1  0.11284498  0.47582318  0.49791051  1
  H+  H66  1  0.38784165  0.02379896  0.66449181  1
  H+  H67  1  0.11212910  0.88224915  0.67247911  1
  H+  H68  1  0.73562218  0.36945919  0.84260398  1
  H+  H69  1  0.75379426  0.63015844  0.33094540  1
  H+  H70  1  0.66816421  0.57217151  0.89215634  1
  H+  H71  1  0.64012686  0.76234109  0.17864291  1
  H+  H72  1  0.90003199  0.27331973  0.17595952  1
  H+  H73  1  0.13681482  0.38178499  0.98675449  1
  H+  H74  1  0.13105496  0.60977715  0.67110089  1
  H+  H75  1  0.62017112  0.10196969  0.17439641  1
  H+  H76  1  0.60698372  0.62572696  0.48567839  1
  H+  H77  1  0.21690690  0.84438493  0.52019543  1
  H+  H78  1  0.27547785  0.38434771  0.16860158  1
  H+  H79  1  0.37575040  0.39321258  0.54750623  1
  H+  H80  1  0.54836445  0.49636213  0.37280477  1
  H+  H81  1  0.02166002  0.38960996  0.68288627  1
  H+  H82  1  0.17334676  0.66285627  0.14855455  1
  H+  H83  1  0.48015820  0.36400533  0.16909833  1
  H+  H84  1  0.02402763  0.15068273  0.01227997  1
  H+  H85  1  0.88965069  0.56579133  0.32628380  1
  H+  H86  1  0.88598431  0.03325778  0.99448377  1
  H+  H87  1  0.35543014  0.25158069  0.33794553  1
  H+  H88  1  0.12222499  0.37742499  0.17241045  1
  H+  H89  1  0.14115981  0.26951849  0.18203853  1
  H+  H90  1  0.59314018  0.97322514  0.14969259  1
  H+  H91  1  0.62523280  0.64515386  0.32393329  1
  H+  H92  1  1.02356303  0.88544906  0.66578913  1
  H+  H93  1  0.22185577  0.85952234  0.67063608  1
  H+  H94  1  0.37562610  0.15611762  0.49329008  1
  H+  H95  1  0.61988868  0.90515320  0.82661307  1
  H+  H96  1  0.85281622  0.71260804  0.49466797  1
  H+  H97  1  -0.02234326  0.11217517  0.33371668  1
  H+  H98  1  0.64807243  1.03795607  0.83957600  1
  H+  H99  1  0.14786989  0.82257000  0.23739838  1
  H+  H100  1  0.48490390  0.10457503  0.84282762  1
  H+  H101  1  0.84067389  0.59607864  0.01429955  1
  H+  H102  1  0.98105738  0.36783189  0.51859943  1
  H+  H103  1  0.63429549  0.23556109  0.34541237  1
  H+  H104  1  0.62711000  0.36108989  0.51442944  1
  H+  H105  1  0.37513029  0.64639564  0.00701931  1
  H+  H106  1  0.57042624  0.91672927  0.05601961  1
  H+  H107  1  0.01861642  0.40272912  0.00582534  1
  H+  H108  1  0.98638717  0.10875000  0.17616785  1
  H+  H109  1  0.10235607  0.95934783  0.50650147  1
  H+  H110  1  0.41820503  0.34040299  0.26017294  1
  H+  H111  1  0.14249724  0.02295801  0.65653481  1
  H+  H112  1  0.28374776  0.63470880  0.15777036  1
  H+  H113  1  1.02839883  0.89236844  0.16721654  1
  H+  H114  1  0.58765903  0.66392032  0.05647703  1
  H+  H115  1  0.85288681  0.62492622  0.49122214  1
  H+  H116  1  0.87923822  0.39322695  0.67918459  1
  H+  H117  1  0.86400227  0.97137384  0.33603341  1
  H+  H118  1  0.72352801  0.85858375  0.33026465  1
  H+  H119  1  0.47161411  0.60937393  0.49784619  1
  H+  H120  1  0.48990127  0.16186559  0.31841807  1
  H+  H121  1  0.12447975  0.52835695  0.94739564  1
  H+  H122  1  0.13481083  0.52343250  0.66866319  1
  H+  H123  1  0.98341735  0.36636981  0.17557773  1
  H+  H124  1  0.76924734  0.63984809  0.67188808  1
  H+  H125  1  0.88024874  0.36504845  0.00816593  1
  H+  H126  1  0.38952620  0.53671663  -0.00842280  1
  H+  H127  1  0.04971266  0.85400304  0.02511913  1
  H+  H128  1  0.22564883  0.12477839  0.33322519  1
  H+  H129  1  0.63165548  0.50540370  0.20091863  1
  H+  H130  1  0.88267367  0.07956078  0.51816424  1
  H+  H131  1  0.89865955  0.50529677  0.14202069  1
  H+  H132  1  0.36008963  0.71814902  0.33720035  1
  H+  H133  1  0.85627498  0.50437516  0.14244925  1
  H+  H134  1  0.71001590  0.58059931  -0.01267258  1
  H+  H135  1  0.62346573  0.14360815  0.82354285  1
  H+  H136  1  0.36768943  0.72958256  1.00534824  1
  H+  H137  1  0.22717120  0.06696608  0.51642444  1
  H+  H138  1  0.22030674  0.61307995  0.51311030  1
  H+  H139  1  0.86578172  0.97260349  0.16603571  1
  H+  H140  1  0.64084399  0.77555627  0.98668173  1
  H+  H141  1  0.34591981  0.38159683  0.65513004  1
  H+  H142  1  0.37130897  0.29770938  1.00250105  1
  H+  H143  1  0.12906689  0.84943693  0.51648045  1
  H+  H144  1  0.89339747  0.36920453  0.52368380  1
  H+  H145  1  0.10743132  0.38269318  0.69614607  1
  H+  H146  1  0.66375954  0.82043207  0.53388847  1
  H+  H147  1  0.22461836  0.38147180  0.99346904  1
  H+  H148  1  0.12035393  0.89271618  0.16822523  1
  H+  H149  1  0.11759301  0.41890613  0.83216293  1
  H+  H150  1  0.46523947  0.60061737  0.66422871  1
  H+  H151  1  0.77779874  0.15385510  0.67405708  1
  H+  H152  1  0.41992407  0.18497819  0.48030896  1
  H+  H153  1  0.13868410  0.60963641  0.32865623  1
  H+  H154  1  0.35902629  0.13785460  0.66588493  1
  H+  H155  1  0.08746793  0.74535827  0.32548117  1
  H+  H156  1  -0.01339042  0.61556854  -0.00538294  1
  H+  H157  1  0.36635109  0.17225664  0.34477106  1
  H+  H158  1  0.63768173  1.02259728  -0.00997450  1
  H+  H159  1  0.84301061  0.16519592  0.11113426  1
  H+  H160  1  0.10878642  0.13344307  0.34858729  1
  H+  H161  1  0.11186459  0.47306536  0.34138047  1
  H+  H162  1  0.51743235  0.62756205  0.15534664  1
  H+  H163  1  0.71766417  0.60443574  0.50956235  1
  H+  H164  1  0.93728076  0.59552569  0.93196370  1
  H+  H165  1  0.86111741  0.22265163  0.31003408  1
  H+  H166  1  0.71406397  0.33440269  0.15750973  1
  H+  H167  1  0.88553402  0.77417294  0.82969110  1
  H+  H168  1  0.66508325  0.82489926  0.27065583  1
  H+  H169  1  0.37391524  0.24034858  0.14231107  1
  H+  H170  1  0.63164466  0.01319919  0.50330510  1
  H+  H171  1  0.22239378  0.36326902  0.33312029  1
  H+  H172  1  0.35124491  0.62648567  0.49299846  1
  H+  H173  1  0.35218067  0.47251608  0.66007657  1
  H+  H174  1  0.52733954  0.12518772  0.00770233  1
  H+  H175  1  0.64141966  0.11335999  0.99487113  1
  H+  H176  1  0.01923838  0.62036183  0.36042321  1
  H+  H177  1  0.38951610  0.87575331  0.82582662  1
  H+  H178  1  0.47584314  0.84842972  0.51259207  1
  H+  H179  1  0.16348030  0.77581409  1.00420296  1
  H+  H180  1  0.91938931  0.58348957  0.57221758  1
  H+  H181  1  0.01750694  0.11614270  0.50470650  1
  H+  H182  1  0.37136184  0.76916621  0.16669767  1
  H+  H183  1  0.88889887  0.12153130  0.99123762  1
  H+  H184  1  0.90937565  0.33290679  0.06385864  1
  H+  H185  1  0.84769428  0.72309489  -0.04627290  1
  H+  H186  1  -0.03055766  0.84556063  0.50457288  1
  H+  H187  1  0.25597261  0.85622658  0.36267222  1
  H+  H188  1  0.59899001  0.37976657  0.00655834  1
  H+  H189  1  0.51423689  0.54951343  0.72907941  1
  H+  H190  1  0.36463712  0.72617049  0.66844593  1
  H+  H191  1  0.31393539  0.60668711  0.82468245  1
  H+  H192  1  0.15351169  1.00737631  -0.01039463  1
  H+  H193  1  0.38557131  0.61484680  0.64560150  1
  H+  H194  1  0.27382938  0.88860870  0.83155784  1
  H+  H195  1  0.92716342  0.07784154  0.23608785  1
  H+  H196  1  0.92632222  0.34558719  0.61117931  1
  H+  H197  1  0.37786729  0.10911309  0.15579323  1
  H+  H198  1  0.72748214  0.87838319  0.83079613  1
  H+  H199  1  0.13317592  0.27137927  0.33722540  1
  H+  H200  1  0.36489845  -0.02048191  0.82825433  1
  H+  H201  1  0.03026498  0.78242091  0.29699654  1
  H+  H202  1  0.86910377  0.36871938  0.35564528  1
  H+  H203  1  0.61248686  0.46516627  0.81692340  1
  H+  H204  1  0.53197083  0.12369530  0.49903527  1
  H+  H205  1  0.35695630  0.40713954  0.01047053  1
  H+  H206  1  1.02182874  0.61412495  0.16630448  1
  H+  H207  1  0.62520891  0.60312601  0.67085203  1
  H+  H208  1  0.41802499  0.58398867  0.22895591  1
  H+  H209  1  0.17510506  0.58148014  0.23392759  1
  H+  H210  1  0.40275692  0.08232976  0.51118228  1
  H+  H211  1  0.35223493  0.85724156  0.51441684  1
  H+  H212  1  0.16217365  0.07987519  0.27727477  1
  H+  H213  1  0.87319239  0.14472769  0.82744172  1
  H+  H214  1  0.01519584  0.63423164  0.68246792  1
  H+  H215  1  0.78829924  0.38964068  0.68500364  1
  H+  H216  1  0.39189484  0.09131017  0.98788763  1
  H+  H217  1  0.35261047  0.47704354  0.33518113  1
  H+  H218  1  0.60455878  0.87505240  0.48116733  1
  H+  H219  1  0.88604092  0.52549107  0.66335744  1
  H+  H220  1  0.46371259  0.85192550  0.32244659  1
  H+  H221  1  0.60941413  0.88713607  1.00037421  1
  H+  H222  1  0.93355429  0.84589220  0.97938385  1
  H+  H223  1  0.10393608  0.72009878  0.69163090  1
  H+  H224  1  0.35784973  0.88777272  0.68642631  1
  H+  H225  1  0.51262648  0.13308079  0.15645095  1
  H+  H226  1  0.26823403  0.13163277  0.81651267  1
  H+  H227  1  0.86849198  0.89823496  0.81364012  1
  H+  H228  1  0.89648347  0.50607123  0.37328577  1
  H+  H229  1  0.89801572  0.27831934  0.83888140  1
  H+  H230  1  0.12701695  0.08353333  0.83388928  1
  H+  H231  1  1.01119225  0.87779186  0.81277685  1
  H+  H232  1  0.13762879  0.35955107  0.50820324  1
  H+  H233  1  0.32460197  0.42954740  0.07075699  1
  H+  H234  1  0.67095307  0.84041809  0.92937209  1
  H+  H235  1  0.58826663  0.17508191  0.40211942  1
  H+  H236  1  0.50783077  0.39417019  0.64237929  1
  H+  H237  1  0.14389450  0.98580379  0.35744931  1
  H+  H238  1  0.10602652  0.71984750  0.51041132  1
  H+  H239  1  0.13918987  0.77599583  0.86049903  1
  H+  H240  1  0.36657317  0.27998626  0.50193711  1
  H+  H241  1  1.00566726  0.62085040  0.51013807  1
  H+  H242  1  0.11085479  0.62814649  0.50992279  1
  H+  H243  1  0.12114772  0.88804020  0.35118740  1
  H+  H244  1  0.10973667  0.24092747  0.01209697  1
  H+  H245  1  0.46869650  0.37449833  1.00313127  1
  H+  H246  1  0.60317663  0.87687032  0.33869850  1
  H+  H247  1  0.60298136  0.21933848  0.15802027  1
  H+  H248  1  0.63944575  0.03342366  0.66067597  1
  H+  H249  1  0.13089894  0.19830327  0.81071148  1
  H+  H250  1  0.77315337  0.10988505  0.49662499  1
  H+  H251  1  0.10403583  0.11898850  0.66862642  1
  H+  H252  1  0.28241511  0.88814692  0.05339904  1
  H+  H253  1  0.87351991  0.98958994  0.82209681  1
  H+  H254  1  0.89090726  0.72891713  0.96213774  1
  H+  H255  1  0.25640595  0.18749526  0.48900861  1
  H+  H256  1  0.00853874  0.38761015  0.83212261  1
  H+  H257  1  0.66676918  0.80474076  0.72154814  1
  H+  H258  1  0.88854685  0.28233293  0.67014590  1
  H+  H259  1  0.84348496  0.34762442  0.14702261  1
  H+  H260  1  0.03147245  0.63952939  0.19523320  1
  H+  H261  1  0.20974220  0.34919768  0.69019367  1
  H+  H262  1  0.13626962  0.27058772  0.51030254  1
  H+  H263  1  0.78492014  0.14689255  0.83013862  1
  H+  H264  1  0.98401218  0.11381051  0.83921784  1
  H+  H265  1  0.82205063  0.15665004  0.25624222  1
  H+  H266  1  0.23489527  0.88244213  0.20201271  1
  H+  H267  1  0.39747460  0.20829512  -0.03730623  1
  H+  H268  1  0.61380281  0.38208252  0.15825499  1
  H+  H269  1  0.41107414  0.82137947  0.74540942  1
  H+  H270  1  0.63219592  0.52180470  0.65572581  1
  H+  H271  1  0.61828876  0.72851299  0.33462312  1
  H+  H272  1  0.35261621  0.38990692  0.33305107  1
  H+  H273  1  0.76655200  0.89543650  0.00791059  1
  H+  H274  1  0.63487053  0.60576581  0.98232910  1
  H+  H275  1  0.78426375  0.63373206  0.82396102  1
  H+  H276  1  0.62200219  0.90416492  0.68936898  1
  H+  H277  1  0.22975244  0.10261413  0.18840761  1
  H+  H278  1  0.12066358  0.26098175  0.69035078  1
  H+  H279  1  0.41746130  0.82765854  0.87334014  1
  H+  H280  1  0.22725308  0.60641039  0.83210760  1
  H+  H281  1  0.11056116  0.38320622  0.34448503  1
  H+  H282  1  0.37886125  0.97038395  0.33085716  1
  H+  H283  1  0.60071071  0.96478656  0.33954699  1
  H+  H284  1  0.71500000  0.10442239  0.31925853  1
  H+  H285  1  0.74645052  0.88798863  0.69480259  1
  H+  H286  1  0.38870566  0.61383918  0.32467941  1
  H+  H287  1  0.89541552  0.36714618  0.84372602  1
  H+  H288  1  0.42510581  0.32306728  0.90663469  1
  H+  H289  1  0.47727357  0.61208460  0.32081161  1
  H+  H290  1  0.39048379  0.61393577  0.16800495  1
  H+  H291  1  0.16651477  0.32706063  0.24368939  1
  H+  H292  1  0.09753570  0.91679700  0.08008808  1
  H+  H293  1  0.38997410  0.36439146  0.16819901  1
  H+  H294  1  0.66166839  0.84931522  0.60507893  1
  H+  H295  1  0.34408547  0.67112437  0.09765769  1
  H+  H296  1  0.58486803  0.16361094  0.06639598  1
  H+  H297  1  0.11990066  0.67756605  0.05932841  1
  H+  H298  1  0.15865592  0.82028317  0.61350216  1
  H+  H299  1  0.42002580  0.59364805  0.92973064  1
  H+  H300  1  0.42671260  0.12965073  0.26187204  1
  H+  H301  1  0.39386981  0.83072518  0.22415640  1
  H+  H302  1  0.63903308  0.06330497  0.23314811  1
  H+  H303  1  0.67753934  0.09515835  0.89981969  1
  H+  H304  1  0.23313495  0.11575433  0.65744700  1
  H+  H305  1  0.85099668  0.42699960  0.77402940  1
  H+  H306  1  0.46887438  0.63994900  0.83470482  1
  H+  H307  1  0.17905557  0.08308980  0.57237546  1
  H+  H308  1  0.07522220  0.13563086  0.75746371  1
  H+  H309  1  0.12014886  0.13818683  0.16087690  1
  H+  H310  1  0.34085883  0.43068891  0.76096327  1
  H+  H311  1  0.63483988  0.79194027  0.83156890  1
  H+  H312  1  0.60693157  0.47597827  0.50071421  1
  H+  H313  1  0.50202364  0.88935055  0.14374262  1
  H+  H314  1  0.66961708  0.08648453  0.59887465  1
  H+  H315  1  0.67088598  0.32926778  0.22264377  1
  H+  H316  1  0.83830725  0.66960767  0.76250185  1
  H+  H317  1  0.85907871  0.47564581  -0.00333131  1
  H+  H318  1  0.65759500  0.32931326  0.93280199  1
  H+  H319  1  0.07700184  0.15969729  0.40870465  1
  H+  H320  1  0.11028656  -0.03144473  0.82021220  1
  H+  H321  1  0.47768774  0.86544345  0.69270630  1
  H+  H322  1  0.83874815  0.90958703  0.39351748  1
  H+  H323  1  0.56549961  0.90562830  0.42975949  1
  H+  H324  1  0.75008962  0.42389053  0.28528399  1
  H+  H325  1  0.28717273  0.17321068  0.10977674  1
  H+  H326  1  0.07690371  0.42997470  0.76721469  1
  H+  H327  1  0.12222420  0.64594757  -0.00874404  1
  H+  H328  1  0.78393599  0.37519494  0.35498878  1
  H+  H329  1  0.07706239  0.91221995  0.75117306  1
  H+  H330  1  0.57118506  0.40178330  0.76060224  1
  H+  H331  1  0.10116858  0.48195361  0.03526345  1
  H+  H332  1  0.78838855  0.61595508  0.06602254  1
  H+  H333  1  0.79706537  0.66208312  0.39658647  1
  H+  H334  1  0.92294220  0.34067591  0.26774527  1
  H+  H335  1  0.31510675  0.21953313  0.42763334  1
  H+  H336  1  0.90776453  0.03856576  0.57564231  1
  H+  H337  1  0.60162396  0.62067050  0.15365682  1
  H+  H338  1  0.92421917  0.08931581  0.89920774  1
  H+  H339  1  0.09820340  0.91329296  0.44425967  1
  H+  H340  1  0.32825591  0.17376890  0.72128684  1
  H+  H341  1  0.83680007  0.17890009  0.73336390  1
  H+  H342  1  0.43121673  0.06056925  0.90316832  1
  H+  H343  1  0.17328046  0.36322672  0.89858734  1
  H+  H344  1  0.08834489  0.17427588  0.10441071  1
  H+  H345  1  0.59072090  0.94279146  0.73815548  1
  H+  H346  1  0.19372754  0.83472026  0.91532799  1
  H+  H347  1  0.92932275  0.83658738  0.23283583  1
  H+  H348  1  0.30437067  0.85834353  0.42274664  1
  H+  H349  1  0.09545226  0.39924545  0.10951496  1
  H+  H350  1  0.39138686  0.02843168  0.16022204  1
  H+  H351  1  0.03862882  0.65329483  0.78384274  1
  H+  H352  1  0.00397091  0.09403458  0.67522920  1
  H+  H353  1  0.81132315  0.37576297  0.08641434  1
  H+  H354  1  0.83106821  0.91692424  0.10592413  1
  H+  H355  1  0.58594321  0.42204351  0.10396316  1
  H+  H356  1  0.86780677  0.95204625  0.72339711  1
  H+  H357  1  0.16077032  0.05198817  0.89255003  1
  H+  H358  1  0.75807928  0.71479213  0.12647447  1
  H+  H359  1  0.91661271  0.82904914  0.59627336  1
  H+  H360  1  0.57778173  0.42308573  0.43880391  1
  H+  H361  1  0.83099828  0.40561484  0.45231336  1
  H+  H362  1  0.76413085  0.53643532  0.26682649  1
  H+  H363  1  0.37097185  0.18441405  0.03421491  1
  H+  H364  1  0.58711572  0.17676363  0.72536059  1
  H+  H365  1  0.32946372  0.66021523  0.39836568  1
  H+  H366  1  0.32453451  0.92355069  0.73753627  1
  H+  H367  1  0.08204102  0.41706998  0.43824094  1
  H+  H368  1  0.09792623  0.67127913  0.40434253  1
  H+  H369  1  0.58634172  0.37944710  0.64186278  1
  H+  H370  1  0.42129380  0.58782302  0.56208650  1
  H+  H371  1  0.16106267  0.58288377  0.57472433  1
  H+  H372  1  0.92102331  0.84914950  0.88164025  1
  H+  H373  1  0.70384367  0.89020738  0.59934746  1
  H+  H374  1  0.65700037  0.58315059  0.56852491  1
  H+  H375  1  0.83669635  0.53065566  0.22364734  1
  H+  H376  1  0.84099563  0.13927247  0.44332902  1
  H+  H377  1  0.47866238  0.11446427  0.66128357  1
  H+  H378  1  0.90086045  0.86142081  0.32232885  1
  H+  H379  1  0.58093174  0.65093517  0.42128437  1
  H+  H380  1  0.36336333  0.47534706  0.16424918  1
  H+  H381  1  0.88859606  0.11017851  0.31713619  1
  H+  H382  1  0.41966024  0.80094509  0.57268172  1
  H+  H383  1  0.42836243  0.06427824  0.57589376  1
  O2-  O384  1  0.09009048  0.16991522  0.15042452  1
  O2-  O385  1  0.07658000  0.15257477  0.48710517  1
  O2-  O386  1  0.08394821  0.13999401  0.80439032  1
  O2-  O387  1  0.09321627  0.40808537  0.15302645  1
  O2-  O388  1  0.08352237  0.41558052  0.48358916  1
  O2-  O389  1  0.07370573  0.43226485  0.81450662  1
  O2-  O390  1  0.17530998  0.70854025  0.12223285  1
  O2-  O391  1  0.07592281  0.65726612  0.49518703  1
  O2-  O392  1  0.03286395  0.66904121  0.82665532  1
  O2-  O393  1  0.09232127  0.92413278  0.15151710  1
  O2-  O394  1  0.07921344  0.90153235  0.48890727  1
  O2-  O395  1  0.07365720  0.90719190  0.79841820  1
  O2-  O396  1  0.34525745  0.18468518  0.11793525  1
  O2-  O397  1  0.30232136  0.23872895  0.46795720  1
  O2-  O398  1  0.31556333  0.18134742  0.79614571  1
  O2-  O399  1  0.33346906  0.41435142  0.14908743  1
  O2-  O400  1  0.33468436  0.41381754  0.51074087  1
  O2-  O401  1  0.34804895  0.44064499  0.80528304  1
  O2-  O402  1  0.34459942  0.66898193  0.14417887  1
  O2-  O403  1  0.31943171  0.65591444  0.47894202  1
  O2-  O404  1  0.26371237  0.59938685  0.80186541  1
  O2-  O405  1  0.38516665  0.94548815  0.11054784  1
  O2-  O406  1  0.32086785  0.88656452  0.49971824  1
  O2-  O407  1  0.33014757  0.92009637  0.80945484  1
  O2-  O408  1  0.57308402  0.15916093  0.14222095  1
  O2-  O409  1  0.58897777  0.16333147  0.48002259  1
  O2-  O410  1  0.58911576  0.16949769  0.80793576  1
  O2-  O411  1  0.58561310  0.41700179  0.14917210  1
  O2-  O412  1  0.57805608  0.41540451  0.48353510  1
  O2-  O413  1  0.58138333  0.40369059  0.80466180  1
  O2-  O414  1  0.57791549  0.65555446  0.13879207  1
  O2-  O415  1  0.57672062  0.65374172  0.46657413  1
  O2-  O416  1  0.57686141  0.69419328  0.80945025  1
  O2-  O417  1  0.56035381  0.91792222  0.12673355  1
  O2-  O418  1  0.57047786  0.90443313  0.47544208  1
  O2-  O419  1  0.59328865  0.93987176  0.81285869  1
  O2-  O420  1  0.85945405  0.17634368  0.15456953  1
  O2-  O421  1  0.83447404  0.12988270  0.48698268  1
  O2-  O422  1  0.84526945  0.17787865  0.81408605  1
  O2-  O423  1  0.79302430  0.33767003  0.12247125  1
  O2-  O424  1  0.83263460  0.41916511  0.49676065  1
  O2-  O425  1  0.84961923  0.42738450  0.81952731  1
  O2-  O426  1  0.75478976  0.65923843  0.12784006  1
  O2-  O427  1  0.81836219  0.65149200  0.48029159  1
  O2-  O428  1  0.84368679  0.67138493  0.80814094  1
  O2-  O429  1  0.83549889  0.91213258  0.15068828  1
  O2-  O430  1  0.83639986  0.89988844  0.47166298  1
  O2-  O431  1  0.84353800  0.93342969  0.79975262  1
  O2-  O432  1  0.16863466  0.07979971  0.19558764  1
  O2-  O433  1  0.18296629  0.08177815  0.52502833  1
  O2-  O434  1  0.15553167  0.05019491  0.84650008  1
  O2-  O435  1  0.17077507  0.33002513  0.19783094  1
  O2-  O436  1  0.16847721  0.33077728  0.52410701  1
  O2-  O437  1  0.17712210  0.37777660  0.85377780  1
  O2-  O438  1  0.18053689  0.58184722  0.18863074  1
  O2-  O439  1  0.15960822  0.58516545  0.52873058  1
  O2-  O440  1  0.14423704  0.60853073  0.88381345  1
  O2-  O441  1  0.17418929  0.84119823  0.19598448  1
  O2-  O442  1  0.15481904  0.81501726  0.53291794  1
  O2-  O443  1  0.18210415  0.83496976  0.87135555  1
  O2-  O444  1  0.40477170  0.08326543  0.18036966  1
  O2-  O445  1  0.43188799  0.05446999  0.52993416  1
  O2-  O446  1  0.42597157  0.06990909  0.85969002  1
  O2-  O447  1  0.41789947  0.33053425  0.18123686  1
  O2-  O448  1  0.42675408  0.31449021  0.53428134  1
  O2-  O449  1  0.43966830  0.28673573  0.88165529  1
  O2-  O450  1  0.41807617  0.58043724  0.18341316  1
  O2-  O451  1  0.41363780  0.58462318  0.51661750  1
  O2-  O452  1  0.41237683  0.59948760  0.85427634  1
  O2-  O453  1  0.38793211  0.82924546  0.17927421  1
  O2-  O454  1  0.41602728  0.81463055  0.53016122  1
  O2-  O455  1  0.42507206  0.84708022  0.83050917  1
  O2-  O456  1  0.64537763  0.06703044  0.18858278  1
  O2-  O457  1  0.66805885  0.07311537  0.51827227  1
  O2-  O458  1  0.68088886  0.09912398  0.85439077  1
  O2-  O459  1  0.65906491  0.32373051  0.17855445  1
  O2-  O460  1  0.65442424  0.32844567  0.53183119  1
  O2-  O461  1  0.67401356  0.33605840  0.85413721  1
  O2-  O462  1  0.65524797  0.56051292  0.22425599  1
  O2-  O463  1  0.65605784  0.57644962  0.52324917  1
  O2-  O464  1  0.67614888  0.57239738  0.84609198  1
  O2-  O465  1  0.67132513  0.81811023  0.19961580  1
  O2-  O466  1  0.66180082  0.82016306  0.48937554  1
  O2-  O467  1  0.67057917  0.85155051  0.85083929  1
  O2-  O468  1  0.92539885  0.07781568  0.19054481  1
  O2-  O469  1  0.91436541  0.04903510  0.53005227  1
  O2-  O470  1  0.92372069  0.08831180  0.85346227  1
  O2-  O471  1  0.92209996  0.33565144  0.18804640  1
  O2-  O472  1  0.92503421  0.34209717  0.54013510  1
  O2-  O473  1  0.92946174  0.33914452  0.85481897  1
  O2-  O474  1  0.81424295  0.52160504  0.26501791  1
  O2-  O475  1  0.92524899  0.58298284  0.52603315  1
  O2-  O476  1  0.94444432  0.60733009  0.84563067  1
  O2-  O477  1  0.93837459  0.84749078  0.18787565  1
  O2-  O478  1  0.90907643  0.81533749  0.51977381  1
  O2-  O479  1  0.91753061  0.83805117  0.83743604  1
  O2-  O480  1  0.16427058  0.08388595  0.32238568  1
  O2-  O481  1  0.17033750  0.08276428  0.64072443  1
  O2-  O482  1  0.17458158  0.06017771  0.96522020  1
  O2-  O483  1  0.15977464  0.33000473  0.31910359  1
  O2-  O484  1  0.15019569  0.32007669  0.70630973  1
  O2-  O485  1  0.16621901  0.35018908  0.97405420  1
  O2-  O486  1  0.16653575  0.57778219  0.31252903  1
  O2-  O487  1  0.15964285  0.58187948  0.65020597  1
  O2-  O488  1  0.15869189  0.59188182  0.94248122  1
  O2-  O489  1  0.08952966  0.79542950  0.30304737  1
  O2-  O490  1  0.15943236  0.82584464  0.65856711  1
  O2-  O491  1  0.20526459  0.83922557  0.99831528  1
  O2-  O492  1  0.44006066  0.16225354  0.30013167  1
  O2-  O493  1  0.41878476  0.08122503  0.64406447  1
  O2-  O494  1  0.41970561  0.05571723  0.98749995  1
  O2-  O495  1  0.41343371  0.34529999  0.30508279  1
  O2-  O496  1  0.41472791  0.37013071  0.57793750  1
  O2-  O497  1  0.40903641  0.35552638  0.98712465  1
  O2-  O498  1  0.41699641  0.58323712  0.30629667  1
  O2-  O499  1  0.41277063  0.57815189  0.63846165  1
  O2-  O500  1  0.42749179  0.59546014  0.97536958  1
  O2-  O501  1  0.40339845  0.81837688  0.30725291  1
  O2-  O502  1  0.41437891  0.82921744  0.70083803  1
  O2-  O503  1  0.42086151  0.82956554  0.95977443  1
  O2-  O504  1  0.65127209  0.07023172  0.31838475  1
  O2-  O505  1  0.66823781  0.09310017  0.64370430  1
  O2-  O506  1  0.67270871  0.08486397  0.97823578  1
  O2-  O507  1  0.70419022  0.36536935  0.30149775  1
  O2-  O508  1  0.64668785  0.33581757  0.59824250  1
  O2-  O509  1  0.65589091  0.33073607  0.97820392  1
  O2-  O510  1  0.68870034  0.54240003  0.28152094  1
  O2-  O511  1  0.66188198  0.58485906  0.64790058  1
  O2-  O512  1  0.65494882  0.56720940  0.96524041  1
  O2-  O513  1  0.66198848  0.82720652  0.31702742  1
  O2-  O514  1  0.68850579  0.86500130  0.71234372  1
  O2-  O515  1  0.66949348  0.83745222  0.97493415  1
  O2-  O516  1  0.92034693  0.07839576  0.31323915  1
  O2-  O517  1  0.90617691  0.02890618  0.65154816  1
  O2-  O518  1  0.92010465  0.09163108  0.97634856  1
  O2-  O519  1  0.91959650  0.33063605  0.31272412  1
  O2-  O520  1  0.92364451  0.34600685  0.65771012  1
  O2-  O521  1  0.91569316  0.33743232  1.01963001  1
  O2-  O522  1  0.91971283  0.56800345  0.36457888  1
  O2-  O523  1  0.91375170  0.58465935  0.64539598  1
  O2-  O524  1  0.92809985  0.58500681  0.97615489  1
  O2-  O525  1  0.92158182  0.82224679  0.30889068  1
  O2-  O526  1  0.92117032  0.83437921  0.64186315  1
  O2-  O527  1  0.94116405  0.89669910  0.95789149  1
  O2-  O528  1  0.08171464  0.18361134  0.03124940  1
  O2-  O529  1  0.07868094  0.16414529  0.36326987  1
  O2-  O530  1  0.06530817  0.13631123  0.68881302  1
  O2-  O531  1  0.08301869  0.44083652  0.00192142  1
  O2-  O532  1  0.07919034  0.41347492  0.35823116  1
  O2-  O533  1  0.08208425  0.42142670  0.69995024  1
  O2-  O534  1  0.09646502  0.67280151  0.01671561  1
  O2-  O535  1  0.08455465  0.66118609  0.36082479  1
  O2-  O536  1  0.07029419  0.65925264  0.70534311  1
  O2-  O537  1  0.10001244  0.90933970  0.03403478  1
  O2-  O538  1  0.14167885  0.93671491  0.37986107  1
  O2-  O539  1  0.08327734  0.91639459  0.68352699  1
  O2-  O540  1  0.35546711  0.16625001  -0.00863658  1
  O2-  O541  1  0.32776777  0.19403645  0.35905203  1
  O2-  O542  1  0.32556183  0.16610113  0.67602880  1
  O2-  O543  1  0.32395091  0.43451098  0.02549629  1
  O2-  O544  1  0.32098021  0.41699908  0.35022965  1
  O2-  O545  1  0.32293975  0.41278047  0.67722317  1
  O2-  O546  1  0.34417362  0.67344111  0.02589705  1
  O2-  O547  1  0.33095886  0.65755952  0.35307440  1
  O2-  O548  1  0.33980349  0.67495892  0.64150931  1
  O2-  O549  1  0.31174783  0.94178222  0.07900565  1
  O2-  O550  1  0.28933334  0.83320168  0.38115762  1
  O2-  O551  1  0.32642890  0.91994103  0.69127223  1
  O2-  O552  1  0.58770577  0.16476200  0.02062057  1
  O2-  O553  1  0.59078598  0.17720093  0.35659371  1
  O2-  O554  1  0.58365712  0.17546964  0.67999193  1
  O2-  O555  1  0.57060849  0.41135525  0.02300964  1
  O2-  O556  1  0.56740956  0.45619921  0.36127537  1
  O2-  O557  1  0.56116273  0.40890603  0.66452185  1
  O2-  O558  1  0.59133795  0.66682896  0.01131981  1
  O2-  O559  1  0.58923528  0.66406127  0.34421616  1
  O2-  O560  1  0.54804338  0.60838548  0.71428867  1
  O2-  O561  1  0.57708534  0.91725888  0.00961176  1
  O2-  O562  1  0.56882226  0.90340528  0.35301557  1
  O2-  O563  1  0.58678990  0.93269285  0.69273562  1
  O2-  O564  1  0.83183604  0.16046119  0.02504786  1
  O2-  O565  1  0.82614888  0.15936342  0.30075887  1
  O2-  O566  1  0.83785445  0.18673757  0.68865999  1
  O2-  O567  1  0.82606292  0.41446884  0.00977406  1
  O2-  O568  1  0.83731422  0.39289566  0.37822817  1
  O2-  O569  1  0.84868550  0.42580712  0.69552956  1
  O2-  O570  1  0.78349694  0.58267437  0.02905542  1
  O2-  O571  1  0.78567760  0.68112522  0.35744737  1
  O2-  O572  1  0.83052418  0.66841321  0.68561507  1
  O2-  O573  1  0.82602113  0.92962234  0.02573012  1
  O2-  O574  1  0.83368557  0.90981494  0.34833642  1
  O2-  O575  1  0.86404471  0.94180339  0.67808516  1
