# generated using pymatgen
data_H2O
_symmetry_space_group_name_H-M   'P 1'
_cell_length_a   17.99517499
_cell_length_b   17.99964197
_cell_length_c   22.02276457
_cell_angle_alpha   89.99923231
_cell_angle_beta   89.99554002
_cell_angle_gamma   120.00347921
_symmetry_Int_Tables_number   1
_chemical_formula_structural   H2O
_chemical_formula_sum   'H384 O192'
_cell_volume   6177.42070652
_cell_formula_units_Z   192
loop_
 _symmetry_equiv_pos_site_id
 _symmetry_equiv_pos_as_xyz
  1  'x, y, z'
loop_
 _atom_type_symbol
 _atom_type_oxidation_number
  H+  1.0
  O2-  -2.0
loop_
 _atom_site_type_symbol
 _atom_site_label
 _atom_site_symmetry_multiplicity
 _atom_site_fract_x
 _atom_site_fract_y
 _atom_site_fract_z
 _atom_site_occupancy
  H+  H0  1  0.14011390  0.83327381  0.15429355  1
  H+  H1  1  0.34613544  0.72155970  0.83360106  1
  H+  H2  1  0.10791716  0.70816013  0.15246910  1
  H+  H3  1  0.18045526  0.08421330  1.05257099  1
  H+  H4  1  0.65071067  0.81553380  0.82278078  1
  H+  H5  1  0.88132127  0.49839773  0.01349431  1
  H+  H6  1  0.74595581  0.37520207  0.84691209  1
  H+  H7  1  0.77230187  0.11309246  0.88773015  1
  H+  H8  1  0.09850480  0.61658699  0.15096214  1
  H+  H9  1  0.50413957  0.35856433  0.68276213  1
  H+  H10  1  1.01799735  0.63447327  0.50931344  1
  H+  H11  1  0.97355071  0.34964042  0.84688809  1
  H+  H12  1  0.89654585  0.10466734  0.63789715  1
  H+  H13  1  0.21360082  0.60871808  0.83907116  1
  H+  H14  1  0.64227040  0.37606115  0.70064200  1
  H+  H15  1  0.86052015  0.49582700  0.83919271  1
  H+  H16  1  1.01353700  0.38636798  0.65527312  1
  H+  H17  1  0.32069566  0.50073457  0.88251518  1
  H+  H18  1  0.68151275  0.54771847  0.49087807  1
  H+  H19  1  0.28132518  0.40647419  0.33455180  1
  H+  H20  1  0.88091810  0.71847589  0.82856136  1
  H+  H21  1  0.89250611  0.28238710  0.50811645  1
  H+  H22  1  0.39202157  0.45739334  0.80581000  1
  H+  H23  1  0.91284044  0.02612739  0.87147910  1
  H+  H24  1  0.98449251  0.12320061  0.14392052  1
  H+  H25  1  0.67502192  0.27958797  0.68112497  1
  H+  H26  1  0.61890562  0.10620192  0.66813466  1
  H+  H27  1  0.10897034  0.97414782  0.82842599  1
  H+  H28  1  0.04506777  0.27199141  0.55202560  1
  H+  H29  1  0.92477209  0.38478311  0.65722669  1
  H+  H30  1  0.63735408  0.28300310  0.50893642  1
  H+  H31  1  0.86669059  0.14060713  0.49151355  1
  H+  H32  1  0.58172021  0.92580904  0.39581313  1
  H+  H33  1  0.84038910  0.95334494  0.15746143  1
  H+  H34  1  0.60328505  0.67369072  0.39260722  1
  H+  H35  1  0.37117700  0.85733421  0.67097095  1
  H+  H36  1  0.38388096  0.86048620  0.98892486  1
  H+  H37  1  1.01209675  0.37709055  1.01005937  1
  H+  H38  1  0.63515140  0.27063896  0.21107366  1
  H+  H39  1  0.64240533  0.12129796  0.51149139  1
  H+  H40  1  0.60756834  0.89001319  0.33768498  1
  H+  H41  1  0.87158035  0.25754380  0.16367410  1
  H+  H42  1  0.12299610  0.18324169  0.40545656  1
  H+  H43  1  0.39453999  0.60970949  0.66480415  1
  H+  H44  1  0.52799677  0.89511854  0.49291139  1
  H+  H45  1  0.40516767  0.62732667  0.31437052  1
  H+  H46  1  0.11495943  0.88746825  0.82217282  1
  H+  H47  1  0.79434100  0.13026280  0.81683914  1
  H+  H48  1  0.15202535  0.11671787  0.66562250  1
  H+  H49  1  0.54195982  0.15572199  0.35122379  1
  H+  H50  1  0.12512093  0.84976929  -0.02710144  1
  H+  H51  1  0.88608016  0.37139585  0.99833267  1
  H+  H52  1  0.00380228  0.79216354  0.11272429  1
  H+  H53  1  0.85840066  0.38182964  0.15813613  1
  H+  H54  1  0.87623269  0.39991804  0.35278608  1
  H+  H55  1  0.59485870  0.67862390  0.04965912  1
  H+  H56  1  0.39312529  0.36895092  0.19044046  1
  H+  H57  1  0.37187497  0.08848857  0.66955319  1
  H+  H58  1  0.40267664  0.62797699  0.17817274  1
  H+  H59  1  0.38655541  0.87245952  0.16311294  1
  H+  H60  1  0.13540911  0.51519080  0.16913045  1
  H+  H61  1  0.03081748  0.63872984  0.05403261  1
  H+  H62  1  0.48361975  0.61217642  0.65405353  1
  H+  H63  1  0.16639674  0.03465782  0.66399422  1
  H+  H64  1  0.65382606  0.03045429  0.96274025  1
  H+  H65  1  0.86462644  0.75339682  0.17406378  1
  H+  H66  1  0.14611054  0.39821305  0.67968998  1
  H+  H67  1  0.60467704  -0.01481469  0.14430835  1
  H+  H68  1  0.00851908  0.63170655  0.82548723  1
  H+  H69  1  0.11509384  0.23027263  -0.00883986  1
  H+  H70  1  0.40696078  0.75945150  0.02926244  1
  H+  H71  1  0.15722258  0.00221193  0.35007565  1
  H+  H72  1  0.75775096  0.13590066  0.15505076  1
  H+  H73  1  0.86901996  0.42778609  0.73285536  1
  H+  H74  1  0.61605743  0.90051659  -0.00670550  1
  H+  H75  1  0.94545402  0.85033584  0.18622067  1
  H+  H76  1  0.14996473  0.81340594  0.88653389  1
  H+  H77  1  0.88988711  0.86472610  0.51291533  1
  H+  H78  1  0.12973564  0.35843980  0.98646240  1
  H+  H79  1  0.39159644  0.27964046  0.17989239  1
  H+  H80  1  0.75138359  0.64450046  0.82772779  1
  H+  H81  1  0.86278404  0.14459224  0.01140508  1
  H+  H82  1  0.84063406  -0.04019602  0.34829265  1
  H+  H83  1  0.52966722  0.14147795  0.49937526  1
  H+  H84  1  0.41616624  0.56622694  0.86613060  1
  H+  H85  1  0.26305169  0.63349007  -0.03180319  1
  H+  H86  1  0.54534245  0.19089966  0.72349289  1
  H+  H87  1  0.89579941  0.28383195  0.34507715  1
  H+  H88  1  0.45754538  0.32376824  0.84799927  1
  H+  H89  1  0.39061869  0.08886839  0.86687826  1
  H+  H90  1  0.62809655  0.86195937  0.65253566  1
  H+  H91  1  0.39086721  0.49815520  1.02463620  1
  H+  H92  1  0.78621615  0.06041803  0.73983600  1
  H+  H93  1  0.05844998  0.94485002  0.34565721  1
  H+  H94  1  0.89147743  0.78302999  0.99272534  1
  H+  H95  1  0.11829867  0.93362358  0.73454356  1
  H+  H96  1  0.88403954  0.85361171  0.65224704  1
  H+  H97  1  0.56106920  0.67975623  0.80335107  1
  H+  H98  1  0.75090500  0.93635388  0.79580579  1
  H+  H99  1  0.37333735  0.61178816  0.50749595  1
  H+  H100  1  0.78317491  0.88455549  0.49904010  1
  H+  H101  1  1.04164118  0.39694398  0.35750735  1
  H+  H102  1  0.32052993  0.67592063  0.44249172  1
  H+  H103  1  0.33640036  0.62816757  0.83700478  1
  H+  H104  1  0.02424203  0.37261909  0.16033300  1
  H+  H105  1  1.02588122  0.62576047  0.35041239  1
  H+  H106  1  0.69986246  0.09605408  0.68048606  1
  H+  H107  1  0.63431643  0.59516198  0.16138582  1
  H+  H108  1  0.52189091  0.65783701  -0.00306449  1
  H+  H109  1  0.11911347  0.97560379  -0.00666738  1
  H+  H110  1  0.65058689  0.57447969  0.83174885  1
  H+  H111  1  0.56649261  0.98020823  0.81866493  1
  H+  H112  1  0.10780683  0.72366619  0.50145069  1
  H+  H113  1  0.88833878  0.52155719  0.33086305  1
  H+  H114  1  0.34280489  0.95140284  0.67290658  1
  H+  H115  1  1.03681608  0.14827865  0.83128236  1
  H+  H116  1  0.61605521  0.47763831  0.34555470  1
  H+  H117  1  0.33590487  0.66923842  0.23116603  1
  H+  H118  1  0.88957997  0.65605863  0.01183687  1
  H+  H119  1  0.66639055  0.54500525  -0.02795672  1
  H+  H120  1  0.61487833  0.72782706  0.33146299  1
  H+  H121  1  0.07783255  0.64450547  0.41252170  1
  H+  H122  1  0.51260607  0.11727567  -0.02450404  1
  H+  H123  1  0.14249334  0.89604688  0.67644310  1
  H+  H124  1  0.88803769  0.26113490  0.85918242  1
  H+  H125  1  0.93103937  0.58969464  0.58452904  1
  H+  H126  1  0.08528725  0.15323035  0.33896074  1
  H+  H127  1  0.37133307  0.84781505  0.84382891  1
  H+  H128  1  0.63062062  0.24541515  0.35265501  1
  H+  H129  1  -0.03780179  0.81902772  0.32340617  1
  H+  H130  1  0.14609348  0.36424003  0.15773551  1
  H+  H131  1  0.63349088  0.77615563  0.64398975  1
  H+  H132  1  0.84095798  0.86500496  0.15799057  1
  H+  H133  1  0.66639955  0.83991934  0.55374479  1
  H+  H134  1  0.45427195  0.07955600  0.66998584  1
  H+  H135  1  0.61910141  0.11140158  0.31745527  1
  H+  H136  1  0.73243228  0.87527159  0.98371302  1
  H+  H137  1  0.84209488  0.14768472  0.34578990  1
  H+  H138  1  0.62680073  0.39169954  0.50618316  1
  H+  H139  1  0.23301652  0.11583740  0.50898615  1
  H+  H140  1  0.62565516  0.52351379  0.65057988  1
  H+  H141  1  0.88643678  0.02876940  1.00403320  1
  H+  H142  1  0.39341952  0.40986819  0.01863221  1
  H+  H143  1  0.27101954  0.88733207  0.33791215  1
  H+  H144  1  0.30247026  0.16041327  0.00439547  1
  H+  H145  1  0.47545625  0.87249454  0.32383426  1
  H+  H146  1  0.79383291  0.63170559  0.66691688  1
  H+  H147  1  0.07774420  0.40669406  0.09853929  1
  H+  H148  1  0.36449091  0.48777280  0.48291536  1
  H+  H149  1  0.10903401  0.96973024  0.20154693  1
  H+  H150  1  0.41490422  0.64746436  0.02252553  1
  H+  H151  1  0.90616315  0.91952426  0.81296515  1
  H+  H152  1  0.97593457  0.87295104  0.98103828  1
  H+  H153  1  0.47618068  0.86718249  0.67098522  1
  H+  H154  1  0.36106179  0.88994104  0.49551596  1
  H+  H155  1  0.37589244  0.48948447  0.17217468  1
  H+  H156  1  0.63378013  0.61193854  0.32035712  1
  H+  H157  1  0.15498877  0.37680027  0.33609201  1
  H+  H158  1  0.36854148  0.14577569  0.15224347  1
  H+  H159  1  0.40314201  0.59847971  0.95733829  1
  H+  H160  1  0.88597474  0.10072656  0.86289562  1
  H+  H161  1  0.76762766  -0.01442755  0.20615237  1
  H+  H162  1  0.88857630  0.51343169  0.18278404  1
  H+  H163  1  0.28327597  0.64479630  0.67653258  1
  H+  H164  1  0.66625072  0.08577545  0.57014416  1
  H+  H165  1  0.65197103  0.68764810  0.81058886  1
  H+  H166  1  0.37809585  0.49936873  0.33304759  1
  H+  H167  1  0.37660605  0.21413908  0.69539999  1
  H+  H168  1  0.60588058  0.22251061  0.12074269  1
  H+  H169  1  -0.01784864  0.60495314  0.18019469  1
  H+  H170  1  0.12710959  0.14093510  0.49692683  1
  H+  H171  1  0.35476128  0.95767873  0.83707402  1
  H+  H172  1  0.74700564  0.38159767  0.99748628  1
  H+  H173  1  0.12426680  0.39017758  0.82847700  1
  H+  H174  1  0.64505698  0.46408401  0.71940078  1
  H+  H175  1  0.38831984  0.02414899  0.50546878  1
  H+  H176  1  0.15683972  0.16901494  0.14194152  1
  H+  H177  1  0.24052760  0.35516691  0.65219201  1
  H+  H178  1  0.23790631  0.36579655  0.82907861  1
  H+  H179  1  0.12670678  0.50179720  0.83273209  1
  H+  H180  1  0.28238862  0.13478196  0.68616272  1
  H+  H181  1  0.14222540  0.61183419  0.66597389  1
  H+  H182  1  0.77301598  0.38693594  0.16603555  1
  H+  H183  1  0.61598079  0.98439556  0.49327542  1
  H+  H184  1  0.29009369  0.16323794  0.16494299  1
  H+  H185  1  0.36400301  0.13705056  0.49626480  1
  H+  H186  1  0.38549405  0.78002694  0.51041746  1
  H+  H187  1  0.98529816  0.11212638  0.48838151  1
  H+  H188  1  0.26226133  0.64575354  0.50218409  1
  H+  H189  1  0.21973691  0.60869096  0.17694036  1
  H+  H190  1  0.65472953  0.37711122  -0.01236465  1
  H+  H191  1  0.71386119  0.85691817  0.32780038  1
  H+  H192  1  0.48565925  0.37617437  0.49952297  1
  H+  H193  1  0.21512891  0.84851117  0.83151667  1
  H+  H194  1  0.16850512  0.29533857  0.33351909  1
  H+  H195  1  0.37546498  0.33413873  0.83657764  1
  H+  H196  1  0.12943943  0.48482426  0.34660063  1
  H+  H197  1  0.59387701  -0.02746419  0.67396073  1
  H+  H198  1  0.89642599  0.49471602  0.67737642  1
  H+  H199  1  0.62950134  0.35303003  0.19072327  1
  H+  H200  1  0.77081352  0.88546914  0.64546819  1
  H+  H201  1  0.36269479  0.22387240  0.48666210  1
  H+  H202  1  0.72781438  0.37223359  0.51038966  1
  H+  H203  1  0.75952572  0.37334932  0.67841011  1
  H+  H204  1  0.81822791  0.67670692  0.49315990  1
  H+  H205  1  0.75742625  0.61562334  0.33238408  1
  H+  H206  1  0.06277294  0.58472975  0.97316756  1
  H+  H207  1  0.55760655  0.11983696  0.75554146  1
  H+  H208  1  0.37710398  0.47171778  0.66456193  1
  H+  H209  1  0.38414021  0.76748120  0.67234800  1
  H+  H210  1  0.38350222  0.86818032  0.32584700  1
  H+  H211  1  0.62310198  0.75430908  0.99208158  1
  H+  H212  1  0.73642301  0.12046640  -0.02491132  1
  H+  H213  1  0.37291029  0.40252126  0.47376991  1
  H+  H214  1  0.35515519  0.96035923  -0.02278238  1
  H+  H215  1  0.67408050  0.85343127  0.92279982  1
  H+  H216  1  0.85102581  1.00128743  0.78764439  1
  H+  H217  1  0.11707083  -0.01716399  0.50367474  1
  H+  H218  1  0.24354205  0.59561497  0.98925144  1
  H+  H219  1  0.62554809  0.64316061  0.65052951  1
  H+  H220  1  0.59087625  0.41403839  0.85753188  1
  H+  H221  1  0.14012327  0.11128643  0.84109557  1
  H+  H222  1  0.09451841  0.46635916  0.00520753  1
  H+  H223  1  0.71401455  0.87049132  0.16764437  1
  H+  H224  1  0.52079232  0.62179357  0.14240599  1
  H+  H225  1  0.25697981  0.85598171  0.67485380  1
  H+  H226  1  0.09735990  0.42046100  0.76783637  1
  H+  H227  1  0.64533339  0.87247112  0.49303803  1
  H+  H228  1  0.16778285  0.33742330  0.92738265  1
  H+  H229  1  0.64027230  0.33008080  0.85330750  1
  H+  H230  1  0.46685192  0.11083531  0.14703867  1
  H+  H231  1  0.10721177  0.35515945  0.51629789  1
  H+  H232  1  0.56808065  0.15185724  0.06924321  1
  H+  H233  1  0.20384344  0.12419644  0.25186362  1
  H+  H234  1  0.59642119  0.21077527  -0.01451874  1
  H+  H235  1  0.93359425  0.10209528  0.32474759  1
  H+  H236  1  0.27928522  0.64337655  0.31530423  1
  H+  H237  1  0.14689965  0.28038421  0.83382446  1
  H+  H238  1  0.92391337  0.59221273  0.91788920  1
  H+  H239  1  0.06889495  -0.03161460  0.18935492  1
  H+  H240  1  0.84593034  0.70434548  0.33948855  1
  H+  H241  1  0.88737918  0.61489613  0.85628706  1
  H+  H242  1  0.23406143  0.84906600  0.15913081  1
  H+  H243  1  0.40334165  0.19052201  0.30391595  1
  H+  H244  1  0.87774000  0.60584987  0.32447429  1
  H+  H245  1  0.13097224  0.62014213  0.51703773  1
  H+  H246  1  0.62868985  0.89078708  0.83397923  1
  H+  H247  1  0.89280410  0.76839678  0.65687188  1
  H+  H248  1  0.09235015  0.71910603  0.80974203  1
  H+  H249  1  0.51245756  0.37359756  0.18268178  1
  H+  H250  1  0.19207215  0.13512338  0.34314853  1
  H+  H251  1  0.65045197  0.38012842  0.34607909  1
  H+  H252  1  0.85916274  0.23233761  0.01023717  1
  H+  H253  1  0.36790741  0.73747070  0.31218022  1
  H+  H254  1  0.63599865  0.50910991  0.17200811  1
  H+  H255  1  0.66290038  0.55803958  0.58767080  1
  H+  H256  1  0.99163270  0.84363321  0.83980888  1
  H+  H257  1  0.62535023  0.11452640  0.15304776  1
  H+  H258  1  0.78507832  0.39869391  0.35219303  1
  H+  H259  1  0.83373604  0.15922415  0.72039842  1
  H+  H260  1  0.38458431  0.38527710  0.66523594  1
  H+  H261  1  0.65928853  0.84386786  0.26726877  1
  H+  H262  1  0.51155882  0.07245267  0.84841342  1
  H+  H263  1  0.86488234  0.87689863  0.81176530  1
  H+  H264  1  0.86141899  0.89028532  -0.00257897  1
  H+  H265  1  0.77798194  0.14118296  0.50144513  1
  H+  H266  1  0.77401010  0.63086244  0.15543330  1
  H+  H267  1  0.64807847  0.12013575  0.88759557  1
  H+  H268  1  0.41960161  0.34274444  0.93840572  1
  H+  H269  1  0.79811143  0.65200644  0.00224559  1
  H+  H270  1  0.17173018  0.28315905  0.14121227  1
  H+  H271  1  0.89199621  0.01440810  0.63913351  1
  H+  H272  1  0.63669897  0.89199086  0.16786214  1
  H+  H273  1  0.10676467  0.75398941  0.97979621  1
  H+  H274  1  0.40470579  0.29175418  0.99998758  1
  H+  H275  1  0.49378147  0.62339945  0.32599771  1
  H+  H276  1  0.13683040  0.86466966  0.51312109  1
  H+  H277  1  1.03269766  0.13368787  0.66995059  1
  H+  H278  1  0.98517758  0.86602067  0.51146540  1
  H+  H279  1  0.24912164  0.38207416  0.16555624  1
  H+  H280  1  0.53405643  0.39847372  -0.00846404  1
  H+  H281  1  0.14695569  0.87546925  0.31519903  1
  H+  H282  1  0.35562737  0.19514374  0.84795201  1
  H+  H283  1  0.11163125  0.22309537  0.49635593  1
  H+  H284  1  0.26466949  0.87178635  -0.01101876  1
  H+  H285  1  0.00334939  0.14055876  0.17467544  1
  H+  H286  1  0.35839797  -0.02193021  0.14145527  1
  H+  H287  1  0.89088930  0.53214460  0.52490292  1
  H+  H288  1  0.93034771  0.08299228  0.54861405  1
  H+  H289  1  0.16110651  0.32558027  0.60476563  1
  H+  H290  1  0.21782806  0.09492345  0.85246191  1
  H+  H291  1  0.86444138  0.39417668  0.50258320  1
  H+  H292  1  0.40822114  0.35121097  0.54494956  1
  H+  H293  1  0.15768050  0.81377169  0.60192312  1
  H+  H294  1  0.02687983  0.40080302  0.49572906  1
  H+  H295  1  0.40620102  0.57750178  0.56143506  1
  H+  H296  1  0.22567533  0.21325086  0.22698326  1
  H+  H297  1  0.68327642  0.35258751  0.28669483  1
  H+  H298  1  0.64791776  0.74146632  0.47790751  1
  H+  H299  1  0.59843530  0.01426012  0.31194594  1
  H+  H300  1  0.32709853  0.91467334  0.43596001  1
  H+  H301  1  0.82089759  0.92681781  0.70467843  1
  H+  H302  1  0.91297680  0.33459119  0.93936159  1
  H+  H303  1  0.32787586  0.90669207  0.77244219  1
  H+  H304  1  0.95074472  0.35133960  0.29168212  1
  H+  H305  1  0.92198478  0.82792702  0.57571006  1
  H+  H306  1  0.92736320  0.81439706  0.89836100  1
  H+  H307  1  0.33166974  0.91562775  0.08339542  1
  H+  H308  1  0.35233960  0.19243999  0.06633878  1
  H+  H309  1  0.13114950  0.19189076  0.07460967  1
  H+  H310  1  0.85839035  0.05817977  0.27647519  1
  H+  H311  1  0.83082946  0.18555391  0.40751951  1
  H+  H312  1  0.22471033  0.86286943  0.50994886  1
  H+  H313  1  0.93372795  0.34767833  0.56473259  1
  H+  H314  1  0.13663319  0.60536288  0.33236857  1
  H+  H315  1  0.83984374  0.43168620  0.44605172  1
  H+  H316  1  0.12849214  0.56886408  0.88982381  1
  H+  H317  1  0.41292431  0.08959002  0.21092213  1
  H+  H318  1  0.15719026  0.57614465  0.26765868  1
  H+  H319  1  0.35709669  0.43097996  0.11326446  1
  H+  H320  1  0.02980205  0.64102539  0.72528490  1
  H+  H321  1  0.17757964  0.09124509  0.57070378  1
  H+  H322  1  0.09175435  0.92679874  0.44324058  1
  H+  H323  1  0.08843628  0.17082285  0.76821622  1
  H+  H324  1  0.45616408  0.31240425  0.62303927  1
  H+  H325  1  0.33571757  0.66967906  0.73866583  1
  H+  H326  1  0.88676435  0.63939011  0.67604165  1
  H+  H327  1  0.41396602  0.07626326  0.56704685  1
  H+  H328  1  0.91995004  0.57609663  0.25207752  1
  H+  H329  1  0.58055522  0.37705164  0.79040706  1
  H+  H330  1  0.42104944  0.85381246  0.22607651  1
  H+  H331  1  0.84856416  0.87571956  0.34614657  1
  H+  H332  1  0.33497612  0.13744645  0.78932944  1
  H+  H333  1  0.55901765  0.37212635  0.12208718  1
  H+  H334  1  0.41904035  0.83998504  0.56840142  1
  H+  H335  1  0.83791765  0.67356625  0.09827446  1
  H+  H336  1  0.51866924  0.89429354  0.14557463  1
  H+  H337  1  0.50031353  0.88069300  0.82748429  1
  H+  H338  1  0.68557361  0.67992940  0.46461533  1
  H+  H339  1  0.17607381  0.59283458  0.60475596  1
  H+  H340  1  0.40746924  0.82151452  0.90279781  1
  H+  H341  1  0.01580072  0.49883552  0.93715519  1
  H+  H342  1  0.48464624  0.05660386  0.29095156  1
  H+  H343  1  0.13790458  0.53353455  0.51585659  1
  H+  H344  1  0.14639224  0.48905151  0.67766154  1
  H+  H345  1  0.11014228  0.74952216  0.65763604  1
  H+  H346  1  0.83091882  0.08027812  0.18122158  1
  H+  H347  1  0.48106518  0.87635704  0.98500187  1
  H+  H348  1  0.89628347  0.80892724  0.27171640  1
  H+  H349  1  0.34438765  0.43844003  0.40073298  1
  H+  H350  1  0.14532669  0.11471012  0.99988756  1
  H+  H351  1  0.82161794  0.16077367  0.09792157  1
  H+  H352  1  0.92621814  0.09516850  0.94984042  1
  H+  H353  1  0.11986084  0.22417581  0.67445155  1
  H+  H354  1  0.36752652  0.69932271  0.08826843  1
  H+  H355  1  0.59577420  0.42829931  0.40928918  1
  H+  H356  1  0.39175019  0.26916623  0.28571882  1
  H+  H357  1  0.59425096  0.17603407  0.44252354  1
  H+  H358  1  0.05857456  0.88717099  0.13750377  1
  H+  H359  1  0.84407394  0.66097827  0.76578462  1
  H+  H360  1  0.17544602  0.83847590  0.25929153  1
  H+  H361  1  0.56455085  0.91437290  0.73481067  1
  H+  H362  1  0.36379363  0.97264396  0.34391106  1
  H+  H363  1  0.84022189  0.43159488  0.06964846  1
  H+  H364  1  0.82528809  0.90906240  0.05866179  1
  H+  H365  1  0.69350009  0.33841930  0.91875993  1
  H+  H366  1  0.34113646  0.40092808  0.75041238  1
  H+  H367  1  0.79603479  0.47224150  0.78488159  1
  H+  H368  1  0.02778938  0.14037282  0.00780255  1
  H+  H369  1  0.36223223  0.73691264  0.17957130  1
  H+  H370  1  0.52930983  0.56145589  0.09608739  1
  H+  H371  1  0.60808475  0.68278752  0.71049210  1
  H+  H372  1  0.60832807  0.45158509  0.03999065  1
  H+  H373  1  0.87625917  0.30761642  0.22231422  1
  H+  H374  1  0.79179976  0.64371393  0.42514344  1
  H+  H375  1  0.87516505  0.97211849  0.49495083  1
  H+  H376  1  0.63855992  0.08046002  0.21762167  1
  H+  H377  1  0.70118140  0.62176416  0.92541553  1
  H+  H378  1  0.58656078  0.93500055  0.04931804  1
  H+  H379  1  0.09913727  0.43231262  0.44313148  1
  H+  H380  1  0.44244138  0.59897407  0.23121568  1
  H+  H381  1  0.28094922  0.14488497  0.32470559  1
  H+  H382  1  0.07909830  0.89517197  0.03803787  1
  H+  H383  1  0.65926530  0.57438509  0.26213620  1
  O2-  O384  1  0.16891038  0.21451956  0.11234121  1
  O2-  O385  1  0.09717050  0.16854781  0.47526064  1
  O2-  O386  1  0.09499394  0.17902535  0.81331824  1
  O2-  O387  1  0.08328285  0.40467196  0.14413148  1
  O2-  O388  1  0.09073508  0.42986395  0.48843504  1
  O2-  O389  1  0.09107574  0.41835102  0.81385919  1
  O2-  O390  1  0.06693347  0.64751016  0.13981086  1
  O2-  O391  1  0.07832195  0.66156236  0.49073928  1
  O2-  O392  1  0.05646394  0.65847706  0.79614916  1
  O2-  O393  1  0.05971640  0.84464569  0.11024691  1
  O2-  O394  1  0.08508396  0.92188636  0.48809191  1
  O2-  O395  1  0.08272772  0.91620278  0.80800497  1
  O2-  O396  1  0.34591316  0.18626311  0.14355165  1
  O2-  O397  1  0.32820453  0.16119311  0.48182304  1
  O2-  O398  1  0.33414025  0.13507096  0.83442075  1
  O2-  O399  1  0.34642978  0.42790034  0.15905688  1
  O2-  O400  1  0.33995966  0.43064167  0.46086626  1
  O2-  O401  1  0.34267225  0.40147336  0.79663863  1
  O2-  O402  1  0.33385913  0.67274692  0.18533171  1
  O2-  O403  1  0.32392685  0.67678159  0.48667098  1
  O2-  O404  1  0.31253992  0.66057334  0.81649679  1
  O2-  O405  1  0.33249169  0.91624715  0.12871482  1
  O2-  O406  1  0.32846306  0.91801416  0.48156449  1
  O2-  O407  1  0.32456942  0.89999800  0.81715358  1
  O2-  O408  1  0.57377223  0.16042258  0.11591133  1
  O2-  O409  1  0.59174345  0.17418699  0.48810830  1
  O2-  O410  1  0.56053083  0.07540109  0.82302702  1
  O2-  O411  1  0.57263842  0.39502805  0.16323560  1
  O2-  O412  1  0.59205670  0.42398017  0.49080610  1
  O2-  O413  1  0.56811008  0.36044708  0.83474506  1
  O2-  O414  1  0.56353340  0.61858190  0.11398099  1
  O2-  O415  1  0.63368268  0.68480149  0.46083599  1
  O2-  O416  1  0.62043290  0.71446235  0.78992783  1
  O2-  O417  1  0.57800593  0.92506977  0.12811966  1
  O2-  O418  1  0.58681616  0.92541392  0.47550123  1
  O2-  O419  1  0.55844139  0.92224924  0.80980759  1
  O2-  O420  1  0.82001207  0.16025346  0.14378328  1
  O2-  O421  1  0.83750414  0.17449290  0.48467369  1
  O2-  O422  1  0.82052517  0.13800791  0.85750021  1
  O2-  O423  1  0.83236950  0.41856927  0.14951653  1
  O2-  O424  1  0.83358384  0.42528494  0.49087478  1
  O2-  O425  1  0.81931466  0.44583578  0.81187399  1
  O2-  O426  1  0.83461873  0.67118817  0.14387372  1
  O2-  O427  1  0.76892343  0.64417094  0.46667568  1
  O2-  O428  1  0.83656224  0.65776228  0.81088667  1
  O2-  O429  1  0.81810506  0.89774264  0.13586617  1
  O2-  O430  1  0.84672865  0.90864759  0.49790594  1
  O2-  O431  1  0.79656271  0.97576271  0.76567597  1
  O2-  O432  1  0.20510763  0.15472743  0.21295722  1
  O2-  O433  1  0.17162357  0.08748795  0.52528988  1
  O2-  O434  1  0.15569974  0.07081842  0.85936642  1
  O2-  O435  1  0.18371101  0.33890754  0.16811460  1
  O2-  O436  1  0.10427339  0.30337017  0.53749205  1
  O2-  O437  1  0.17996076  0.34281538  0.84680929  1
  O2-  O438  1  0.15638668  0.57477105  0.18355499  1
  O2-  O439  1  0.16723324  0.59396209  0.53146024  1
  O2-  O440  1  0.15031737  0.56778293  0.84727101  1
  O2-  O441  1  0.17444324  0.81298423  0.17604332  1
  O2-  O442  1  0.16459217  0.83128880  0.52604384  1
  O2-  O443  1  0.15302809  0.82050100  0.84141958  1
  O2-  O444  1  0.40757774  0.08181415  0.16343753  1
  O2-  O445  1  0.42088486  0.08367558  0.52251501  1
  O2-  O446  1  0.41862782  0.05356974  0.87596767  1
  O2-  O447  1  0.41990710  0.33476938  0.20393109  1
  O2-  O448  1  0.42084665  0.34535183  0.50289002  1
  O2-  O449  1  0.39879675  0.30569715  0.86264856  1
  O2-  O450  1  0.43610433  0.59821162  0.18550343  1
  O2-  O451  1  0.40242006  0.57896096  0.51687703  1
  O2-  O452  1  0.36349433  0.56190797  0.88195231  1
  O2-  O453  1  0.41841496  0.84510758  0.18099544  1
  O2-  O454  1  0.41959332  0.84144222  0.52381518  1
  O2-  O455  1  0.40309765  0.81750575  0.85685990  1
  O2-  O456  1  0.65440522  0.08621407  0.17329493  1
  O2-  O457  1  0.67119270  0.08840530  0.52537895  1
  O2-  O458  1  0.63804284  0.14626492  0.85044998  1
  O2-  O459  1  0.66983777  0.33212729  0.20337174  1
  O2-  O460  1  0.66578622  0.34416596  0.52231168  1
  O2-  O461  1  0.69173160  0.32819291  0.86908763  1
  O2-  O462  1  0.66692074  0.57133678  0.18185881  1
  O2-  O463  1  0.63216235  0.51005500  0.51811777  1
  O2-  O464  1  0.69110581  0.63364568  0.84279700  1
  O2-  O465  1  0.67796786  0.88421717  0.19412446  1
  O2-  O466  1  0.67561420  0.84293676  0.50911089  1
  O2-  O467  1  0.67243040  0.87284514  0.84204798  1
  O2-  O468  1  0.82919763  0.03234847  0.20531525  1
  O2-  O469  1  0.92502400  0.08433318  0.50365827  1
  O2-  O470  1  0.93432868  0.08765950  0.86934124  1
  O2-  O471  1  0.90111289  0.31852294  0.18164957  1
  O2-  O472  1  0.92425403  0.34444129  0.51927119  1
  O2-  O473  1  0.91659679  0.32365824  0.86619285  1
  O2-  O474  1  0.92311884  0.57286401  0.20077235  1
  O2-  O475  1  0.92585146  0.59217019  0.53920336  1
  O2-  O476  1  0.91583809  0.58345847  0.87220603  1
  O2-  O477  1  0.88547578  0.81256143  0.19689304  1
  O2-  O478  1  0.92339782  0.83165518  0.52612663  1
  O2-  O479  1  0.94167210  0.79422667  0.86062916  1
  O2-  O480  1  0.21674333  0.10231225  0.32382133  1
  O2-  O481  1  0.18920181  0.09577681  0.64836448  1
  O2-  O482  1  0.17760801  0.08376747  1.00832380  1
  O2-  O483  1  0.18939313  0.35357727  0.31679339  1
  O2-  O484  1  0.17721788  0.32897064  0.64852883  1
  O2-  O485  1  0.15984686  0.32858851  0.97176506  1
  O2-  O486  1  0.17034825  0.58071878  0.31174813  1
  O2-  O487  1  0.18095531  0.59230398  0.65082294  1
  O2-  O488  1  0.07323157  0.54167594  0.95062540  1
  O2-  O489  1  0.17727072  0.84483733  0.30392290  1
  O2-  O490  1  0.15748715  0.80782295  0.64728892  1
  O2-  O491  1  0.14920543  0.81134468  0.96424000  1
  O2-  O492  1  0.44833367  0.07070263  0.31688955  1
  O2-  O493  1  0.39663216  0.05422806  0.65143131  1
  O2-  O494  1  0.41978773  0.05075421  0.94348361  1
  O2-  O495  1  0.37835253  0.22673232  0.31794449  1
  O2-  O496  1  0.44643136  0.32895921  0.66320313  1
  O2-  O497  1  0.43482160  0.35312744  0.98224450  1
  O2-  O498  1  0.43423572  0.59333432  0.30633519  1
  O2-  O499  1  0.42036526  0.57738049  0.64704596  1
  O2-  O500  1  0.43075379  0.60814658  0.99756452  1
  O2-  O501  1  0.41671331  0.84417959  0.30506455  1
  O2-  O502  1  0.41039833  0.83032956  0.65672022  1
  O2-  O503  1  0.41916920  0.83311359  0.97727599  1
  O2-  O504  1  0.60036905  0.06285317  0.28861390  1
  O2-  O505  1  0.64808242  0.07525659  0.65421125  1
  O2-  O506  1  0.69519316  0.08539808  0.94248742  1
  O2-  O507  1  0.68427376  0.35093007  0.33143614  1
  O2-  O508  1  0.69456239  0.34047452  0.67679525  1
  O2-  O509  1  0.68761343  0.34685655  0.97888706  1
  O2-  O510  1  0.66023458  0.57650602  0.30724208  1
  O2-  O511  1  0.66885669  0.57624854  0.63122817  1
  O2-  O512  1  0.70175343  0.60780027  0.96870402  1
  O2-  O513  1  0.65345589  0.83164706  0.31163269  1
  O2-  O514  1  0.66132919  0.83839153  0.63305079  1
  O2-  O515  1  0.67128517  0.84594318  0.96779282  1
  O2-  O516  1  0.87140863  0.06881541  0.32146766  1
  O2-  O517  1  0.92977088  0.07710791  0.62787048  1
  O2-  O518  1  0.91879282  0.09181681  0.99457119  1
  O2-  O519  1  0.93549819  0.34870490  0.33431761  1
  O2-  O520  1  0.95508078  0.35744515  0.63792340  1
  O2-  O521  1  0.91267502  0.33671086  0.98539603  1
  O2-  O522  1  0.91442786  0.58071278  0.31059732  1
  O2-  O523  1  0.93737132  0.58913602  0.66178204  1
  O2-  O524  1  0.93554807  0.59917424  0.99317549  1
  O2-  O525  1  0.90445520  0.80963102  0.31706213  1
  O2-  O526  1  0.91762127  0.82678165  0.63824554  1
  O2-  O527  1  0.91267061  0.84069984  0.97312976  1
  O2-  O528  1  0.09171688  0.17052647  0.00937954  1
  O2-  O529  1  0.13849059  0.19045287  0.36043976  1
  O2-  O530  1  0.08912958  0.16407933  0.69053212  1
  O2-  O531  1  0.07429768  0.40920232  0.02312353  1
  O2-  O532  1  0.10404517  0.42746686  0.36756918  1
  O2-  O533  1  0.11814755  0.43028836  0.69558032  1
  O2-  O534  1  0.02946290  0.64289433  0.00903620  1
  O2-  O535  1  0.08004165  0.63554969  0.36807086  1
  O2-  O536  1  0.03020234  0.63664122  0.67919247  1
  O2-  O537  1  0.08245174  0.91151656  -0.00521351  1
  O2-  O538  1  0.10844956  0.94326250  0.36101531  1
  O2-  O539  1  0.14777170  0.94863795  0.69428219  1
  O2-  O540  1  0.36003629  0.19775943  0.02137604  1
  O2-  O541  1  0.41742365  0.11320622  0.27489208  1
  O2-  O542  1  0.33990543  0.15308160  0.70580559  1
  O2-  O543  1  0.37139730  0.44143086  0.04300453  1
  O2-  O544  1  0.34473397  0.43866029  0.35014408  1
  O2-  O545  1  0.34796416  0.40958525  0.67712905  1
  O2-  O546  1  0.41123263  0.71695361  0.05678022  1
  O2-  O547  1  0.34256993  0.67369395  0.30716806  1
  O2-  O548  1  0.34337585  0.67467062  0.69350368  1
  O2-  O549  1  0.32493888  0.90578682  0.00288686  1
  O2-  O550  1  0.32895490  0.91244849  0.35851903  1
  O2-  O551  1  0.31887076  0.89096932  0.68907167  1
  O2-  O552  1  0.56788148  0.15142500  -0.00047710  1
  O2-  O553  1  0.60238126  0.18391106  0.36574812  1
  O2-  O554  1  0.55635220  0.14420497  0.71454656  1
  O2-  O555  1  0.59968351  0.43046012  -0.00163372  1
  O2-  O556  1  0.59643730  0.42088677  0.36478014  1
  O2-  O557  1  0.60568592  0.40219845  0.71824662  1
  O2-  O558  1  0.58955652  0.69032007  0.00539046  1
  O2-  O559  1  0.58988457  0.66757406  0.34701864  1
  O2-  O560  1  0.59473494  0.67226241  0.66652762  1
  O2-  O561  1  0.58810923  0.93440113  0.00378883  1
  O2-  O562  1  0.57792711  0.92206372  0.35059024  1
  O2-  O563  1  0.56421050  0.91103728  0.68887848  1
  O2-  O564  1  0.82692788  0.17059677  0.02285028  1
  O2-  O565  1  0.83197533  0.19293771  0.36247673  1
  O2-  O566  1  0.77879576  0.11165493  0.73392918  1
  O2-  O567  1  0.84470611  0.43480805  0.02456772  1
  O2-  O568  1  0.84752454  0.43281005  0.36464121  1
  O2-  O569  1  0.86480172  0.42924043  0.68851800  1
  O2-  O570  1  0.85524986  0.68483959  0.02334038  1
  O2-  O571  1  0.81701076  0.64249732  0.35109130  1
  O2-  O572  1  0.84979009  0.66647489  0.68674700  1
  O2-  O573  1  0.82919451  0.91875486  0.01370265  1
  O2-  O574  1  0.81047866  0.89776032  0.35733525  1
  O2-  O575  1  0.83039738  0.91412736  0.66244843  1
