# generated using pymatgen
data_H2O
_symmetry_space_group_name_H-M   'P 1'
_cell_length_a   17.96166394
_cell_length_b   17.97276619
_cell_length_c   21.98303857
_cell_angle_alpha   89.99583997
_cell_angle_beta   89.98714510
_cell_angle_gamma   120.01396898
_symmetry_Int_Tables_number   1
_chemical_formula_structural   H2O
_chemical_formula_sum   'H384 O192'
_cell_volume   6144.95455111
_cell_formula_units_Z   192
loop_
 _symmetry_equiv_pos_site_id
 _symmetry_equiv_pos_as_xyz
  1  'x, y, z'
loop_
 _atom_type_symbol
 _atom_type_oxidation_number
  H+  1.0
  O2-  -2.0
loop_
 _atom_site_type_symbol
 _atom_site_label
 _atom_site_symmetry_multiplicity
 _atom_site_fract_x
 _atom_site_fract_y
 _atom_site_fract_z
 _atom_site_occupancy
  H+  H0  1  0.11967961  0.23022199  0.82957129  1
  H+  H1  1  0.88446494  0.70788491  0.52764139  1
  H+  H2  1  0.64859000  0.78387189  0.99760276  1
  H+  H3  1  0.49547899  0.90001465  0.35670066  1
  H+  H4  1  0.71532255  0.60336384  0.65167210  1
  H+  H5  1  0.36397395  0.72569630  -0.03144595  1
  H+  H6  1  0.35851409  0.72348867  0.32421192  1
  H+  H7  1  0.37282084  0.51956653  0.32135878  1
  H+  H8  1  0.11360492  0.88478093  0.81390495  1
  H+  H9  1  0.90066223  0.86855046  0.99120501  1
  H+  H10  1  0.85147545  0.46321695  0.66759082  1
  H+  H11  1  0.12843651  0.89361508  0.18465540  1
  H+  H12  1  0.11106059  0.46974645  -0.00487742  1
  H+  H13  1  0.62743041  0.13813530  -0.00178554  1
  H+  H14  1  0.37122042  0.64343234  -0.01715247  1
  H+  H15  1  0.41846023  0.56674456  1.05116794  1
  H+  H16  1  0.23205512  0.86419207  0.17747834  1
  H+  H17  1  1.02518124  0.87877751  0.19143076  1
  H+  H18  1  0.46092912  0.10166455  0.18686150  1
  H+  H19  1  0.59419556  0.13683844  0.33520613  1
  H+  H20  1  0.75801478  0.13862886  0.49936518  1
  H+  H21  1  0.09074698  0.06897006  0.48797040  1
  H+  H22  1  0.48874944  0.62578347  0.48012283  1
  H+  H23  1  0.81911402  1.01604630  0.16801643  1
  H+  H24  1  0.77019995  0.15645048  0.16026933  1
  H+  H25  1  0.11009296  0.62894594  0.33917219  1
  H+  H26  1  0.10778583  0.71677088  0.34187023  1
  H+  H27  1  0.39106760  0.14244137  0.69262266  1
  H+  H28  1  0.92410639  0.56811444  0.60049595  1
  H+  H29  1  0.02136475  0.37279291  0.81577069  1
  H+  H30  1  0.48780590  0.11834424  -0.00075339  1
  H+  H31  1  0.84619034  0.13810414  0.49033521  1
  H+  H32  1  0.90979585  0.76818772  0.18489878  1
  H+  H33  1  0.03323135  0.64087213  0.66688857  1
  H+  H34  1  0.88034819  0.34667850  0.83208704  1
  H+  H35  1  0.86013800  0.16807492  0.34566440  1
  H+  H36  1  0.65732243  0.54291341  -0.00873352  1
  H+  H37  1  0.28139949  0.89047945  1.00132743  1
  H+  H38  1  0.60775740  0.48403413  0.81647079  1
  H+  H39  1  0.27034428  0.87195072  0.81610124  1
  H+  H40  1  0.15838510  0.14827669  0.34132755  1
  H+  H41  1  0.83841078  0.56821228  0.36954722  1
  H+  H42  1  0.63142127  0.26746673  0.32733497  1
  H+  H43  1  0.65426655  0.40043877  0.84010191  1
  H+  H44  1  0.71973578  0.10437004  0.83293754  1
  H+  H45  1  0.17163955  0.58599788  0.59510835  1
  H+  H46  1  0.36490124  0.86574309  0.81705822  1
  H+  H47  1  0.88364678  0.27960261  0.50081544  1
  H+  H48  1  0.27573647  0.63865747  0.66136423  1
  H+  H49  1  0.16614298  1.03976106  0.66122667  1
  H+  H50  1  0.62486434  1.03383203  0.33193375  1
  H+  H51  1  0.04580182  0.89620247  0.65744191  1
  H+  H52  1  0.61228418  0.09870179  0.66281497  1
  H+  H53  1  0.22635033  0.60336433  0.82514665  1
  H+  H54  1  0.22116728  0.85429948  0.34009170  1
  H+  H55  1  0.39146983  0.51894548  0.17002955  1
  H+  H56  1  0.65611710  0.09204250  0.23121528  1
  H+  H57  1  0.88375852  0.52302579  0.18220231  1
  H+  H58  1  0.63363669  0.36487426  0.18330513  1
  H+  H59  1  0.34892932  -0.02806093  0.34992908  1
  H+  H60  1  0.85550615  0.22451757  0.67150757  1
  H+  H61  1  0.14903056  0.77164496  0.50648216  1
  H+  H62  1  0.88384830  0.85157120  0.33247873  1
  H+  H63  1  0.02425778  0.88431237  0.81756931  1
  H+  H64  1  0.71549756  0.12152873  0.32795075  1
  H+  H65  1  0.13811359  0.77888094  0.18225352  1
  H+  H66  1  0.37063243  0.61613697  0.31657264  1
  H+  H67  1  0.36773917  0.24268678  0.83222679  1
  H+  H68  1  0.44713233  0.55749888  0.98529496  1
  H+  H69  1  0.91655826  0.92865333  0.53248305  1
  H+  H70  1  0.63828376  0.86458924  0.65451494  1
  H+  H71  1  0.44379624  0.11133619  0.33378670  1
  H+  H72  1  0.38841605  0.37729335  0.83934254  1
  H+  H73  1  0.22581743  0.36187455  0.65731435  1
  H+  H74  1  0.61168285  0.63705411  0.66979081  1
  H+  H75  1  0.65455120  0.27767538  -0.01430131  1
  H+  H76  1  0.47457470  0.36078971  0.49261039  1
  H+  H77  1  0.14900389  0.22246495  0.39917723  1
  H+  H78  1  0.52339472  0.39257483  0.82231098  1
  H+  H79  1  0.62110835  0.64761683  0.48960566  1
  H+  H80  1  0.38179714  0.25660944  0.66325703  1
  H+  H81  1  0.87245227  0.23689561  0.82847852  1
  H+  H82  1  0.23073289  0.36794064  0.84380092  1
  H+  H83  1  0.63051312  0.76942230  0.83994840  1
  H+  H84  1  0.76505914  0.88779773  0.01360555  1
  H+  H85  1  1.03680042  0.63182560  0.49452821  1
  H+  H86  1  0.14124885  0.37775507  0.50752213  1
  H+  H87  1  0.37287304  0.89616150  0.51308415  1
  H+  H88  1  0.10243308  0.13361355  0.17029139  1
  H+  H89  1  0.22908102  0.60066869  0.96446991  1
  H+  H90  1  0.36406602  0.64140395  0.18541325  1
  H+  H91  1  0.77397265  0.88856419  0.67307681  1
  H+  H92  1  0.71892087  0.88244208  0.49707532  1
  H+  H93  1  0.35332515  0.13156257  0.16918651  1
  H+  H94  1  0.47322952  0.85613754  0.82642512  1
  H+  H95  1  0.13240195  0.36343652  0.17000082  1
  H+  H96  1  0.89095247  0.37066118  0.49741592  1
  H+  H97  1  0.78337339  0.47710866  0.11377082  1
  H+  H98  1  0.15360240  0.78133065  0.65998309  1
  H+  H99  1  0.35201665  0.37560077  0.67626377  1
  H+  H100  1  0.15504962  0.87163330  0.65606802  1
  H+  H101  1  0.51200222  0.12770415  0.82553122  1
  H+  H102  1  0.62497920  0.74156086  0.48898712  1
  H+  H103  1  0.60748620  0.72185428  0.33396496  1
  H+  H104  1  0.61043156  0.47198843  0.48217354  1
  H+  H105  1  0.64400888  0.93012416  0.14644467  1
  H+  H106  1  0.50846383  0.63158666  0.82425493  1
  H+  H107  1  0.01494915  0.63631033  0.17906663  1
  H+  H108  1  0.29911162  0.11919876  0.33060404  1
  H+  H109  1  0.37351962  0.89134912  0.66478190  1
  H+  H110  1  0.66442316  0.66676089  0.34390898  1
  H+  H111  1  0.62950139  0.72293759  0.17339325  1
  H+  H112  1  0.22048464  0.11379632  0.18401610  1
  H+  H113  1  0.99427371  0.16628504  0.33716416  1
  H+  H114  1  0.47846445  0.36917634  0.17306582  1
  H+  H115  1  0.73100816  0.11004545  -0.01061192  1
  H+  H116  1  0.18960182  0.09751038  0.49605584  1
  H+  H117  1  0.62274628  0.48323792  0.17682219  1
  H+  H118  1  0.48512702  0.60746509  0.17428983  1
  H+  H119  1  0.51559387  0.38073495  0.66721637  1
  H+  H120  1  0.86397899  0.45851538  0.81928501  1
  H+  H121  1  0.36595138  0.88703397  0.16058296  1
  H+  H122  1  0.74750662  0.61320701  0.34962198  1
  H+  H123  1  0.35881611  0.46836068  0.68167807  1
  H+  H124  1  0.89881475  0.92689935  0.15134768  1
  H+  H125  1  0.12210343  0.64197686  0.67092128  1
  H+  H126  1  0.65555075  0.08619268  0.60363552  1
  H+  H127  1  0.23223690  0.11438799  -0.00393007  1
  H+  H128  1  0.12247697  0.88131552  0.49688821  1
  H+  H129  1  0.73290962  0.87744431  0.18619884  1
  H+  H130  1  0.86000267  0.89058997  0.82930213  1
  H+  H131  1  0.89550588  1.02903478  0.66569639  1
  H+  H132  1  0.86615616  0.13644148  0.01076032  1
  H+  H133  1  0.86049586  0.16031360  0.16586813  1
  H+  H134  1  0.23365725  0.61499561  0.49846656  1
  H+  H135  1  0.57628954  0.40941104  0.01846828  1
  H+  H136  1  0.78981978  0.38951939  -0.00040637  1
  H+  H137  1  0.60771179  0.87902445  0.82032664  1
  H+  H138  1  0.91180046  0.94963607  0.18142279  1
  H+  H139  1  0.14900335  0.86585477  -0.01925915  1
  H+  H140  1  0.10667059  0.22400296  0.16339133  1
  H+  H141  1  0.88584627  0.02593941  0.84042638  1
  H+  H142  1  0.89164304  0.77871927  0.83704868  1
  H+  H143  1  0.55283425  0.66449502  0.02603484  1
  H+  H144  1  0.01953026  0.38344256  0.66194021  1
  H+  H145  1  0.90499758  0.52640022  0.99387753  1
  H+  H146  1  0.01141189  0.39485413  0.34863479  1
  H+  H147  1  0.48400880  0.86987339  0.64420666  1
  H+  H148  1  0.34972032  0.34666669  0.99133635  1
  H+  H149  1  1.03425736  0.63892407  0.82243833  1
  H+  H150  1  0.13071687  0.62862108  -0.02370678  1
  H+  H151  1  0.71424062  0.62174584  0.83508496  1
  H+  H152  1  0.85274557  0.71556170  0.67124859  1
  H+  H153  1  0.94872425  0.99203528  0.38129358  1
  H+  H154  1  0.58015964  0.40926679  0.39102826  1
  H+  H155  1  0.81616467  0.61740745  0.55562806  1
  H+  H156  1  0.91256674  0.07702812  0.34087922  1
  H+  H157  1  0.39484042  0.78088858  0.18817179  1
  H+  H158  1  0.12149913  0.48234926  0.49560338  1
  H+  H159  1  0.90152680  0.90362956  0.50328927  1
  H+  H160  1  0.39707307  0.11666848  1.00481642  1
  H+  H161  1  0.10268114  0.96094209  0.49574770  1
  H+  H162  1  0.62274452  0.61741893  0.83451898  1
  H+  H163  1  0.29692858  0.13717965  0.68776428  1
  H+  H164  1  0.60970398  -0.02403828  0.66702748  1
  H+  H165  1  0.11554073  0.34990547  -0.00939533  1
  H+  H166  1  0.14113848  0.11209528  0.99525499  1
  H+  H167  1  0.60452854  0.83824962  0.32529152  1
  H+  H168  1  0.36650167  0.48062442  0.47949535  1
  H+  H169  1  0.03940471  0.88557376  -0.00323651  1
  H+  H170  1  0.37068098  0.97848069  0.00984902  1
  H+  H171  1  0.55581917  0.91361775  0.45857075  1
  H+  H172  1  0.13229425  0.36239308  0.32447910  1
  H+  H173  1  0.42208099  1.03517555  0.67593131  1
  H+  H174  1  0.88877797  0.35674815  -0.01311180  1
  H+  H175  1  0.50371991  0.37895830  0.32593335  1
  H+  H176  1  0.38602496  0.36442315  0.17071806  1
  H+  H177  1  0.65567202  0.39769804  0.01822363  1
  H+  H178  1  0.33775568  0.22168267  0.47854633  1
  H+  H179  1  0.82521133  0.87844691  0.06413779  1
  H+  H180  1  0.41140499  0.58001096  0.25834656  1
  H+  H181  1  0.57501033  0.41215364  0.72620230  1
  H+  H182  1  0.59730122  0.12169659  0.81400783  1
  H+  H183  1  0.87053990  0.13522049  0.82441937  1
  H+  H184  1  0.29274815  0.16195670  0.42147673  1
  H+  H185  1  0.89981800  0.77856390  -0.00577282  1
  H+  H186  1  0.36861064  0.49168202  0.82752248  1
  H+  H187  1  0.39873856  0.37986612  0.32290615  1
  H+  H188  1  0.60701875  0.96748027  0.81943894  1
  H+  H189  1  0.87456603  0.63607908  0.17159214  1
  H+  H190  1  0.60252184  0.22086068  0.48695110  1
  H+  H191  1  0.87987700  0.35612686  0.65404291  1
  H+  H192  1  0.16159683  0.56464736  0.91088864  1
  H+  H193  1  0.35814241  0.22151567  0.01359389  1
  H+  H194  1  0.88683381  1.02374341  -0.00254420  1
  H+  H195  1  0.12688657  0.97323639  -0.00349346  1
  H+  H196  1  0.38125998  0.03210297  0.49869218  1
  H+  H197  1  0.36876492  0.63379599  0.81394873  1
  H+  H198  1  0.13207521  0.51976097  0.32455272  1
  H+  H199  1  0.61120412  -0.00590309  0.15404671  1
  H+  H200  1  0.28136350  0.88564789  0.50034683  1
  H+  H201  1  0.88672779  0.29537817  0.18122771  1
  H+  H202  1  1.00136526  0.83539167  0.52586837  1
  H+  H203  1  0.50803772  0.13637184  0.48546489  1
  H+  H204  1  0.72319802  0.35605351  0.49645662  1
  H+  H205  1  0.37415251  0.01276397  0.17682485  1
  H+  H206  1  0.38982586  0.86745125  0.98530548  1
  H+  H207  1  0.89354943  0.11568151  0.66563758  1
  H+  H208  1  0.52290206  0.88901939  -0.00177299  1
  H+  H209  1  0.41970393  0.84264605  0.92264284  1
  H+  H210  1  0.37129170  0.11441421  0.48720770  1
  H+  H211  1  0.62144627  0.11125026  0.50714244  1
  H+  H212  1  0.31438210  0.45031926  0.00100762  1
  H+  H213  1  0.65228058  0.61740643  0.18578073  1
  H+  H214  1  0.60924499  0.37728421  0.33108728  1
  H+  H215  1  0.23243882  0.35897818  0.00429264  1
  H+  H216  1  0.10914340  0.38391191  0.66121181  1
  H+  H217  1  0.54374378  0.13768022  0.73462231  1
  H+  H218  1  0.37408337  0.85851403  0.32910769  1
  H+  H219  1  0.61257966  0.38359770  0.48430005  1
  H+  H220  1  0.44345025  0.36678713  0.99951429  1
  H+  H221  1  0.23631789  0.37692739  0.50409785  1
  H+  H222  1  0.76432954  0.13716920  0.67729084  1
  H+  H223  1  0.73193967  0.37981667  0.83636054  1
  H+  H224  1  0.13912540  0.52591522  0.65418776  1
  H+  H225  1  0.96744785  0.12419548  0.18012356  1
  H+  H226  1  0.88539334  0.26543682  -0.01114696  1
  H+  H227  1  0.03182505  0.13892773  0.82862167  1
  H+  H228  1  0.67235578  0.83824298  0.56208888  1
  H+  H229  1  0.85300053  1.00476621  0.45970261  1
  H+  H230  1  0.60322675  0.88449196  0.50701106  1
  H+  H231  1  0.88756752  0.65038850  1.00906061  1
  H+  H232  1  0.36446887  0.65075744  0.46904545  1
  H+  H233  1  0.66355689  0.83308217  0.89772383  1
  H+  H234  1  0.35984444  0.22407832  0.16692440  1
  H+  H235  1  0.26707375  0.38427381  0.16296169  1
  H+  H236  1  0.10388113  0.21487523  0.00963125  1
  H+  H237  1  0.76930305  0.88830466  0.83001899  1
  H+  H238  1  0.13747858  0.27058292  0.65340246  1
  H+  H239  1  0.27094094  0.38933944  0.33002300  1
  H+  H240  1  0.63968506  0.02178515  0.98825655  1
  H+  H241  1  0.88815766  0.60348313  0.65365939  1
  H+  H242  1  0.25036287  0.13909803  0.84104773  1
  H+  H243  1  0.78965718  0.64235508  0.16667643  1
  H+  H244  1  0.14454811  0.61337019  0.50263277  1
  H+  H245  1  0.15461970  0.77852532  0.97439577  1
  H+  H246  1  0.47854492  0.86789673  0.54882939  1
  H+  H247  1  0.64535687  0.57909872  0.92785515  1
  H+  H248  1  0.63967958  0.77636593  0.65699121  1
  H+  H249  1  0.91471188  0.35396074  0.24033582  1
  H+  H250  1  0.08174829  0.84223144  0.35076861  1
  H+  H251  1  0.07794599  0.40250390  0.75471049  1
  H+  H252  1  0.93862412  0.83600374  0.72142352  1
  H+  H253  1  0.13786976  0.35926557  0.83458359  1
  H+  H254  1  0.80628229  0.45910159  0.44233925  1
  H+  H255  1  0.76121925  0.37232322  0.66748541  1
  H+  H256  1  0.62097350  0.34412506  0.65481967  1
  H+  H257  1  0.28675868  0.89536018  0.66870908  1
  H+  H258  1  0.72850060  0.34846070  0.32531923  1
  H+  H259  1  0.27620869  0.64275709  0.18899069  1
  H+  H260  1  0.85990250  0.29306123  0.34148202  1
  H+  H261  1  0.97793337  0.10839998  0.99729081  1
  H+  H262  1  0.16524639  0.12694856  0.66855317  1
  H+  H263  1  0.90194290  0.50810677  0.50028516  1
  H+  H264  1  0.62518377  0.02407076  0.51613295  1
  H+  H265  1  0.79862463  0.50161040  0.87188961  1
  H+  H266  1  0.13916666  0.51307859  0.82240387  1
  H+  H267  1  0.36264508  0.38902222  0.48476750  1
  H+  H268  1  0.48358236  0.86970732  0.17415169  1
  H+  H269  1  0.86190334  0.62848243  0.82585390  1
  H+  H270  1  0.02246592  0.39358276  0.16302045  1
  H+  H271  1  0.36651447  0.72672287  0.65644822  1
  H+  H272  1  0.11887887  -0.01620929  0.18936989  1
  H+  H273  1  0.13162025  0.61334291  0.17204360  1
  H+  H274  1  0.14782682  0.12962136  0.84123765  1
  H+  H275  1  0.13242093  0.52400464  0.16808173  1
  H+  H276  1  -0.00599966  0.61367442  -0.01763901  1
  H+  H277  1  0.90176014  0.59504420  0.51193055  1
  H+  H278  1  0.03288956  0.14158249  0.67284407  1
  H+  H279  1  0.95450745  0.98529932  0.31059894  1
  H+  H280  1  0.60434244  0.23838260  0.16201262  1
  H+  H281  1  0.39357618  0.12479099  0.85177192  1
  H+  H282  1  0.75904557  0.39712608  0.15454758  1
  H+  H283  1  -0.02853402  0.59347189  0.33656047  1
  H+  H284  1  0.71947999  0.60981893  0.50309955  1
  H+  H285  1  0.63823848  0.86815006  0.99295746  1
  H+  H286  1  0.38350822  0.61145917  0.66607958  1
  H+  H287  1  0.62531832  0.12210660  0.17283857  1
  H+  H288  1  0.17460943  0.34133597  0.57071801  1
  H+  H289  1  0.83381286  0.17218444  0.06687113  1
  H+  H290  1  0.92379639  0.81545846  0.25043817  1
  H+  H291  1  0.31728763  0.40595680  0.10069452  1
  H+  H292  1  0.09365872  0.91754022  0.72054051  1
  H+  H293  1  0.09567504  0.17692546  0.72993901  1
  H+  H294  1  0.41921462  0.84428359  0.27004444  1
  H+  H295  1  0.30814109  0.64699547  0.07909347  1
  H+  H296  1  0.01938790  0.38320686  -0.00076200  1
  H+  H297  1  0.68446947  0.35276782  0.93332253  1
  H+  H298  1  0.41541234  0.32880554  0.55183521  1
  H+  H299  1  0.06717190  0.67985670  0.75736904  1
  H+  H300  1  0.07951571  0.15777196  0.07064820  1
  H+  H301  1  0.60762374  0.17579613  0.05811877  1
  H+  H302  1  0.32043180  0.26429834  0.61926415  1
  H+  H303  1  0.03022283  0.39158769  0.49624485  1
  H+  H304  1  0.56771831  0.16538195  0.39651561  1
  H+  H305  1  0.41542288  0.56825396  0.61755439  1
  H+  H306  1  0.38433178  0.76380910  0.82826792  1
  H+  H307  1  0.33766537  0.66867891  0.75695939  1
  H+  H308  1  0.16178647  0.33440936  0.23026023  1
  H+  H309  1  0.17021914  0.83023992  0.27711120  1
  H+  H310  1  0.42511453  0.09174737  0.90746994  1
  H+  H311  1  0.60503189  0.42954641  0.11515268  1
  H+  H312  1  0.93331721  0.82093771  0.57886372  1
  H+  H313  1  0.61069389  0.25140851  0.65416947  1
  H+  H314  1  0.60801874  0.67912315  0.40342953  1
  H+  H315  1  0.42515785  0.34600589  0.26183486  1
  H+  H316  1  0.32906985  0.41641837  0.77502938  1
  H+  H317  1  0.18171280  0.10044355  0.90443551  1
  H+  H318  1  0.94333353  0.81156493  0.34281702  1
  H+  H319  1  0.13493947  0.78101278  0.82862314  1
  H+  H320  1  0.91699551  0.08645874  0.89942354  1
  H+  H321  1  0.18011032  0.83236916  0.56610924  1
  H+  H322  1  0.15786165  0.57693389  0.26312178  1
  H+  H323  1  0.83879255  0.40080618  0.40589115  1
  H+  H324  1  0.66409228  0.32609634  0.55722683  1
  H+  H325  1  0.82694767  0.64819303  0.72215048  1
  H+  H326  1  0.66374374  0.07601742  0.89297075  1
  H+  H327  1  0.65362627  0.57735670  0.55773539  1
  H+  H328  1  0.57682355  0.91037685  0.72329345  1
  H+  H329  1  0.41105437  0.59295112  0.88059629  1
  H+  H330  1  0.33760181  0.90536332  0.75332962  1
  H+  H331  1  0.62904097  0.64874953  0.01058416  1
  H+  H332  1  0.69733670  0.60422604  0.24446615  1
  H+  H333  1  0.81464190  0.17859989  0.40409499  1
  H+  H334  1  0.78896949  0.96014510  0.10742849  1
  H+  H335  1  0.75445475  0.81594114  0.22513913  1
  H+  H336  1  0.09148077  0.66460989  0.43328482  1
  H+  H337  1  0.41925843  0.60921113  0.52928010  1
  H+  H338  1  0.91164199  0.32990739  0.59427663  1
  H+  H339  1  0.34359813  0.17445903  0.77688304  1
  H+  H340  1  0.07595711  0.41563822  0.09982180  1
  H+  H341  1  0.85948230  0.67948199  0.06901613  1
  H+  H342  1  0.33474750  0.91304817  0.40884809  1
  H+  H343  1  0.33252820  0.91296404  0.10040643  1
  H+  H344  1  0.41511294  0.34199838  0.89723719  1
  H+  H345  1  0.17200648  0.09578772  0.24811489  1
  H+  H346  1  0.62535599  0.51588482  0.65126522  1
  H+  H347  1  0.83447682  0.40166036  0.75787797  1
  H+  H348  1  0.14192504  0.27748294  0.32642314  1
  H+  H349  1  0.38651806  0.07110648  0.27582816  1
  H+  H350  1  0.88878730  0.56300047  0.90498631  1
  H+  H351  1  0.82723746  0.91936324  0.73595294  1
  H+  H352  1  0.31989942  0.67173556  0.41745114  1
  H+  H353  1  0.63729390  0.81103177  0.26674433  1
  H+  H354  1  0.88182568  0.86108655  0.68168207  1
  H+  H355  1  0.52494716  0.18455399  0.11810289  1
  H+  H356  1  0.52525039  0.63977935  0.67801664  1
  H+  H357  1  0.66821161  0.32841338  0.23651848  1
  H+  H358  1  0.05800488  0.67518003  0.11640698  1
  H+  H359  1  0.58113039  0.66982333  0.76931633  1
  H+  H360  1  0.91259708  0.56924220  0.24877971  1
  H+  H361  1  0.33024475  0.16324462  0.07395349  1
  H+  H362  1  0.81621679  0.60033707  0.43101916  1
  H+  H363  1  0.84292369  0.42005302  0.06039390  1
  H+  H364  1  0.05129729  0.87015402  0.41047458  1
  H+  H365  1  0.58045618  0.92198114  0.05969644  1
  H+  H366  1  0.33011145  0.41927018  0.38966377  1
  H+  H367  1  0.14893751  0.32012244  0.93141863  1
  H+  H368  1  0.12556528  0.67101008  0.03694053  1
  H+  H369  1  0.93717738  0.69864659  0.79008725  1
  H+  H370  1  0.34275842  0.69340847  0.08080245  1
  H+  H371  1  0.18042562  0.84113485  0.88753487  1
  H+  H372  1  0.91816159  0.11599382  0.24226969  1
  H+  H373  1  0.08016148  0.41829561  0.40122655  1
  H+  H374  1  0.92063375  0.83758067  0.89649079  1
  H+  H375  1  0.51588766  0.97927886  0.39727659  1
  H+  H376  1  0.89101369  0.49517497  0.33051676  1
  H+  H377  1  0.60639261  0.67242592  0.11077912  1
  H+  H378  1  0.26760637  0.63224895  0.32361594  1
  H+  H379  1  0.90876259  0.31677289  0.89562825  1
  H+  H380  1  0.79296624  0.70794892  0.32281314  1
  H+  H381  1  0.79495176  0.92787071  0.41512819  1
  H+  H382  1  0.83659658  0.16712430  0.76159572  1
  H+  H383  1  0.04447516  0.11492493  0.40775772  1
  O2-  O384  1  0.07322360  0.16218815  0.15081286  1
  O2-  O385  1  0.00597977  0.06291175  0.43458203  1
  O2-  O386  1  0.09268458  0.16899803  0.81469104  1
  O2-  O387  1  0.08187344  0.41933165  0.14481959  1
  O2-  O388  1  0.09154581  0.41938566  0.48253810  1
  O2-  O389  1  0.08074067  0.40053719  0.80025428  1
  O2-  O390  1  0.07322062  0.67191492  0.15847336  1
  O2-  O391  1  0.09665366  0.66709025  0.47894390  1
  O2-  O392  1  0.04690022  0.68904608  0.79789360  1
  O2-  O393  1  0.09131917  0.92083260  0.17586535  1
  O2-  O394  1  0.07863441  0.89743276  0.48554046  1
  O2-  O395  1  0.07691787  0.90347568  0.79300316  1
  O2-  O396  1  0.32567779  0.16361619  0.15242458  1
  O2-  O397  1  0.30257516  0.16110679  0.46598572  1
  O2-  O398  1  0.33573821  0.17938070  0.82217873  1
  O2-  O399  1  0.32712419  0.41274375  0.14525374  1
  O2-  O400  1  0.32989930  0.41795203  0.47067049  1
  O2-  O401  1  0.33443078  0.42361646  0.81978052  1
  O2-  O402  1  0.33835492  0.67556684  0.19907518  1
  O2-  O403  1  0.32494630  0.67273879  0.46236394  1
  O2-  O404  1  0.33699174  0.66632095  0.80200018  1
  O2-  O405  1  0.33154703  0.91368031  0.14613856  1
  O2-  O406  1  0.34346398  0.91837820  0.48706567  1
  O2-  O407  1  0.33251060  0.89692946  0.80022482  1
  O2-  O408  1  0.56772239  0.17936879  0.14226959  1
  O2-  O409  1  0.57081045  0.16027776  0.47253278  1
  O2-  O410  1  0.56476724  0.14870240  0.79864613  1
  O2-  O411  1  0.58986506  0.42393667  0.15923383  1
  O2-  O412  1  0.58117658  0.41184090  0.46684556  1
  O2-  O413  1  0.58198827  0.42262693  0.80343000  1
  O2-  O414  1  0.59605499  0.66428615  0.15585488  1
  O2-  O415  1  0.59602906  0.68120069  0.47048819  1
  O2-  O416  1  0.57596693  0.66598424  0.81436381  1
  O2-  O417  1  0.59227453  0.93451823  0.13916316  1
  O2-  O418  1  0.56782024  0.91330188  0.50261904  1
  O2-  O419  1  0.57694742  0.90770290  0.80272371  1
  O2-  O420  1  0.83048156  0.18749052  0.14524878  1
  O2-  O421  1  0.81798155  0.17155280  0.48183349  1
  O2-  O422  1  0.84052182  0.16763914  0.80884094  1
  O2-  O423  1  0.80799070  0.44400818  0.13089060  1
  O2-  O424  1  0.82668936  0.41984744  0.45511558  1
  O2-  O425  1  0.83869062  0.39909473  0.80341445  1
  O2-  O426  1  0.85039684  0.67001198  0.15241700  1
  O2-  O427  1  0.83733211  0.64487717  0.51611990  1
  O2-  O428  1  0.87619971  0.67915427  0.79874696  1
  O2-  O429  1  0.76868910  0.96629459  0.14789494  1
  O2-  O430  1  0.79109919  0.95524866  0.45220267  1
  O2-  O431  1  0.83044007  0.92234498  0.81561329  1
  O2-  O432  1  0.16203484  0.08400265  0.20280791  1
  O2-  O433  1  0.13101636  0.05760201  0.51118205  1
  O2-  O434  1  0.18484298  0.10541783  0.85772350  1
  O2-  O435  1  0.16297163  0.33293862  0.18465922  1
  O2-  O436  1  0.17615134  0.34920140  0.52273483  1
  O2-  O437  1  0.16802349  0.33207634  0.85531413  1
  O2-  O438  1  0.16157931  0.58311004  0.18650807  1
  O2-  O439  1  0.17437990  0.58196072  0.51765255  1
  O2-  O440  1  0.16530549  0.57202211  0.83902997  1
  O2-  O441  1  0.17368867  0.83913042  0.19708528  1
  O2-  O442  1  0.17983154  0.83270050  0.52058330  1
  O2-  O443  1  0.17924574  0.84020968  0.84152088  1
  O2-  O444  1  0.39893053  0.07141746  0.19606449  1
  O2-  O445  1  0.41009057  0.09524440  0.50384684  1
  O2-  O446  1  0.42345195  0.09320085  0.86246454  1
  O2-  O447  1  0.41767710  0.33649968  0.18779788  1
  O2-  O448  1  0.41393595  0.33556556  0.50738217  1
  O2-  O449  1  0.41935966  0.34519585  0.85236990  1
  O2-  O450  1  0.42356781  0.57834060  0.18741415  1
  O2-  O451  1  0.42499646  0.59231725  0.48827794  1
  O2-  O452  1  0.41608069  0.58498087  0.83730606  1
  O2-  O453  1  0.42526699  0.84555177  0.19184016  1
  O2-  O454  1  0.41780532  0.84372136  0.56405285  1
  O2-  O455  1  0.41235494  0.82648544  0.84197308  1
  O2-  O456  1  0.65851806  0.09496881  0.18566115  1
  O2-  O457  1  0.65594647  0.08692214  0.52570216  1
  O2-  O458  1  0.66003539  0.07244737  0.84751184  1
  O2-  O459  1  0.66368241  0.33119832  0.19075838  1
  O2-  O460  1  0.66313125  0.32970756  0.51205661  1
  O2-  O461  1  0.70097470  0.39864057  0.86383929  1
  O2-  O462  1  0.68505375  0.58943566  0.20077697  1
  O2-  O463  1  0.65714043  0.58137294  0.51196398  1
  O2-  O464  1  0.65481053  0.58579418  0.84818452  1
  O2-  O465  1  0.70632953  0.82130962  0.20985750  1
  O2-  O466  1  0.66379978  0.83689917  0.51692588  1
  O2-  O467  1  0.66269393  0.83174208  0.85243272  1
  O2-  O468  1  0.90960963  0.10676038  0.19759960  1
  O2-  O469  1  0.94603159  0.08689022  0.46273314  1
  O2-  O470  1  0.91759159  0.08793053  0.85388595  1
  O2-  O471  1  0.92465322  0.35461487  0.19621350  1
  O2-  O472  1  0.91930938  0.34063826  0.51464795  1
  O2-  O473  1  0.90799038  0.31318396  0.84906256  1
  O2-  O474  1  0.91822184  0.57925547  0.20311380  1
  O2-  O475  1  0.93353521  0.56450546  0.52221101  1
  O2-  O476  1  0.85951225  0.54614636  0.86423816  1
  O2-  O477  1  0.94119712  0.82490694  0.20634943  1
  O2-  O478  1  0.95372077  0.79060676  0.55330320  1
  O2-  O479  1  0.91653844  0.83897757  0.85099108  1
  O2-  O480  1  0.18607412  0.11023700  0.32276676  1
  O2-  O481  1  0.20316942  0.10314693  0.65987818  1
  O2-  O482  1  0.17502469  0.08849199  0.97516649  1
  O2-  O483  1  0.16681005  0.33774387  0.30811699  1
  O2-  O484  1  0.16799263  0.33196114  0.63661069  1
  O2-  O485  1  0.14245712  0.31474312  0.97694602  1
  O2-  O486  1  0.16347798  0.57989276  0.30867606  1
  O2-  O487  1  0.17114889  0.58709231  0.64089074  1
  O2-  O488  1  0.16506209  0.56734047  0.95746792  1
  O2-  O489  1  0.16246334  0.82106784  0.32176568  1
  O2-  O490  1  0.18712957  0.84123928  0.64401842  1
  O2-  O491  1  0.18404460  0.84023304  0.96313729  1
  O2-  O492  1  0.38307756  0.07516282  0.32078479  1
  O2-  O493  1  0.45012546  0.09812045  0.66690632  1
  O2-  O494  1  0.42563463  0.08529401  0.98894276  1
  O2-  O495  1  0.43151874  0.35208019  0.30770572  1
  O2-  O496  1  0.37825772  0.30057151  0.63591659  1
  O2-  O497  1  0.39014378  0.32565278  0.97957080  1
  O2-  O498  1  0.40305311  0.58119689  0.30457332  1
  O2-  O499  1  0.41396627  0.57667790  0.66112513  1
  O2-  O500  1  0.43984013  0.59641342  1.01235861  1
  O2-  O501  1  0.40980769  0.83314721  0.31490238  1
  O2-  O502  1  0.42066327  0.83910599  0.63106747  1
  O2-  O503  1  0.42202937  0.84025631  0.96782835  1
  O2-  O504  1  0.65616121  0.08938843  0.31018304  1
  O2-  O505  1  0.65454217  0.08155630  0.64920063  1
  O2-  O506  1  0.67148864  0.08220375  0.97212254  1
  O2-  O507  1  0.66827705  0.32809316  0.31159123  1
  O2-  O508  1  0.64906748  0.31161386  0.64059539  1
  O2-  O509  1  0.68700467  0.34103788  0.97767351  1
  O2-  O510  1  0.73602232  0.65212391  0.32316312  1
  O2-  O511  1  0.65525966  0.57615755  0.63556324  1
  O2-  O512  1  0.62994659  0.57222010  0.97178998  1
  O2-  O513  1  0.59457508  0.78889131  0.30079449  1
  O2-  O514  1  0.67125061  0.83635942  0.64077086  1
  O2-  O515  1  0.67387713  0.84251465  0.97897757  1
  O2-  O516  1  0.93393523  0.13458344  0.32310786  1
  O2-  O517  1  0.92943561  0.09066660  0.65464233  1
  O2-  O518  1  0.91781229  0.08259566  0.98071118  1
  O2-  O519  1  0.89461905  0.35500123  0.32871369  1
  O2-  O520  1  0.91167408  0.32689277  0.63968707  1
  O2-  O521  1  0.91491355  0.32368132  0.96878641  1
  O2-  O522  1  0.91040758  0.55809139  0.32249313  1
  O2-  O523  1  0.91956429  0.57203889  0.64563831  1
  O2-  O524  1  0.93066033  0.58551609  0.97644484  1
  O2-  O525  1  0.88688563  0.79945095  0.32183184  1
  O2-  O526  1  0.91424583  0.82820795  0.68059662  1
  O2-  O527  1  0.92751449  0.83750974  0.97394810  1
  O2-  O528  1  0.08038486  0.15500029  0.02514798  1
  O2-  O529  1  0.11524145  0.18995985  0.36398410  1
  O2-  O530  1  0.09571694  0.17640124  0.68488068  1
  O2-  O531  1  0.07922746  0.41209413  0.01564353  1
  O2-  O532  1  0.07329932  0.41645822  0.35621860  1
  O2-  O533  1  0.08018983  0.41467770  0.67724570  1
  O2-  O534  1  0.10730304  0.66578167  -0.00533100  1
  O2-  O535  1  0.07787370  0.65577382  0.35703608  1
  O2-  O536  1  0.09228653  0.67388048  0.68392526  1
  O2-  O537  1  0.10065466  0.91230838  0.00869092  1
  O2-  O538  1  0.03559234  0.85107581  0.36745926  1
  O2-  O539  1  0.10377385  0.92399094  0.67496807  1
  O2-  O540  1  0.33324604  0.16162588  0.02838745  1
  O2-  O541  1  0.27773262  0.15896165  0.34109006  1
  O2-  O542  1  0.35785301  0.17130595  0.70458470  1
  O2-  O543  1  0.29565521  0.39397017  0.01888796  1
  O2-  O544  1  0.33292240  0.42275193  0.34428970  1
  O2-  O545  1  0.32288814  0.40619163  0.69212759  1
  O2-  O546  1  0.33606947  0.66271743  -0.03841694  1
  O2-  O547  1  0.32979362  0.66151011  0.33713826  1
  O2-  O548  1  0.33771812  0.66830831  0.67456156  1
  O2-  O549  1  0.33894621  0.91639478  0.02179888  1
  O2-  O550  1  0.32776358  0.91140820  0.36355604  1
  O2-  O551  1  0.34706889  0.92191594  0.68588104  1
  O2-  O552  1  0.60210024  0.17389504  0.01352718  1
  O2-  O553  1  0.56448007  0.16731693  0.35066929  1
  O2-  O554  1  0.54135197  0.13654558  0.68547877  1
  O2-  O555  1  0.63197092  0.43223888  0.03822930  1
  O2-  O556  1  0.57740720  0.40689876  0.34508294  1
  O2-  O557  1  0.57558056  0.40985841  0.68032103  1
  O2-  O558  1  0.61500832  0.68903419  0.03386844  1
  O2-  O559  1  0.61169196  0.67322528  0.35648953  1
  O2-  O560  1  0.58780892  0.67194791  0.68723627  1
  O2-  O561  1  0.58343801  0.91857073  0.01446006  1
  O2-  O562  1  0.54198398  0.94610142  0.38291783  1
  O2-  O563  1  0.57878999  0.91305009  0.67773884  1
  O2-  O564  1  0.83384348  0.16651891  0.02142467  1
  O2-  O565  1  0.81758466  0.18501810  0.35875600  1
  O2-  O566  1  0.82512823  0.16693039  0.69200281  1
  O2-  O567  1  0.85035989  0.41811005  0.01573071  1
  O2-  O568  1  0.84051603  0.39216577  0.34779617  1
  O2-  O569  1  0.82198739  0.40225016  0.68193010  1
  O2-  O570  1  0.86061229  0.68334499  0.02406889  1
  O2-  O571  1  0.79011575  0.56346140  0.39536889  1
  O2-  O572  1  0.82198069  0.65178192  0.67730531  1
  O2-  O573  1  0.82237330  0.91914912  0.03618819  1
  O2-  O574  1  0.91280543  0.96355681  0.34376759  1
  O2-  O575  1  0.83316760  0.91681566  0.69090429  1
