# generated using pymatgen
data_H2O
_symmetry_space_group_name_H-M   'P 1'
_cell_length_a   18.01076201
_cell_length_b   18.00186628
_cell_length_c   22.02193667
_cell_angle_alpha   90.00597124
_cell_angle_beta   89.99043699
_cell_angle_gamma   119.99399342
_symmetry_Int_Tables_number   1
_chemical_formula_structural   H2O
_chemical_formula_sum   'H384 O192'
_cell_volume   6183.89400327
_cell_formula_units_Z   192
loop_
 _symmetry_equiv_pos_site_id
 _symmetry_equiv_pos_as_xyz
  1  'x, y, z'
loop_
 _atom_type_symbol
 _atom_type_oxidation_number
  H+  1.0
  O2-  -2.0
loop_
 _atom_site_type_symbol
 _atom_site_label
 _atom_site_symmetry_multiplicity
 _atom_site_fract_x
 _atom_site_fract_y
 _atom_site_fract_z
 _atom_site_occupancy
  H+  H0  1  0.92892686  0.78700068  0.58844211  1
  H+  H1  1  0.62952092  0.39851413  0.67135768  1
  H+  H2  1  0.07589184  0.15701084  0.39300937  1
  H+  H3  1  0.88225583  0.70658674  0.66768016  1
  H+  H4  1  0.34755309  0.82661761  0.32285016  1
  H+  H5  1  0.91396644  0.76625421  0.16301680  1
  H+  H6  1  0.37839105  0.75116320  0.17241178  1
  H+  H7  1  1.00209761  0.86390432  0.47752908  1
  H+  H8  1  0.75099438  0.36216391  0.66193965  1
  H+  H9  1  0.39048490  0.10089640  0.15139326  1
  H+  H10  1  0.16709704  0.90420395  0.53142261  1
  H+  H11  1  0.25579459  0.62955193  0.67291274  1
  H+  H12  1  0.84330218  0.58730793  0.82228065  1
  H+  H13  1  0.43161529  0.07845392  0.30646936  1
  H+  H14  1  -0.02802016  0.11125881  0.84459764  1
  H+  H15  1  0.28437349  0.39687994  0.68914150  1
  H+  H16  1  0.35858881  0.62291907  0.33478903  1
  H+  H17  1  0.38159936  0.96074455  -0.00083345  1
  H+  H18  1  0.73135123  0.91231190  0.67189103  1
  H+  H19  1  0.15014706  0.62858584  0.51001424  1
  H+  H20  1  0.64216913  0.76054795  0.83685729  1
  H+  H21  1  0.32590029  0.16419619  0.39805629  1
  H+  H22  1  0.35171956  0.46718589  0.12258478  1
  H+  H23  1  0.69291941  0.63178170  0.17484257  1
  H+  H24  1  0.88293133  0.01749933  0.31905361  1
  H+  H25  1  0.58249412  0.90197024  0.76445517  1
  H+  H26  1  0.62443650  0.48733981  0.15531072  1
  H+  H27  1  0.38215787  0.51936112  0.31554875  1
  H+  H28  1  0.10933536  0.21092706  0.14934891  1
  H+  H29  1  0.78060589  0.88601901  0.82308065  1
  H+  H30  1  0.91143332  0.88188634  0.83085706  1
  H+  H31  1  0.45751675  0.64261562  0.65233569  1
  H+  H32  1  0.63380525  0.36290398  0.32544170  1
  H+  H33  1  0.87004971  -0.00721251  0.67184118  1
  H+  H34  1  0.37130196  0.15875157  0.33986619  1
  H+  H35  1  0.40264613  0.56260005  0.21552272  1
  H+  H36  1  0.36107570  0.21849678  0.15455965  1
  H+  H37  1  0.92334458  0.85782611  0.15816417  1
  H+  H38  1  0.21358119  0.92587659  -0.04744599  1
  H+  H39  1  0.11044283  0.11760454  0.16233640  1
  H+  H40  1  0.94202979  0.55182226  0.82980990  1
  H+  H41  1  0.88191038  0.76465239  -0.01385231  1
  H+  H42  1  0.97614799  0.59400302  0.65252791  1
  H+  H43  1  0.22557287  0.05235252  0.50828769  1
  H+  H44  1  0.67317375  0.12233374  0.32790857  1
  H+  H45  1  0.79049449  0.87073587  0.37953200  1
  H+  H46  1  0.86719232  0.14093671  0.00501067  1
  H+  H47  1  0.24472712  0.62796748  0.00398891  1
  H+  H48  1  0.30612725  0.65113157  0.75959068  1
  H+  H49  1  0.62257688  0.17411572  0.40713538  1
  H+  H50  1  0.26698849  0.38388123  1.02398515  1
  H+  H51  1  0.38894520  0.83307879  0.85297672  1
  H+  H52  1  0.87735706  0.13794159  0.32551760  1
  H+  H53  1  0.85163142  0.48083898  0.33857787  1
  H+  H54  1  0.36144713  0.11727563  0.48922664  1
  H+  H55  1  -0.02582005  0.84218252  0.64778126  1
  H+  H56  1  0.89574237  0.11724877  0.50144034  1
  H+  H57  1  0.57041343  0.14928173  0.00161868  1
  H+  H58  1  0.89725455  0.95819995  0.42130399  1
  H+  H59  1  0.06627778  0.91659347  0.39209152  1
  H+  H60  1  0.62696571  0.48489962  0.66673460  1
  H+  H61  1  0.35870176  0.88040182  0.49658698  1
  H+  H62  1  0.87701351  1.02083445  0.16178273  1
  H+  H63  1  0.37708371  0.27847798  0.84633329  1
  H+  H64  1  0.14176209  1.01985344  0.16697755  1
  H+  H65  1  0.55427811  0.41367667  0.48990798  1
  H+  H66  1  0.63104540  0.52380129  0.32276467  1
  H+  H67  1  0.40398461  0.33788561  0.90469001  1
  H+  H68  1  0.37433143  0.76631259  0.65855635  1
  H+  H69  1  0.63908573  0.27984772  -0.00612128  1
  H+  H70  1  0.39190064  0.26893938  0.50727381  1
  H+  H71  1  0.36376412  0.74615996  0.32419927  1
  H+  H72  1  0.10317371  0.39956579  0.47805128  1
  H+  H73  1  0.01711803  0.38246981  0.66499055  1
  H+  H74  1  0.38756943  0.52220178  1.00445833  1
  H+  H75  1  0.83524602  0.48465425  0.68147381  1
  H+  H76  1  0.64946103  0.62643380  0.49824264  1
  H+  H77  1  0.77213783  0.13157576  0.67627392  1
  H+  H78  1  0.66446530  0.54612313  0.49655041  1
  H+  H79  1  0.42356505  0.84427505  0.57350823  1
  H+  H80  1  0.65498116  0.85233780  0.50899008  1
  H+  H81  1  0.23277187  0.61761838  0.50806527  1
  H+  H82  1  0.22235213  0.34631022  0.12992376  1
  H+  H83  1  0.58874123  0.64146638  0.15757066  1
  H+  H84  1  0.47594999  0.92532529  0.53224036  1
  H+  H85  1  0.48917544  0.36828898  0.67834799  1
  H+  H86  1  0.72195969  0.85682849  0.98213497  1
  H+  H87  1  0.60969043  0.18405572  0.77585225  1
  H+  H88  1  0.61277533  0.78064455  0.16227338  1
  H+  H89  1  0.48232259  0.14961178  0.37019785  1
  H+  H90  1  0.30313399  0.59276302  0.81512333  1
  H+  H91  1  0.11673038  0.75006097  0.66390612  1
  H+  H92  1  0.63896141  0.35506177  0.17774557  1
  H+  H93  1  0.63620404  0.84866656  0.83391842  1
  H+  H94  1  0.13788593  0.11288930  0.85026000  1
  H+  H95  1  0.62931017  0.76266715  0.98446648  1
  H+  H96  1  0.22153687  0.10922784  0.32204552  1
  H+  H97  1  0.64146223  0.26734666  0.17524045  1
  H+  H98  1  0.22430693  0.60723404  0.32814620  1
  H+  H99  1  0.62861328  0.96130809  0.48182163  1
  H+  H100  1  0.40184311  0.13718826  0.85079411  1
  H+  H101  1  0.37092082  0.72572952  0.48929517  1
  H+  H102  1  0.66305743  0.28814700  0.84511349  1
  H+  H103  1  0.85607921  0.87451238  0.32916896  1
  H+  H104  1  0.86300209  0.14006866  0.82948599  1
  H+  H105  1  0.51797932  0.13249644  0.49679955  1
  H+  H106  1  0.37050815  0.59756211  0.16168815  1
  H+  H107  1  0.33372485  0.42648274  0.77937039  1
  H+  H108  1  0.81533125  0.87832958  0.15016629  1
  H+  H109  1  0.42080196  0.61899704  0.84609835  1
  H+  H110  1  0.85207783  0.63822542  0.34018304  1
  H+  H111  1  0.88262490  0.77023772  0.32018233  1
  H+  H112  1  0.63949911  0.61625723  -0.00450416  1
  H+  H113  1  0.80785269  0.63383545  0.15281539  1
  H+  H114  1  0.97606087  0.10342902  0.31898152  1
  H+  H115  1  0.22511248  0.36010415  0.84918300  1
  H+  H116  1  0.38976970  0.53033358  0.50102091  1
  H+  H117  1  0.26449521  0.38322835  0.33571958  1
  H+  H118  1  0.65448562  0.23578621  0.35041369  1
  H+  H119  1  0.42254015  0.06236717  0.84353018  1
  H+  H120  1  1.05120370  0.88513577  0.15918894  1
  H+  H121  1  0.06787628  0.66105042  0.27350234  1
  H+  H122  1  0.09483597  0.92449473  0.09599290  1
  H+  H123  1  0.38148915  0.37107889  0.00469552  1
  H+  H124  1  0.92854183  0.43258995  0.63041320  1
  H+  H125  1  0.12696629  0.77024689  0.32317420  1
  H+  H126  1  0.10876521  0.13251033  0.33161752  1
  H+  H127  1  0.18043192  0.60851967  0.94542573  1
  H+  H128  1  0.83035757  0.44159954  1.00569791  1
  H+  H129  1  0.66137739  0.23059364  0.67259639  1
  H+  H130  1  0.50245997  0.17099505  0.34009357  1
  H+  H131  1  0.15700977  0.85834785  0.15404458  1
  H+  H132  1  0.11374841  0.21907814  0.69375200  1
  H+  H133  1  0.71145011  0.86108960  0.30737092  1
  H+  H134  1  0.90834838  0.61299622  0.17295077  1
  H+  H135  1  0.62720439  0.09056298  0.66843377  1
  H+  H136  1  0.17310387  0.05463926  0.59836163  1
  H+  H137  1  0.27468425  0.13685716  0.84246939  1
  H+  H138  1  0.46995152  0.60961020  0.31449222  1
  H+  H139  1  0.39124381  0.85089585  0.16901029  1
  H+  H140  1  0.64012527  0.10722372  0.84697675  1
  H+  H141  1  0.77007434  0.62231241  0.00749224  1
  H+  H142  1  0.60370668  0.63798515  0.33205750  1
  H+  H143  1  0.12896720  0.34307356  0.84715139  1
  H+  H144  1  0.86656318  0.38942584  0.15888334  1
  H+  H145  1  0.67771836  0.45689523  0.11777821  1
  H+  H146  1  0.97294757  0.09839192  0.98969397  1
  H+  H147  1  0.74300672  0.60943683  0.65621701  1
  H+  H148  1  0.34441171  0.19760148  0.49696298  1
  H+  H149  1  1.00865953  0.36094532  0.82522039  1
  H+  H150  1  0.66707882  0.32947569  0.26867491  1
  H+  H151  1  0.46923982  0.35890098  0.15890210  1
  H+  H152  1  1.01218354  0.11796435  0.16010062  1
  H+  H153  1  0.37080242  0.85209433  0.65964496  1
  H+  H154  1  0.96985712  0.36151527  0.99472498  1
  H+  H155  1  0.13314604  0.35451391  0.67342497  1
  H+  H156  1  0.36286600  0.62939002  0.01096888  1
  H+  H157  1  0.08788496  0.98643972  0.00994032  1
  H+  H158  1  0.55746907  0.78674262  0.65600609  1
  H+  H159  1  0.52155851  0.86628017  0.82174289  1
  H+  H160  1  0.87879342  0.01629674  0.98888491  1
  H+  H161  1  0.37970236  0.74381658  0.83760717  1
  H+  H162  1  0.40874103  0.84914550  0.99202969  1
  H+  H163  1  0.13609861  0.63003461  1.01278914  1
  H+  H164  1  0.95837858  0.55126639  1.02051437  1
  H+  H165  1  0.54218532  0.62671887  0.83139958  1
  H+  H166  1  0.11343948  0.21830082  0.84265104  1
  H+  H167  1  -0.04728695  0.93909459  0.68320642  1
  H+  H168  1  0.83101609  0.68142397  0.39597808  1
  H+  H169  1  0.50060896  0.63626042  0.14763208  1
  H+  H170  1  0.88721573  0.27488888  0.16486368  1
  H+  H171  1  0.63267714  0.27370703  0.50480813  1
  H+  H172  1  0.77640536  0.13189939  0.32087003  1
  H+  H173  1  0.35526219  0.38550067  0.33080690  1
  H+  H174  1  0.20981347  0.84675033  0.66653914  1
  H+  H175  1  0.18939616  0.13565409  0.01232591  1
  H+  H176  1  0.34719638  0.39075762  0.48544788  1
  H+  H177  1  0.12520149  -0.01593414  0.50653607  1
  H+  H178  1  0.62367363  0.36763676  -0.01435348  1
  H+  H179  1  0.23971181  0.84783611  0.15438638  1
  H+  H180  1  0.10345835  0.44040820  0.81725011  1
  H+  H181  1  0.10700545  0.62733343  0.67435250  1
  H+  H182  1  0.35628890  0.38796360  0.83822695  1
  H+  H183  1  0.84650932  0.87403108  -0.00089662  1
  H+  H184  1  0.04922018  -0.01543223  0.66142124  1
  H+  H185  1  0.54944668  0.16462994  0.83428033  1
  H+  H186  1  0.13832501  0.98460202  0.84381657  1
  H+  H187  1  0.54164380  0.87607314  0.48972189  1
  H+  H188  1  0.11275683  0.38098092  0.15260087  1
  H+  H189  1  0.29890906  0.92554683  0.83598154  1
  H+  H190  1  0.37102688  0.27880403  -0.00002316  1
  H+  H191  1  0.37484106  0.40111266  0.69067631  1
  H+  H192  1  0.10152594  0.12493981  0.69202536  1
  H+  H193  1  0.16981270  0.13770002  0.60820531  1
  H+  H194  1  0.39152991  0.36530181  0.50274090  1
  H+  H195  1  0.20727444  0.61992747  0.84311864  1
  H+  H196  1  -0.11871984  0.61686683  0.50301704  1
  H+  H197  1  0.62373748  0.77363374  0.31374135  1
  H+  H198  1  0.32983175  0.95746633  0.67023321  1
  H+  H199  1  0.10617158  0.48903081  0.48845513  1
  H+  H200  1  0.66157145  0.65992885  0.67888748  1
  H+  H201  1  0.13105388  0.52242753  0.32479087  1
  H+  H202  1  0.52365270  0.63779607  0.00333653  1
  H+  H203  1  0.10543821  0.90763326  0.00252701  1
  H+  H204  1  0.34538989  0.63104866  0.67168661  1
  H+  H205  1  0.50951430  0.38415638  0.00142679  1
  H+  H206  1  0.08573309  0.62906013  0.82610407  1
  H+  H207  1  0.36414382  0.22485271  0.68674511  1
  H+  H208  1  0.38070048  0.27976093  0.31853806  1
  H+  H209  1  0.12713350  0.51080063  0.66063178  1
  H+  H210  1  0.63451467  1.01586683  0.84053974  1
  H+  H211  1  0.42936400  0.10183916  1.01196534  1
  H+  H212  1  0.10231645  0.38666002  0.34465740  1
  H+  H213  1  0.36571605  0.10226535  0.66544125  1
  H+  H214  1  0.62834561  0.14223766  0.15594488  1
  H+  H215  1  0.91579598  0.00235341  0.48630100  1
  H+  H216  1  0.21797737  0.37591858  0.48045629  1
  H+  H217  1  0.61198593  0.14398431  0.50323278  1
  H+  H218  1  0.21847520  0.92413877  0.80563682  1
  H+  H219  1  0.38037688  0.01101715  0.50597970  1
  H+  H220  1  0.27204688  0.14092504  0.67672552  1
  H+  H221  1  0.88058942  0.27072919  0.83933995  1
  H+  H222  1  0.05207693  0.69275502  0.82598216  1
  H+  H223  1  0.26889138  0.88046009  0.50174066  1
  H+  H224  1  0.39134978  0.53914494  0.66176330  1
  H+  H225  1  0.12862175  0.80146412  0.51308558  1
  H+  H226  1  0.12358271  0.26321390  0.33276316  1
  H+  H227  1  0.65808642  0.37670621  0.83894586  1
  H+  H228  1  0.86895489  0.14342044  0.15417139  1
  H+  H229  1  0.39237450  0.51818622  0.84706889  1
  H+  H230  1  0.38116302  -0.03722079  0.14333069  1
  H+  H231  1  0.73712233  0.60275665  0.84042486  1
  H+  H232  1  0.56497341  0.93452694  0.38454234  1
  H+  H233  1  0.30984939  0.13709179  -0.00054451  1
  H+  H234  1  0.01686175  0.65641508  0.49509882  1
  H+  H235  1  0.97288588  0.35606704  0.31925600  1
  H+  H236  1  0.13887367  0.60625626  0.17029329  1
  H+  H237  1  0.86239368  -0.01979071  0.82624410  1
  H+  H238  1  0.12375221  0.86441990  0.33460337  1
  H+  H239  1  0.88132173  0.23816277  0.32113884  1
  H+  H240  1  0.96207699  0.85831616  0.99403352  1
  H+  H241  1  0.16588457  0.80206859  0.85008793  1
  H+  H242  1  0.43949873  0.07810577  0.66560540  1
  H+  H243  1  0.67695544  0.81134043  0.56519182  1
  H+  H244  1  0.97514325  0.12264336  0.66264084  1
  H+  H245  1  0.88148635  0.52804896  0.49525005  1
  H+  H246  1  0.53108711  0.63800043  0.48948466  1
  H+  H247  1  0.73988054  0.89552889  0.14717430  1
  H+  H248  1  0.63460070  0.40182944  0.48839396  1
  H+  H249  1  0.88699946  0.27443845  0.49454456  1
  H+  H250  1  0.12280411  0.72365987  0.15001629  1
  H+  H251  1  0.60565138  0.90005107  0.14559564  1
  H+  H252  1  0.78561851  0.66424809  0.49303589  1
  H+  H253  1  0.14978446  0.82351015  0.60489406  1
  H+  H254  1  0.53697500  0.13762273  0.14835475  1
  H+  H255  1  0.34616251  0.94429964  0.33905426  1
  H+  H256  1  0.11663086  0.47296140  0.00522193  1
  H+  H257  1  0.77781391  0.38849503  0.16606100  1
  H+  H258  1  0.11167427  0.22725690  0.47253157  1
  H+  H259  1  0.11857562  0.20704685  -0.00037098  1
  H+  H260  1  0.96138443  0.60762690  0.33089153  1
  H+  H261  1  0.72634019  0.10719648  1.00016573  1
  H+  H262  1  0.10336667  0.83681535  0.85470937  1
  H+  H263  1  0.16343791  0.09418936  0.91360820  1
  H+  H264  1  0.22103078  0.86093428  0.34070858  1
  H+  H265  1  0.15890768  0.57396239  0.60224554  1
  H+  H266  1  0.58649416  0.42097770  0.39165622  1
  H+  H267  1  0.86509216  0.23017354  0.00464346  1
  H+  H268  1  0.58506414  0.72253858  0.68363909  1
  H+  H269  1  0.88683891  0.12429925  0.65943376  1
  H+  H270  1  0.11718737  0.54637285  0.86876558  1
  H+  H271  1  0.97644687  0.36326586  0.16762844  1
  H+  H272  1  0.84270806  0.93054295  0.73038711  1
  H+  H273  1  0.64390763  0.00998712  0.65912515  1
  H+  H274  1  0.85788947  0.38399619  0.48164594  1
  H+  H275  1  0.13303440  1.01888499  0.32073711  1
  H+  H276  1  0.02841504  0.13886720  0.48617979  1
  H+  H277  1  0.73348492  0.18937992  0.54516278  1
  H+  H278  1  0.37677208  0.72544628  0.00923999  1
  H+  H279  1  0.47947116  0.89223361  0.34958774  1
  H+  H280  1  0.73717451  0.12279621  0.16538694  1
  H+  H281  1  0.63897975  -0.01615745  1.03868519  1
  H+  H282  1  0.75601243  0.38533778  0.33547629  1
  H+  H283  1  0.86207947  0.80674670  0.49485135  1
  H+  H284  1  0.52142392  0.38892483  0.33393464  1
  H+  H285  1  0.32764408  0.16122335  0.77987882  1
  H+  H286  1  1.01729086  0.88184532  0.32910490  1
  H+  H287  1  1.03126922  0.63257560  0.16038406  1
  H+  H288  1  0.06759700  0.42542951  0.39493528  1
  H+  H289  1  0.92013382  0.35900283  0.58675214  1
  H+  H290  1  0.67103773  0.34420903  0.92670794  1
  H+  H291  1  0.41649485  0.58518669  0.56334494  1
  H+  H292  1  0.28791135  0.87810951  0.00007691  1
  H+  H293  1  0.17691970  0.31939468  0.62824898  1
  H+  H294  1  0.62249898  0.72442347  0.48797473  1
  H+  H295  1  0.33369032  0.65246997  0.39822162  1
  H+  H296  1  0.63335501  0.63145158  0.83493531  1
  H+  H297  1  0.63035745  0.52284096  0.99323469  1
  H+  H298  1  0.78983588  0.40148483  0.83826598  1
  H+  H299  1  0.70022499  0.93461740  0.61352136  1
  H+  H300  1  0.96917421  0.36896183  0.49475848  1
  H+  H301  1  0.80973906  0.43677567  0.74457812  1
  H+  H302  1  0.41078053  0.33694874  0.25808789  1
  H+  H303  1  0.44099442  0.09030604  0.94172136  1
  H+  H304  1  0.90755938  0.57989417  0.27091994  1
  H+  H305  1  0.19773975  0.32641502  0.19700428  1
  H+  H306  1  0.71769871  0.61563926  0.32328683  1
  H+  H307  1  0.63140125  0.47573032  0.82903528  1
  H+  H308  1  0.81000260  0.90817590  0.05353969  1
  H+  H309  1  -0.00170039  0.94559642  0.46192018  1
  H+  H310  1  0.41825718  0.57464425  0.94139082  1
  H+  H311  1  0.06613834  0.39387522  0.72821349  1
  H+  H312  1  0.89750636  0.52041650  0.18094138  1
  H+  H313  1  0.14982833  0.33856086  0.53310676  1
  H+  H314  1  0.07690994  0.69918677  0.43909102  1
  H+  H315  1  0.31830540  0.89743076  0.40531827  1
  H+  H316  1  0.16883944  0.57904896  0.23121330  1
  H+  H317  1  0.58221915  0.67639129  0.06138144  1
  H+  H318  1  0.83218669  0.63954577  0.76824972  1
  H+  H319  1  0.33675624  0.04021741  0.28350892  1
  H+  H320  1  0.57670909  0.41481466  0.05702781  1
  H+  H321  1  0.60994311  0.42182000  0.76787357  1
  H+  H322  1  0.40137367  0.06976429  0.56557607  1
  H+  H323  1  0.67880607  0.58141853  0.90175815  1
  H+  H324  1  0.67927605  0.09811872  0.57169043  1
  H+  H325  1  0.91380550  0.07413230  0.22429675  1
  H+  H326  1  0.42753624  0.33968536  0.57113704  1
  H+  H327  1  0.35424796  0.89563408  0.08934999  1
  H+  H328  1  0.42342973  0.33820138  0.62296246  1
  H+  H329  1  0.43970195  0.81082197  0.93980037  1
  H+  H330  1  0.06508236  0.65212514  0.73120397  1
  H+  H331  1  0.13610901  0.35330360  1.00136485  1
  H+  H332  1  0.33226053  0.66455764  0.09920888  1
  H+  H333  1  0.66271549  0.82067235  0.91632205  1
  H+  H334  1  0.61291091  0.19308471  0.06495625  1
  H+  H335  1  0.84170685  0.45997887  0.07591855  1
  H+  H336  1  0.64817826  0.03517427  0.16029366  1
  H+  H337  1  0.92543979  0.09469530  0.56475688  1
  H+  H338  1  0.91621788  0.32332348  0.25681786  1
  H+  H339  1  0.76838872  0.38394683  0.48439149  1
  H+  H340  1  0.85373894  0.65896396  0.08871887  1
  H+  H341  1  0.32974863  0.42339514  0.42025464  1
  H+  H342  1  0.77201713  0.13435449  0.83110404  1
  H+  H343  1  0.68874286  0.09084554  0.26125871  1
  H+  H344  1  0.14778206  0.83001705  0.94215626  1
  H+  H345  1  0.08321351  0.41499788  0.06385534  1
  H+  H346  1  0.07928421  0.15849937  0.78347184  1
  H+  H347  1  0.05212593  0.90350265  0.82511865  1
  H+  H348  1  0.68715125  0.33238679  0.56036864  1
  H+  H349  1  0.84406614  0.59907062  0.00847481  1
  H+  H350  1  0.91573052  0.56735751  0.59277075  1
  H+  H351  1  0.78421379  0.13982938  0.48103941  1
  H+  H352  1  0.57567071  0.66836864  0.39080598  1
  H+  H353  1  0.83142944  0.16502160  0.73454272  1
  H+  H354  1  0.37236968  0.63826623  0.49516146  1
  H+  H355  1  0.64631721  0.58207571  0.23457910  1
  H+  H356  1  0.31254231  0.16624338  0.06840603  1
  H+  H357  1  0.78925169  0.31387359  0.62713909  1
  H+  H358  1  0.93276510  0.84572710  0.88893410  1
  H+  H359  1  0.91959192  0.82734293  0.25954116  1
  H+  H360  1  0.29840996  0.90091347  0.73056042  1
  H+  H361  1  0.13870727  0.32822458  0.27995922  1
  H+  H362  1  0.66281729  0.06077035  0.94635149  1
  H+  H363  1  0.07985092  0.64545117  0.07519857  1
  H+  H364  1  0.64021455  0.68349076  0.74356210  1
  H+  H365  1  0.26911963  0.63055540  0.15863508  1
  H+  H366  1  0.68417923  0.59195070  0.59677247  1
  H+  H367  1  0.16453398  0.07824218  0.22813646  1
  H+  H368  1  0.41747368  0.06116910  0.20492990  1
  H+  H369  1  0.82248127  0.41484818  0.39927015  1
  H+  H370  1  0.11616438  0.47152408  0.15987609  1
  H+  H371  1  0.27226802  0.12990916  0.15865596  1
  H+  H372  1  0.39696728  0.80931880  0.23803345  1
  H+  H373  1  0.84276583  0.16664665  0.42123181  1
  H+  H374  1  0.90767507  0.08079977  0.90014108  1
  H+  H375  1  0.91157488  0.33179279  0.93686633  1
  H+  H376  1  0.11596793  0.63743596  0.32150987  1
  H+  H377  1  0.56339734  0.19013829  0.68251700  1
  H+  H378  1  0.86200823  0.61174313  0.67296659  1
  H+  H379  1  0.89412652  0.36713915  0.83954234  1
  H+  H380  1  0.64437531  0.83744183  0.22329461  1
  H+  H381  1  0.83974294  0.17255993  0.09373744  1
  H+  H382  1  0.17229330  0.32771567  0.94472465  1
  H+  H383  1  0.38340478  0.35922260  0.14746916  1
  O2-  O384  1  0.07591262  0.14610192  0.14633946  1
  O2-  O385  1  0.08453375  0.16532318  0.46418353  1
  O2-  O386  1  0.08086292  0.15713872  0.82865727  1
  O2-  O387  1  0.08241412  0.41230896  0.14257453  1
  O2-  O388  1  0.07134421  0.43083474  0.47013785  1
  O2-  O389  1  0.06787868  0.38052439  0.80576280  1
  O2-  O390  1  0.08861675  0.65874317  0.14007393  1
  O2-  O391  1  0.07793843  0.69677590  0.48328855  1
  O2-  O392  1  0.04256913  0.63921246  0.80550841  1
  O2-  O393  1  0.10795160  0.92333502  0.14028566  1
  O2-  O394  1  0.04011904  0.92287603  0.46210857  1
  O2-  O395  1  0.11651630  0.92774611  0.82406714  1
  O2-  O396  1  0.33084457  0.15799322  0.14006505  1
  O2-  O397  1  0.32486730  0.14275608  0.47392960  1
  O2-  O398  1  0.33407380  0.16546264  0.82466785  1
  O2-  O399  1  0.32536459  0.40708141  0.10577715  1
  O2-  O400  1  0.32426521  0.42569354  0.46668379  1
  O2-  O401  1  0.32868289  0.42350280  0.82457280  1
  O2-  O402  1  0.33093938  0.66235924  0.14526273  1
  O2-  O403  1  0.33811514  0.66477183  0.47886159  1
  O2-  O404  1  0.30161644  0.64520257  0.80660857  1
  O2-  O405  1  0.35373963  0.90002977  0.13478074  1
  O2-  O406  1  0.32560023  0.90719079  0.48036110  1
  O2-  O407  1  0.25920614  0.90223219  0.80194770  1
  O2-  O408  1  0.59942718  0.17480837  0.14074861  1
  O2-  O409  1  0.57896495  0.16900593  0.48473989  1
  O2-  O410  1  0.60915439  0.18453881  0.82099405  1
  O2-  O411  1  0.62006567  0.43589549  0.13410985  1
  O2-  O412  1  0.60993109  0.43578945  0.47019905  1
  O2-  O413  1  0.61082992  0.41686162  0.81238930  1
  O2-  O414  1  0.56329736  0.67250313  0.13749064  1
  O2-  O415  1  0.58880003  0.66477938  0.47021371  1
  O2-  O416  1  0.60285348  0.66252231  0.81929532  1
  O2-  O417  1  0.59419632  0.94038712  0.12093868  1
  O2-  O418  1  0.60177416  0.89935037  0.47706271  1
  O2-  O419  1  0.58254175  0.90197400  0.80877249  1
  O2-  O420  1  0.83963276  0.17435051  0.14023362  1
  O2-  O421  1  0.84410726  0.16882197  0.46649825  1
  O2-  O422  1  0.83146227  0.16955861  0.81487471  1
  O2-  O423  1  0.83737549  0.42362118  0.15027577  1
  O2-  O424  1  0.82804606  0.41561047  0.46702619  1
  O2-  O425  1  0.84891579  0.43247487  0.81817095  1
  O2-  O426  1  0.86484613  0.66602818  0.13490049  1
  O2-  O427  1  0.84680194  0.69252583  0.47467838  1
  O2-  O428  1  0.82767122  0.63125170  0.81293735  1
  O2-  O429  1  0.80165366  0.91975002  0.13267387  1
  O2-  O430  1  0.91384676  0.95350943  0.46288111  1
  O2-  O431  1  0.83976757  0.92197277  0.80789139  1
  O2-  O432  1  0.16542234  0.08089733  0.18241230  1
  O2-  O433  1  0.17831216  0.00650921  0.53226350  1
  O2-  O434  1  0.17308203  0.08988279  0.86990897  1
  O2-  O435  1  0.17057511  0.31599105  0.15713810  1
  O2-  O436  1  0.15463584  0.34313344  0.48905464  1
  O2-  O437  1  0.16592532  0.32307254  0.86613133  1
  O2-  O438  1  0.16915166  0.57628925  0.18579484  1
  O2-  O439  1  0.17177610  0.59033497  0.52238407  1
  O2-  O440  1  0.15659206  0.60817426  0.86900376  1
  O2-  O441  1  0.17880537  0.81999439  0.16711698  1
  O2-  O442  1  0.17198645  0.85156032  0.53721590  1
  O2-  O443  1  0.11118737  0.78791303  0.86944377  1
  O2-  O444  1  0.42347422  0.07142339  0.16062845  1
  O2-  O445  1  0.40870347  0.07203751  0.52070934  1
  O2-  O446  1  0.44203681  0.11629053  0.86509815  1
  O2-  O447  1  0.40927507  0.33133869  0.17169081  1
  O2-  O448  1  0.42845249  0.33722550  0.51970410  1
  O2-  O449  1  0.40100340  0.33850660  0.85983208  1
  O2-  O450  1  0.39946616  0.56335464  0.17030445  1
  O2-  O451  1  0.42367604  0.58904659  0.51778177  1
  O2-  O452  1  0.43402771  0.57778879  0.86447425  1
  O2-  O453  1  0.40947131  0.81221468  0.19147828  1
  O2-  O454  1  0.43776309  0.86339118  0.52884258  1
  O2-  O455  1  0.42025579  0.80188231  0.85420674  1
  O2-  O456  1  0.67714117  0.09197495  0.18201267  1
  O2-  O457  1  0.69553602  0.13023031  0.53222686  1
  O2-  O458  1  0.66698903  0.07310784  0.85951294  1
  O2-  O459  1  0.66988177  0.32701083  0.19382737  1
  O2-  O460  1  0.67061651  0.33524302  0.51777096  1
  O2-  O461  1  0.68945783  0.34830607  0.86090389  1
  O2-  O462  1  0.64049919  0.58115152  0.18843440  1
  O2-  O463  1  0.68817168  0.60474700  0.51348494  1
  O2-  O464  1  0.67592244  0.57791487  0.85683102  1
  O2-  O465  1  0.64426577  0.84082368  0.17721367  1
  O2-  O466  1  0.68242193  0.81825736  0.52121886  1
  O2-  O467  1  0.66878975  0.82251495  0.85163512  1
  O2-  O468  1  0.91812102  0.07870757  0.17881216  1
  O2-  O469  1  0.92913199  0.09229989  0.51931453  1
  O2-  O470  1  0.90967584  0.08358158  0.85466520  1
  O2-  O471  1  0.91599338  0.33477198  0.18237829  1
  O2-  O472  1  0.90842084  0.33433746  0.50924633  1
  O2-  O473  1  0.91899034  0.33172260  0.85353796  1
  O2-  O474  1  0.93190436  0.58171556  0.19611389  1
  O2-  O475  1  0.91142415  0.58551741  0.51481531  1
  O2-  O476  1  0.88462217  0.51620273  0.84927683  1
  O2-  O477  1  0.94297212  0.82514678  0.18185961  1
  O2-  O478  1  0.89484984  0.77746982  0.50443019  1
  O2-  O479  1  0.95014735  0.86205480  0.84648940  1
  O2-  O480  1  0.16286624  0.07888187  0.30455368  1
  O2-  O481  1  0.17319512  0.09332968  0.63152199  1
  O2-  O482  1  0.13206273  0.10296076  0.99192828  1
  O2-  O483  1  0.15268458  0.32695557  0.32256912  1
  O2-  O484  1  0.17019693  0.32684898  0.67133015  1
  O2-  O485  1  0.17039447  0.32531062  0.99019908  1
  O2-  O486  1  0.16526341  0.58345186  0.31040375  1
  O2-  O487  1  0.15469931  0.57219946  0.64745323  1
  O2-  O488  1  0.18153650  0.60060224  0.99023776  1
  O2-  O489  1  0.15907808  0.83548994  0.32168014  1
  O2-  O490  1  0.14712099  0.81434351  0.65113011  1
  O2-  O491  1  0.17907249  0.87289733  0.97527521  1
  O2-  O492  1  0.38498700  0.02958810  0.28444971  1
  O2-  O493  1  0.38467940  0.06284085  0.64663565  1
  O2-  O494  1  0.44578358  0.07112407  0.98343139  1
  O2-  O495  1  0.41260031  0.33962436  0.30311775  1
  O2-  O496  1  0.42529008  0.33699870  0.66834370  1
  O2-  O497  1  0.40767157  0.33901145  0.98605662  1
  O2-  O498  1  0.40993859  0.57810755  0.29795964  1
  O2-  O499  1  0.40144422  0.59037000  0.63830392  1
  O2-  O500  1  0.41758607  0.58064495  0.98659279  1
  O2-  O501  1  0.38281199  0.80396485  0.30499292  1
  O2-  O502  1  0.40395876  0.82640037  0.64349799  1
  O2-  O503  1  0.43605984  0.81408438  0.98417818  1
  O2-  O504  1  0.69994201  0.09218266  0.30596608  1
  O2-  O505  1  0.65910664  0.06797509  0.64576135  1
  O2-  O506  1  0.66506764  0.06634753  0.99092302  1
  O2-  O507  1  0.66942995  0.33640354  0.31425428  1
  O2-  O508  1  0.73384413  0.31195726  0.63220448  1
  O2-  O509  1  0.66140168  0.34273440  0.97386468  1
  O2-  O510  1  0.65790636  0.58404187  0.30719594  1
  O2-  O511  1  0.68183002  0.58321658  0.64131131  1
  O2-  O512  1  0.66926465  0.58444898  0.98308297  1
  O2-  O513  1  0.65068945  0.83228907  0.29606044  1
  O2-  O514  1  0.68070252  0.91379149  0.65459600  1
  O2-  O515  1  0.66090200  0.82241230  0.96468765  1
  O2-  O516  1  0.91608630  0.07580729  0.30169221  1
  O2-  O517  1  0.91932308  0.09670701  0.64148334  1
  O2-  O518  1  0.91282761  0.07780460  0.97721897  1
  O2-  O519  1  0.91441819  0.31672918  0.30242520  1
  O2-  O520  1  0.92128899  0.37473217  0.63034743  1
  O2-  O521  1  0.90920925  0.33074025  0.98177004  1
  O2-  O522  1  0.90129680  0.57941956  0.31651754  1
  O2-  O523  1  0.91859990  0.55224822  0.63589327  1
  O2-  O524  1  1.01400756  0.55994095  1.00392416  1
  O2-  O525  1  0.91533613  0.83091178  0.30438984  1
  O2-  O526  1  0.95380542  0.78515866  0.62763342  1
  O2-  O527  1  0.90363749  0.82545235  0.97619244  1
  O2-  O528  1  0.08432500  0.14553792  0.01293936  1
  O2-  O529  1  0.07571881  0.15978223  0.34636770  1
  O2-  O530  1  0.07487291  0.15804849  0.70553139  1
  O2-  O531  1  0.08632632  0.41273782  0.01865567  1
  O2-  O532  1  0.07156890  0.41925412  0.34977324  1
  O2-  O533  1  0.07489940  0.40260269  0.68329958  1
  O2-  O534  1  0.08237075  0.64391684  0.02615551  1
  O2-  O535  1  0.08053852  0.66724695  0.31704200  1
  O2-  O536  1  0.07558601  0.65823427  0.68590817  1
  O2-  O537  1  0.06801542  0.92638843  0.02258263  1
  O2-  O538  1  0.07681421  0.91271188  0.34717489  1
  O2-  O539  1  0.00588723  0.93546979  0.68410880  1
  O2-  O540  1  0.29899642  0.17484920  0.02508775  1
  O2-  O541  1  0.32833026  0.17333062  0.35291203  1
  O2-  O542  1  0.32922023  0.16224200  0.69589720  1
  O2-  O543  1  0.32922635  0.41860090  0.03893308  1
  O2-  O544  1  0.32595387  0.41553353  0.34829701  1
  O2-  O545  1  0.34524097  0.43341294  0.70102746  1
  O2-  O546  1  0.33653190  0.66385626  0.02550702  1
  O2-  O547  1  0.32657843  0.64998125  0.35324066  1
  O2-  O548  1  0.31544923  0.66047694  0.69004703  1
  O2-  O549  1  0.34803938  0.89955595  0.01228871  1
  O2-  O550  1  0.30785651  0.88923548  0.35997720  1
  O2-  O551  1  0.30341312  0.89730576  0.68569591  1
  O2-  O552  1  0.61675604  0.20197467  0.01982504  1
  O2-  O553  1  0.66040716  0.19074519  0.37134027  1
  O2-  O554  1  0.61059562  0.18094524  0.69363777  1
  O2-  O555  1  0.57272511  0.41352961  0.01216432  1
  O2-  O556  1  0.58274856  0.41796695  0.34641427  1
  O2-  O557  1  0.59486783  0.42387408  0.68321700  1
  O2-  O558  1  0.58545930  0.67237466  0.01599122  1
  O2-  O559  1  0.57175052  0.66694878  0.34544646  1
  O2-  O560  1  0.65895076  0.70581008  0.70191424  1
  O2-  O561  1  0.63662236  0.93643679  0.06476388  1
  O2-  O562  1  0.51322175  0.93826013  0.37879292  1
  O2-  O563  1  0.53365223  0.73070151  0.67539189  1
  O2-  O564  1  0.83687788  0.16978303  0.02168377  1
  O2-  O565  1  0.84809247  0.16999114  0.33973324  1
  O2-  O566  1  0.83232844  0.16455331  0.68928095  1
  O2-  O567  1  0.84783571  0.48772836  0.03543099  1
  O2-  O568  1  0.82010420  0.41842045  0.35206827  1
  O2-  O569  1  0.78539873  0.44084004  0.70504086  1
  O2-  O570  1  0.83200918  0.64509460  0.01909216  1
  O2-  O571  1  0.82441492  0.67247719  0.35109647  1
  O2-  O572  1  0.83984176  0.64899817  0.68663427  1
  O2-  O573  1  0.81487059  0.90549412  0.00858399  1
  O2-  O574  1  0.82656272  0.90524486  0.34580155  1
  O2-  O575  1  0.84323842  0.93180658  0.68493771  1
