# generated using pymatgen
data_H2O
_symmetry_space_group_name_H-M   'P 1'
_cell_length_a   17.99048640
_cell_length_b   17.98478372
_cell_length_c   22.00472826
_cell_angle_alpha   90.01333996
_cell_angle_beta   89.97545815
_cell_angle_gamma   120.00887933
_symmetry_Int_Tables_number   1
_chemical_formula_structural   H2O
_chemical_formula_sum   'H384 O192'
_cell_volume   6165.32338652
_cell_formula_units_Z   192
loop_
 _symmetry_equiv_pos_site_id
 _symmetry_equiv_pos_as_xyz
  1  'x, y, z'
loop_
 _atom_type_symbol
 _atom_type_oxidation_number
  H+  1.0
  O2-  -2.0
loop_
 _atom_site_type_symbol
 _atom_site_label
 _atom_site_symmetry_multiplicity
 _atom_site_fract_x
 _atom_site_fract_y
 _atom_site_fract_z
 _atom_site_occupancy
  H+  H0  1  0.70617672  0.87328346  0.62177202  1
  H+  H1  1  0.91693648  0.59742768  0.90910654  1
  H+  H2  1  0.47265363  0.34876731  0.32710662  1
  H+  H3  1  0.36130933  0.63196639  0.83443698  1
  H+  H4  1  0.35221725  0.10585892  1.00407772  1
  H+  H5  1  0.39294010  0.02266001  0.31890583  1
  H+  H6  1  0.71925019  0.60849804  0.32870212  1
  H+  H7  1  0.88451441  0.00948395  0.65439331  1
  H+  H8  1  0.07594791  0.17078294  0.77905580  1
  H+  H9  1  0.62480741  0.73195009  0.15222120  1
  H+  H10  1  0.86018202  0.47795765  0.68676306  1
  H+  H11  1  0.14346647  0.10975808  0.32216288  1
  H+  H12  1  0.97171969  0.37294434  0.84912870  1
  H+  H13  1  0.38502085  0.41717653  0.51404817  1
  H+  H14  1  0.85810352  0.10698638  0.49608571  1
  H+  H15  1  0.23040163  0.86741897  -0.00679686  1
  H+  H16  1  0.29440630  0.13572497  0.67701694  1
  H+  H17  1  0.15987380  0.35166742  0.12311944  1
  H+  H18  1  0.38740770  0.25882439  0.33562257  1
  H+  H19  1  0.60993779  -0.02769350  0.82953150  1
  H+  H20  1  0.78952478  0.64802891  0.00378001  1
  H+  H21  1  -0.02231853  0.34276495  0.47198659  1
  H+  H22  1  0.24502514  0.86228924  0.16352938  1
  H+  H23  1  0.34122293  0.38558128  0.17924542  1
  H+  H24  1  0.13664831  0.62093410  -0.00883021  1
  H+  H25  1  0.01916216  0.65985236  0.82643584  1
  H+  H26  1  0.13481723  0.70820283  0.15271079  1
  H+  H27  1  0.52053918  0.88957394  0.48147611  1
  H+  H28  1  0.18400282  0.82277058  0.25548113  1
  H+  H29  1  0.14166183  0.28890969  0.84797348  1
  H+  H30  1  0.13242227  0.78609976  0.83495089  1
  H+  H31  1  0.53545277  0.39087200  0.67631332  1
  H+  H32  1  0.88025825  0.85101083  0.66687477  1
  H+  H33  1  0.88196255  0.09737091  0.65994880  1
  H+  H34  1  0.61650373  0.86939906  0.48148605  1
  H+  H35  1  0.37018092  0.11348833  0.84481482  1
  H+  H36  1  0.60016126  0.73347585  0.99752530  1
  H+  H37  1  0.11164073  0.14713586  0.83776593  1
  H+  H38  1  0.87654842  0.13493506  0.02236259  1
  H+  H39  1  0.36581166  0.49571807  0.51770047  1
  H+  H40  1  0.48988763  0.62504063  0.17346436  1
  H+  H41  1  0.12468653  0.40051667  0.16472762  1
  H+  H42  1  0.63530546  1.02703455  0.32813781  1
  H+  H43  1  0.10948438  0.21591835  0.31732996  1
  H+  H44  1  0.13871178  0.23271756  0.47948047  1
  H+  H45  1  0.63415551  0.54006789  0.99177240  1
  H+  H46  1  0.51250043  0.62954010  0.33720650  1
  H+  H47  1  0.59887147  0.88432209  0.66914519  1
  H+  H48  1  0.39373538  0.77604380  0.17415592  1
  H+  H49  1  0.88643792  0.59890006  0.66229106  1
  H+  H50  1  0.34002941  0.21300247  1.01770210  1
  H+  H51  1  0.86977883  0.13845635  0.16894110  1
  H+  H52  1  0.64938234  0.52773557  0.65832303  1
  H+  H53  1  0.74359575  0.60935471  0.65544690  1
  H+  H54  1  0.62362623  0.22856365  0.49928339  1
  H+  H55  1  0.59543626  0.37837522  0.17351181  1
  H+  H56  1  0.47192031  0.85811439  0.32805961  1
  H+  H57  1  0.31208408  0.18842523  0.42867037  1
  H+  H58  1  0.45381608  0.09590740  0.23056872  1
  H+  H59  1  0.20825604  0.17163839  0.65214277  1
  H+  H60  1  1.01542272  0.63902476  0.48652212  1
  H+  H61  1  0.14034363  0.79522030  0.72059185  1
  H+  H62  1  0.27833999  0.88715233  0.48576716  1
  H+  H63  1  0.23369009  0.61482047  0.66728121  1
  H+  H64  1  0.89649949  0.29263191  0.18325185  1
  H+  H65  1  0.26711109  0.63568070  0.48388596  1
  H+  H66  1  0.08941146  0.41509259  0.58236062  1
  H+  H67  1  0.01546525  0.87766318  0.50013151  1
  H+  H68  1  0.67637112  0.32324476  0.99630054  1
  H+  H69  1  0.26843892  0.63914670  0.00729538  1
  H+  H70  1  0.60342606  0.22193932  0.86660146  1
  H+  H71  1  0.13594826  0.03495501  0.84423775  1
  H+  H72  1  0.38414329  0.52766059  -0.00456937  1
  H+  H73  1  0.01713094  0.71779486  0.45297119  1
  H+  H74  1  0.42262722  0.59408243  0.26569313  1
  H+  H75  1  0.16356887  0.03070024  0.14989882  1
  H+  H76  1  0.09474000  0.41166678  0.39668579  1
  H+  H77  1  0.60686223  0.64231084  0.49218261  1
  H+  H78  1  0.64954873  0.53458472  0.49835327  1
  H+  H79  1  0.11292329  0.98437063  0.68330176  1
  H+  H80  1  0.34292266  0.42688802  0.59720687  1
  H+  H81  1  0.10283261  0.61991977  0.33026041  1
  H+  H82  1  0.97925120  0.12263024  0.84722363  1
  H+  H83  1  0.60350525  0.46818545  0.16176368  1
  H+  H84  1  0.34287191  0.26304900  0.47806510  1
  H+  H85  1  0.62051874  0.14702431  0.34117245  1
  H+  H86  1  0.22320598  0.86637629  0.68694562  1
  H+  H87  1  0.86899688  1.01007636  0.49968898  1
  H+  H88  1  0.75475865  0.80092074  0.70720668  1
  H+  H89  1  0.97546678  0.86667853  0.66457766  1
  H+  H90  1  0.13097616  0.26311826  0.66945979  1
  H+  H91  1  0.88256870  0.28420917  0.83991674  1
  H+  H92  1  0.62471541  0.73137434  0.82118532  1
  H+  H93  1  0.60236791  0.72980116  0.48220055  1
  H+  H94  1  0.53070282  0.88423579  0.17808735  1
  H+  H95  1  0.92070263  0.31415617  0.41273161  1
  H+  H96  1  0.88409277  0.53434413  0.85102441  1
  H+  H97  1  0.97535816  0.85845113  0.99988445  1
  H+  H98  1  0.86381011  0.73040725  0.83020802  1
  H+  H99  1  0.32057034  0.09570293  0.38981612  1
  H+  H100  1  0.74692419  0.88256041  -0.00671916  1
  H+  H101  1  0.86802553  0.87705243  0.00711794  1
  H+  H102  1  0.74659681  0.37169873  0.50243812  1
  H+  H103  1  0.71141092  0.35143001  0.17859252  1
  H+  H104  1  0.45517474  0.35154418  1.00160766  1
  H+  H105  1  0.27831079  0.88149391  0.33073263  1
  H+  H106  1  0.84094072  0.66548672  0.73363980  1
  H+  H107  1  0.48295307  0.85208010  0.83796780  1
  H+  H108  1  0.11909944  0.22956238  0.16760136  1
  H+  H109  1  0.14686593  0.55496168  0.26163218  1
  H+  H110  1  0.21255623  0.10827329  0.99858808  1
  H+  H111  1  0.75663151  0.65839999  0.47925135  1
  H+  H112  1  0.60925559  0.47116253  0.33582506  1
  H+  H113  1  0.36274920  0.98006421  0.48274527  1
  H+  H114  1  0.35409446  0.99237145  0.83385977  1
  H+  H115  1  0.90905840  0.83364554  0.56926285  1
  H+  H116  1  0.63908641  0.69601242  0.73418970  1
  H+  H117  1  0.38169736  0.61705238  0.99984568  1
  H+  H118  1  -0.03008078  0.09971158  0.34417567  1
  H+  H119  1  0.89185261  0.85586076  0.32720004  1
  H+  H120  1  0.53236507  0.14525309  0.34099382  1
  H+  H121  1  0.51627525  0.13259468  0.86207733  1
  H+  H122  1  0.11225219  0.57206230  0.16109712  1
  H+  H123  1  0.13542193  0.53170216  0.99411298  1
  H+  H124  1  0.75060418  0.13936826  0.82283282  1
  H+  H125  1  0.10816227  -0.02362865  1.00759761  1
  H+  H126  1  0.13835807  0.35297835  0.64993232  1
  H+  H127  1  0.98313694  0.11398434  1.00262627  1
  H+  H128  1  0.72799291  0.11199164  0.31439897  1
  H+  H129  1  0.12148381  0.47330392  0.49735240  1
  H+  H130  1  0.40600014  0.83690695  0.60241908  1
  H+  H131  1  0.67275038  0.12387395  0.99186355  1
  H+  H132  1  0.64510918  0.74039109  0.32246933  1
  H+  H133  1  0.19610258  0.19673301  0.45489964  1
  H+  H134  1  0.64540651  0.27769651  0.64656176  1
  H+  H135  1  0.60828757  0.89458043  0.33729993  1
  H+  H136  1  0.07894804  0.57870102  0.53486177  1
  H+  H137  1  0.86780278  0.22222522  0.31017534  1
  H+  H138  1  0.52249618  0.40626718  0.50643841  1
  H+  H139  1  0.60348396  0.97274711  0.00863783  1
  H+  H140  1  0.64803225  0.78136737  0.65016187  1
  H+  H141  1  0.36002606  0.38511899  0.32770178  1
  H+  H142  1  0.73472823  0.10552978  0.65226301  1
  H+  H143  1  0.48154108  0.10572309  0.63786154  1
  H+  H144  1  0.75701965  0.88472893  0.48321871  1
  H+  H145  1  0.54344556  0.18128561  1.04592849  1
  H+  H146  1  0.86785798  0.96616970  0.34838842  1
  H+  H147  1  0.77927861  0.14185159  0.16956167  1
  H+  H148  1  0.26996025  0.39672345  0.00434891  1
  H+  H149  1  0.86052259  0.64099585  0.83185803  1
  H+  H150  1  0.89961058  0.87158323  0.17671738  1
  H+  H151  1  0.10263805  -0.03377585  0.50166655  1
  H+  H152  1  0.58785927  0.17002853  0.58129867  1
  H+  H153  1  0.87039808  0.40146871  0.01665371  1
  H+  H154  1  0.39256842  0.11113693  0.31431075  1
  H+  H155  1  0.86244302  0.39045486  0.33976756  1
  H+  H156  1  0.89042079  0.63462159  0.99819180  1
  H+  H157  1  0.38442640  0.38135486  0.85169299  1
  H+  H158  1  0.73264344  0.86689405  0.84211788  1
  H+  H159  1  0.66426497  0.40673534  0.00730651  1
  H+  H160  1  0.25638762  0.11405073  0.34562646  1
  H+  H161  1  0.10383418  0.71083692  0.64975248  1
  H+  H162  1  0.85003262  0.38798385  0.83666928  1
  H+  H163  1  0.72615012  0.61587080  0.83855618  1
  H+  H164  1  0.79471958  0.42146202  0.01210559  1
  H+  H165  1  0.87596811  0.21363534  0.66887474  1
  H+  H166  1  0.13778137  0.87940231  0.83984836  1
  H+  H167  1  0.53805408  0.13646341  0.04394345  1
  H+  H168  1  0.12330752  0.38307533  0.50341302  1
  H+  H169  1  0.35712374  0.72724887  1.00452177  1
  H+  H170  1  0.10160110  0.48787863  0.83475923  1
  H+  H171  1  0.09750095  0.12372592  0.68655106  1
  H+  H172  1  0.12972458  0.14774804  0.15421412  1
  H+  H173  1  0.37993750  0.22717983  0.67576627  1
  H+  H174  1  0.59379874  0.88150456  0.01491676  1
  H+  H175  1  0.46565606  0.11325355  0.49706159  1
  H+  H176  1  0.37253016  0.23321321  0.83867248  1
  H+  H177  1  1.01070225  0.12438066  0.67903010  1
  H+  H178  1  0.23161894  0.36326663  0.51664711  1
  H+  H179  1  0.10760364  0.40130151  0.02028436  1
  H+  H180  1  0.04336480  0.89516007  0.16339390  1
  H+  H181  1  0.14741004  0.86901595  0.50561259  1
  H+  H182  1  0.61925283  0.97387578  0.17575767  1
  H+  H183  1  0.78209244  0.89096533  0.15983119  1
  H+  H184  1  0.81926092  0.41811822  0.75511575  1
  H+  H185  1  0.61180121  0.48279004  0.82657529  1
  H+  H186  1  0.38199991  0.88785000  0.16023377  1
  H+  H187  1  0.65809883  0.51028677  0.07019662  1
  H+  H188  1  0.84310407  0.42451085  0.42854676  1
  H+  H189  1  0.87356151  0.26411529  0.99986283  1
  H+  H190  1  0.88964948  1.02725611  0.16932028  1
  H+  H191  1  0.78635851  0.86829282  0.33755177  1
  H+  H192  1  0.41726401  0.82598356  0.89850533  1
  H+  H193  1  0.61985123  0.26443192  0.18920726  1
  H+  H194  1  0.14745285  0.76123749  0.31299937  1
  H+  H195  1  0.36759417  0.64724784  0.68080926  1
  H+  H196  1  0.64363427  0.36595812  0.66297099  1
  H+  H197  1  0.38739415  0.87212672  0.50517089  1
  H+  H198  1  0.98506082  0.35289280  0.64215575  1
  H+  H199  1  0.88758949  0.11636532  0.84830784  1
  H+  H200  1  0.39447097  0.54346839  0.65718338  1
  H+  H201  1  0.38677064  0.52664770  0.85039616  1
  H+  H202  1  -0.01851059  0.36689467  0.32958386  1
  H+  H203  1  0.87364136  0.73888916  0.33081567  1
  H+  H204  1  0.21762716  0.60270399  0.31571717  1
  H+  H205  1  0.39900870  0.11077300  0.65739881  1
  H+  H206  1  0.46734902  0.86667407  0.66078347  1
  H+  H207  1  0.62373796  0.14105316  0.63629749  1
  H+  H208  1  0.27415670  0.38561399  0.31643101  1
  H+  H209  1  0.35938867  0.73238849  0.67964203  1
  H+  H210  1  0.11113635  0.13916896  0.00952003  1
  H+  H211  1  0.11669332  0.89145384  1.00637851  1
  H+  H212  1  0.11534856  0.47307974  0.33841780  1
  H+  H213  1  0.88144818  0.09479259  0.32888733  1
  H+  H214  1  0.90000841  0.54665352  1.00064596  1
  H+  H215  1  0.84571703  0.16522099  0.25200510  1
  H+  H216  1  0.38126661  0.78101191  0.50608819  1
  H+  H217  1  0.16588256  0.66247846  0.52375893  1
  H+  H218  1  0.76396273  0.38438934  0.68525080  1
  H+  H219  1  0.16210146  0.31313550  0.56718432  1
  H+  H220  1  0.29506673  0.14716595  0.07815279  1
  H+  H221  1  0.74021444  0.62080261  0.14011633  1
  H+  H222  1  0.02319463  0.89353027  0.83989944  1
  H+  H223  1  0.63056657  0.37068837  0.84371692  1
  H+  H224  1  0.09178191  0.91486673  0.09991621  1
  H+  H225  1  0.21838208  0.62485660  0.84108554  1
  H+  H226  1  0.70631035  0.93440487  0.96589490  1
  H+  H227  1  0.64779153  0.61368221  0.13557345  1
  H+  H228  1  0.63738018  0.40049039  0.48449860  1
  H+  H229  1  0.46914666  0.86359818  -0.01331817  1
  H+  H230  1  0.90044592  0.78329071  0.17067958  1
  H+  H231  1  0.35419988  0.38889489  0.99961610  1
  H+  H232  1  0.36107113  0.88772279  0.68120711  1
  H+  H233  1  0.25977171  0.89436906  0.82682633  1
  H+  H234  1  0.22597458  0.12458494  0.84462092  1
  H+  H235  1  0.38306512  0.62463893  0.50103949  1
  H+  H236  1  0.77214499  0.89529904  0.71085150  1
  H+  H237  1  0.37744335  0.65085972  0.16309342  1
  H+  H238  1  0.86777785  0.63895650  0.34135428  1
  H+  H239  1  0.38392079  0.74826073  0.83698513  1
  H+  H240  1  0.36774097  -0.02036623  0.67576934  1
  H+  H241  1  0.92036418  0.82795147  0.26334824  1
  H+  H242  1  0.39961928  0.53634264  0.18020076  1
  H+  H243  1  0.63151800  0.62656110  0.98652004  1
  H+  H244  1  0.23391801  0.37121154  0.85424631  1
  H+  H245  1  0.28002581  0.42240581  0.16777886  1
  H+  H246  1  0.33358540  0.92974688  0.76847394  1
  H+  H247  1  0.14315518  0.78283146  0.49244032  1
  H+  H248  1  0.97817153  0.11578798  0.17278461  1
  H+  H249  1  0.92913802  0.49969360  0.51041424  1
  H+  H250  1  0.35398010  0.97407847  0.00914249  1
  H+  H251  1  0.85135905  0.59685920  0.52026262  1
  H+  H252  1  0.40786289  0.58822765  0.90726515  1
  H+  H253  1  0.31042323  0.23709073  0.18420892  1
  H+  H254  1  0.37987551  0.86252786  -0.01615931  1
  H+  H255  1  0.85022811  0.38612880  0.16952145  1
  H+  H256  1  0.89284750  0.63414310  0.50915893  1
  H+  H257  1  0.86988745  0.37418164  0.47337781  1
  H+  H258  1  0.58640965  0.42054142  0.08101726  1
  H+  H259  1  0.62817802  0.60293565  0.33179801  1
  H+  H260  1  0.21368341  0.10352847  0.51733361  1
  H+  H261  1  0.62913637  0.10489990  0.86216942  1
  H+  H262  1  0.67026177  0.66597432  0.67281943  1
  H+  H263  1  0.62283677  0.64184647  0.81993673  1
  H+  H264  1  0.63970122  0.27524728  0.33520306  1
  H+  H265  1  0.35264570  0.71934390  0.33521490  1
  H+  H266  1  0.02536202  0.64756294  0.00210542  1
  H+  H267  1  0.61460955  0.13434112  0.49851972  1
  H+  H268  1  0.87347328  0.72189068  0.67308890  1
  H+  H269  1  0.13179638  0.35407343  0.30997308  1
  H+  H270  1  0.15975361  0.59803608  0.89967601  1
  H+  H271  1  0.15456814  0.85799164  0.16377656  1
  H+  H272  1  0.28315432  0.38653689  0.65345612  1
  H+  H273  1  0.86846818  0.64921127  0.15499558  1
  H+  H274  1  0.66811149  0.33462734  0.27511673  1
  H+  H275  1  0.62702323  0.10532502  0.17874303  1
  H+  H276  1  0.97315696  0.59451603  0.66275271  1
  H+  H277  1  0.88618154  0.76115561  0.99964065  1
  H+  H278  1  0.38329706  0.52399032  0.31974953  1
  H+  H279  1  0.87110455  0.97848441  0.83400645  1
  H+  H280  1  0.12243040  0.47426978  0.64111301  1
  H+  H281  1  0.64473947  0.86506327  0.17806390  1
  H+  H282  1  0.89470722  0.86383072  0.85615834  1
  H+  H283  1  0.76018677  0.26336777  -0.00368314  1
  H+  H284  1  1.02672644  0.88511023  0.34279393  1
  H+  H285  1  0.86450826  0.52173325  0.17437296  1
  H+  H286  1  0.11765609  0.73337503  1.00292295  1
  H+  H287  1  0.39756049  0.36406523  0.65392607  1
  H+  H288  1  0.59830096  0.42310790  0.42438353  1
  H+  H289  1  0.58341607  0.67580525  0.09252866  1
  H+  H290  1  0.10599657  0.65835954  0.82458458  1
  H+  H291  1  0.50508560  0.45827700  0.55530700  1
  H+  H292  1  0.84309273  0.91750505  0.10172974  1
  H+  H293  1  0.09843709  0.65630348  0.09148429  1
  H+  H294  1  0.88431697  0.31790591  0.93793883  1
  H+  H295  1  0.66287822  0.58834304  0.89659290  1
  H+  H296  1  0.91806858  0.34465652  0.27334547  1
  H+  H297  1  0.89155490  0.32745875  0.61941881  1
  H+  H298  1  0.11332973  0.62903541  0.66558318  1
  H+  H299  1  0.15816865  0.33533661  0.24582448  1
  H+  H300  1  0.61690219  0.88693558  0.82544547  1
  H+  H301  1  0.38882915  0.98011811  0.15676980  1
  H+  H302  1  0.83030299  0.15548258  0.72696144  1
  H+  H303  1  0.70296127  0.23572687  0.05503944  1
  H+  H304  1  0.92316569  0.82802911  0.91266955  1
  H+  H305  1  0.66814226  0.36049144  0.90782986  1
  H+  H306  1  0.08589275  0.17213713  0.06990645  1
  H+  H307  1  0.13720442  1.01818228  0.33458874  1
  H+  H308  1  0.59480229  0.42368667  0.73480181  1
  H+  H309  1  0.87921470  0.52565698  0.32847821  1
  H+  H310  1  0.85145017  0.68512571  0.09151173  1
  H+  H311  1  0.07652328  0.92690371  0.77714352  1
  H+  H312  1  0.63931394  0.82878497  0.54078558  1
  H+  H313  1  0.32427929  0.66424871  0.42391168  1
  H+  H314  1  0.63995420  0.02333624  0.65682823  1
  H+  H315  1  0.57801444  0.91700390  0.73128876  1
  H+  H316  1  0.62594652  1.00596590  0.49011474  1
  H+  H317  1  0.33951732  0.67603160  0.10618741  1
  H+  H318  1  0.61399639  0.38372804  0.33819519  1
  H+  H319  1  0.67911907  0.82217865  0.22701557  1
  H+  H320  1  0.33714141  0.91892875  0.39161697  1
  H+  H321  1  0.84866444  0.74795194  0.48385113  1
  H+  H322  1  0.59953772  0.15028950  0.76655026  1
  H+  H323  1  0.41484567  0.83188134  0.23592122  1
  H+  H324  1  0.44496042  0.34073701  0.60535068  1
  H+  H325  1  0.54585390  0.15188872  0.12646430  1
  H+  H326  1  0.42115203  0.61138550  0.60573865  1
  H+  H327  1  0.35736757  0.40604951  0.79139718  1
  H+  H328  1  0.33816638  0.17392667  0.77629277  1
  H+  H329  1  0.77092179  0.38778950  0.34140223  1
  H+  H330  1  0.15868651  0.34371069  0.94418417  1
  H+  H331  1  0.67648764  0.59052054  0.56030625  1
  H+  H332  1  0.40808515  0.31919401  0.93773776  1
  H+  H333  1  0.15780635  0.08554737  0.93663167  1
  H+  H334  1  0.47606298  0.30130711  0.88325185  1
  H+  H335  1  0.68754797  0.35102407  0.56122718  1
  H+  H336  1  0.07798090  0.91375515  0.40540926  1
  H+  H337  1  0.33983107  0.91281204  0.06575773  1
  H+  H338  1  -0.02903446  0.61162548  0.32228974  1
  H+  H339  1  0.16624217  0.09530468  0.60473123  1
  H+  H340  1  0.90043447  0.06986423  0.56095189  1
  H+  H341  1  0.89816873  0.58269922  0.23146691  1
  H+  H342  1  0.38594816  0.07485243  0.90699901  1
  H+  H343  1  0.88128213  0.86905835  0.51086627  1
  H+  H344  1  0.52398085  0.38948627  0.82687811  1
  H+  H345  1  0.66519676  0.06575476  0.55211757  1
  H+  H346  1  0.75802788  0.38665176  0.83775287  1
  H+  H347  1  0.67790715  0.07308807  0.90512166  1
  H+  H348  1  0.75695205  0.11161056  0.48639904  1
  H+  H349  1  0.10196683  0.17251351  0.38188897  1
  H+  H350  1  0.12961161  0.10452376  0.51082607  1
  H+  H351  1  0.10953182  0.40430846  0.83880792  1
  H+  H352  1  0.74379041  0.10139251  1.00377556  1
  H+  H353  1  0.94941390  0.55159394  0.57329665  1
  H+  H354  1  0.85260954  0.20142200  0.47259031  1
  H+  H355  1  0.66364060  0.08443878  0.23701579  1
  H+  H356  1  0.72192424  0.75478509  0.28156477  1
  H+  H357  1  0.44324659  0.11062167  0.99760808  1
  H+  H358  1  0.97829716  0.39041112  0.18476059  1
  H+  H359  1  0.84092880  0.90162099  0.78442616  1
  H+  H360  1  0.36014636  0.29538196  0.24145818  1
  H+  H361  1  0.87500229  0.97116433  0.00865191  1
  H+  H362  1  0.51257037  0.64265835  0.00131224  1
  H+  H363  1  0.47238379  0.62407403  0.50493559  1
  H+  H364  1  0.92087868  0.08467188  0.94438064  1
  H+  H365  1  0.58821133  0.13662659  0.73396521  1
  H+  H366  1  0.38484514  0.86107335  0.32721112  1
  H+  H367  1  0.07451840  0.66212267  0.38449583  1
  H+  H368  1  0.57000938  0.65748201  0.39878692  1
  H+  H369  1  0.35492452  0.63124585  0.33432765  1
  H+  H370  1  0.82922835  0.90943154  0.43177036  1
  H+  H371  1  0.67070350  0.84028402  0.89789222  1
  H+  H372  1  0.84625445  0.16892060  0.08050632  1
  H+  H373  1  0.17207360  0.84364977  0.93297379  1
  H+  H374  1  0.82548211  0.41645487  0.10792446  1
  H+  H375  1  0.33606813  0.66970479  0.77275166  1
  H+  H376  1  0.82980106  0.68322011  0.39936074  1
  H+  H377  1  0.08119851  0.44254565  0.07481479  1
  H+  H378  1  0.57645575  0.91947298  0.40101676  1
  H+  H379  1  0.17554238  0.59618950  0.60681921  1
  H+  H380  1  0.13043172  0.28000118  1.00086669  1
  H+  H381  1  0.40081902  0.07924618  0.55033297  1
  H+  H382  1  0.77575606  0.21489304  0.77754314  1
  H+  H383  1  0.11141004  0.89490822  0.68917860  1
  O2-  O384  1  0.09078019  0.17229081  0.14929868  1
  O2-  O385  1  0.13486097  0.18150083  0.45897739  1
  O2-  O386  1  0.07933686  0.17654789  0.82409239  1
  O2-  O387  1  0.07177734  0.44405351  0.15834603  1
  O2-  O388  1  0.08660872  0.41059916  0.49577543  1
  O2-  O389  1  0.07088108  0.42531306  0.82553457  1
  O2-  O390  1  0.10719627  0.64986018  0.13537141  1
  O2-  O391  1  0.04948292  0.68800005  0.45807402  1
  O2-  O392  1  0.07879528  0.69180988  0.81037891  1
  O2-  O393  1  0.10139514  0.91949044  0.14513738  1
  O2-  O394  1  0.07627048  0.90686487  0.48576886  1
  O2-  O395  1  0.08306142  0.92935271  0.82213983  1
  O2-  O396  1  0.27542466  0.13920174  0.14119168  1
  O2-  O397  1  0.29679028  0.20531377  0.46854597  1
  O2-  O398  1  0.33110639  0.17101931  0.82099239  1
  O2-  O399  1  0.34040915  0.43772694  0.16440269  1
  O2-  O400  1  0.33901681  0.43093665  0.52182500  1
  O2-  O401  1  0.35237225  0.40859535  0.83532957  1
  O2-  O402  1  0.34715083  0.68206487  0.15075631  1
  O2-  O403  1  0.32647175  0.66834555  0.47003124  1
  O2-  O404  1  0.33669995  0.67037918  0.81874442  1
  O2-  O405  1  0.35493220  0.92073296  0.14147465  1
  O2-  O406  1  0.33917331  0.91846994  0.47023142  1
  O2-  O407  1  0.32498267  0.92959348  0.81484823  1
  O2-  O408  1  0.55039247  0.14702194  0.17074907  1
  O2-  O409  1  0.58436152  0.16682389  0.50754292  1
  O2-  O410  1  0.57797880  0.15910879  0.87139305  1
  O2-  O411  1  0.56450253  0.40580895  0.15589211  1
  O2-  O412  1  0.60785052  0.43183029  0.47020910  1
  O2-  O413  1  0.58419666  0.42237118  0.81005115  1
  O2-  O414  1  0.59085544  0.67150041  0.13699036  1
  O2-  O415  1  0.57140209  0.66549342  0.47507910  1
  O2-  O416  1  0.60319820  0.67746770  0.79780545  1
  O2-  O417  1  0.59332781  0.91148096  0.16888095  1
  O2-  O418  1  0.57926860  0.91847384  0.46473173  1
  O2-  O419  1  0.58170777  0.91312782  0.81171859  1
  O2-  O420  1  0.84242225  0.17638599  0.16238023  1
  O2-  O421  1  0.82063150  0.13750700  0.47316503  1
  O2-  O422  1  0.80029843  0.18316825  0.79690750  1
  O2-  O423  1  0.81215133  0.40647055  0.15241364  1
  O2-  O424  1  0.85029465  0.41699638  0.47357421  1
  O2-  O425  1  0.81874353  0.41709153  0.82070313  1
  O2-  O426  1  0.84814396  0.68796939  0.13796675  1
  O2-  O427  1  0.80920176  0.70025051  0.45620222  1
  O2-  O428  1  0.83244955  0.67140659  0.81223976  1
  O2-  O429  1  0.84406622  0.92183928  0.14697840  1
  O2-  O430  1  0.82099697  0.91317569  0.47681206  1
  O2-  O431  1  0.84136556  0.91511831  0.82827026  1
  O2-  O432  1  0.18256769  0.09313152  0.14388208  1
  O2-  O433  1  0.15449243  0.07344285  0.53333438  1
  O2-  O434  1  0.16479335  0.09591310  0.85878324  1
  O2-  O435  1  0.15651590  0.36487586  0.16564500  1
  O2-  O436  1  0.16807298  0.32612796  0.52253472  1
  O2-  O437  1  0.17262309  0.34864251  0.86375276  1
  O2-  O438  1  0.12211043  0.52945085  0.18639635  1
  O2-  O439  1  0.14281243  0.60151100  0.53215005  1
  O2-  O440  1  0.15817265  0.60130159  0.85392323  1
  O2-  O441  1  0.18406101  0.82619924  0.17624468  1
  O2-  O442  1  0.17893972  0.83771956  0.51349222  1
  O2-  O443  1  0.16993206  0.84838381  0.84976640  1
  O2-  O444  1  0.45757793  0.09454605  0.18456847  1
  O2-  O445  1  0.40327960  0.08280988  0.50547551  1
  O2-  O446  1  0.39371195  0.07626086  0.86166252  1
  O2-  O447  1  0.32287357  0.28968728  0.20690709  1
  O2-  O448  1  0.47548409  0.40277534  0.53463129  1
  O2-  O449  1  0.43462326  0.31645608  0.86745853  1
  O2-  O450  1  0.43150652  0.59964422  0.19183214  1
  O2-  O451  1  0.41302300  0.59803594  0.52251125  1
  O2-  O452  1  0.40338086  0.58586728  0.86172147  1
  O2-  O453  1  0.42300818  0.83756939  0.19086490  1
  O2-  O454  1  0.41245373  0.83862761  0.52463674  1
  O2-  O455  1  0.42123187  0.81862098  0.85225872  1
  O2-  O456  1  0.66801650  0.08691634  0.19110303  1
  O2-  O457  1  0.66356031  0.06971191  0.50723720  1
  O2-  O458  1  0.66464025  0.07542070  0.86122886  1
  O2-  O459  1  0.65394157  0.32590817  0.19938259  1
  O2-  O460  1  0.68575142  0.34609579  0.51635028  1
  O2-  O461  1  0.65982020  0.34205558  0.86409457  1
  O2-  O462  1  0.67745679  0.57960256  0.13344186  1
  O2-  O463  1  0.66753184  0.59271096  0.51563834  1
  O2-  O464  1  0.66441903  0.58386541  0.85089884  1
  O2-  O465  1  0.67869424  0.83344988  0.18303845  1
  O2-  O466  1  0.64797757  0.83351943  0.49654403  1
  O2-  O467  1  0.67021964  0.83784776  0.85266061  1
  O2-  O468  1  0.91674733  0.08794603  0.18386367  1
  O2-  O469  1  0.89777454  0.07174879  0.51585551  1
  O2-  O470  1  0.91724581  0.08598981  0.86084886  1
  O2-  O471  1  0.91651565  0.35058365  0.20040017  1
  O2-  O472  1  0.91732938  0.31047672  0.45727353  1
  O2-  O473  1  0.90814019  0.34009910  0.86087606  1
  O2-  O474  1  0.89593143  0.58266730  0.18672130  1
  O2-  O475  1  0.97501293  0.54998028  0.53379224  1
  O2-  O476  1  0.91347278  0.59546677  0.86243200  1
  O2-  O477  1  0.92969778  0.84117390  0.19194462  1
  O2-  O478  1  0.91055474  0.83699935  0.52391903  1
  O2-  O479  1  0.92537287  0.83220705  0.86591696  1
  O2-  O480  1  0.17588169  0.07835853  0.31875199  1
  O2-  O481  1  0.17896449  0.10899323  0.64979118  1
  O2-  O482  1  0.15223546  0.08037328  0.98183134  1
  O2-  O483  1  0.15770583  0.32337038  0.28965045  1
  O2-  O484  1  0.16705888  0.31782127  0.64731943  1
  O2-  O485  1  0.15758946  0.34178220  0.98947820  1
  O2-  O486  1  0.15490143  0.56658910  0.30648315  1
  O2-  O487  1  0.17349690  0.58148132  0.65053434  1
  O2-  O488  1  0.16757911  0.59101220  0.97564187  1
  O2-  O489  1  0.18736413  0.82100428  0.30057869  1
  O2-  O490  1  0.15903675  0.83460047  0.68586443  1
  O2-  O491  1  0.16989959  0.84121113  0.97799032  1
  O2-  O492  1  0.42695962  0.08402221  0.30408828  1
  O2-  O493  1  0.41719844  0.07306243  0.63707647  1
  O2-  O494  1  0.38378980  0.07704341  0.98371472  1
  O2-  O495  1  0.41033355  0.31558778  0.31692903  1
  O2-  O496  1  0.42998647  0.33223068  0.64920434  1
  O2-  O497  1  0.39812395  0.31946172  0.98360568  1
  O2-  O498  1  0.41467000  0.58770865  0.31144571  1
  O2-  O499  1  0.42025214  0.60580030  0.65059682  1
  O2-  O500  1  0.41535843  0.59090831  0.98311011  1
  O2-  O501  1  0.41066716  0.82514719  0.31433369  1
  O2-  O502  1  0.40579501  0.83568638  0.64823707  1
  O2-  O503  1  0.40965618  0.83197144  0.96800628  1
  O2-  O504  1  0.66472659  0.08706397  0.31142907  1
  O2-  O505  1  0.67523777  0.07986918  0.63624649  1
  O2-  O506  1  0.68592267  0.07736228  0.98387463  1
  O2-  O507  1  0.67191340  0.33773833  0.32059281  1
  O2-  O508  1  0.68034972  0.34235338  0.64752029  1
  O2-  O509  1  0.69307216  0.38165015  0.98183131  1
  O2-  O510  1  0.65934409  0.57441229  0.31556841  1
  O2-  O511  1  0.68374227  0.58591346  0.63960968  1
  O2-  O512  1  0.66154442  0.59625898  0.97107904  1
  O2-  O513  1  0.69702194  0.78704449  0.29946435  1
  O2-  O514  1  0.64634715  0.83071567  0.62949301  1
  O2-  O515  1  0.69169906  0.87527580  0.97406023  1
  O2-  O516  1  0.90705846  0.06579469  0.35156973  1
  O2-  O517  1  0.91326146  0.06900948  0.64062741  1
  O2-  O518  1  0.92080985  0.08036593  0.98928337  1
  O2-  O519  1  0.91881504  0.33726275  0.31937779  1
  O2-  O520  1  0.92225346  0.31395590  0.64976376  1
  O2-  O521  1  0.86331144  0.30833380  0.98080748  1
  O2-  O522  1  0.90745525  0.58718882  0.31538328  1
  O2-  O523  1  0.90952492  0.55985257  0.65234936  1
  O2-  O524  1  0.92481142  0.60345811  0.98064067  1
  O2-  O525  1  0.91689649  0.82078792  0.30972892  1
  O2-  O526  1  0.91640398  0.83061012  0.64757699  1
  O2-  O527  1  0.91564373  0.82796679  0.98361203  1
  O2-  O528  1  0.08238173  0.17154028  0.02459965  1
  O2-  O529  1  0.08435126  0.15951437  0.33857039  1
  O2-  O530  1  0.06775702  0.15484905  0.69957619  1
  O2-  O531  1  0.08175024  0.43721602  0.02995481  1
  O2-  O532  1  0.08526780  0.41106719  0.35286794  1
  O2-  O533  1  0.09055261  0.41262890  0.62714866  1
  O2-  O534  1  0.08710786  0.67197084  0.01526302  1
  O2-  O535  1  0.07377331  0.65352619  0.34003543  1
  O2-  O536  1  0.07339708  0.65236845  0.66586804  1
  O2-  O537  1  0.08272833  0.91651178  0.02376272  1
  O2-  O538  1  0.08373353  0.92169935  0.36080229  1
  O2-  O539  1  0.07752006  0.92485515  0.69689005  1
  O2-  O540  1  0.30814012  0.15162886  0.02992414  1
  O2-  O541  1  0.32048793  0.14129485  0.36582090  1
  O2-  O542  1  0.35330888  0.16776652  0.69306454  1
  O2-  O543  1  0.33314298  0.42864091  0.00973001  1
  O2-  O544  1  0.33079002  0.41817175  0.33628111  1
  O2-  O545  1  0.34482273  0.42131735  0.64275271  1
  O2-  O546  1  0.32914860  0.66898074  0.02281237  1
  O2-  O547  1  0.32017688  0.65779460  0.34895054  1
  O2-  O548  1  0.33273907  0.67330842  0.69736543  1
  O2-  O549  1  0.33246449  0.91295538  0.02033953  1
  O2-  O550  1  0.33937216  0.92070474  0.34613814  1
  O2-  O551  1  0.33611110  0.92291015  0.69790791  1
  O2-  O552  1  0.69838441  0.23491628  0.01086380  1
  O2-  O553  1  0.59179379  0.17831716  0.35657359  1
  O2-  O554  1  0.59131688  0.17144381  0.62739601  1
  O2-  O555  1  0.62222870  0.45706535  0.04559381  1
  O2-  O556  1  0.57998750  0.41090919  0.35266929  1
  O2-  O557  1  0.59690292  0.42233908  0.68897436  1
  O2-  O558  1  0.57613820  0.67534372  0.01335197  1
  O2-  O559  1  0.57324940  0.65553837  0.35343009  1
  O2-  O560  1  0.67028566  0.71615689  0.69247693  1
  O2-  O561  1  0.56184434  0.91215554  0.01865831  1
  O2-  O562  1  0.57696814  0.92249182  0.35139271  1
  O2-  O563  1  0.57481003  0.91913088  0.68604977  1
  O2-  O564  1  0.84368624  0.16377794  0.03535365  1
  O2-  O565  1  0.83818792  0.16140457  0.29651290  1
  O2-  O566  1  0.84077084  0.15180702  0.68296624  1
  O2-  O567  1  0.85045960  0.43981101  0.03320516  1
  O2-  O568  1  0.83349677  0.42190939  0.35483165  1
  O2-  O569  1  0.82282444  0.41738726  0.70682215  1
  O2-  O570  1  0.84855780  0.67738596  0.01911094  1
  O2-  O571  1  0.83891441  0.67493457  0.35184552  1
  O2-  O572  1  0.84422915  0.66164614  0.68821977  1
  O2-  O573  1  0.83875322  0.91023332  0.02185258  1
  O2-  O574  1  0.84362006  0.90208191  0.35715611  1
  O2-  O575  1  0.80364580  0.86414735  0.71153351  1
