# generated using pymatgen
data_H2O
_symmetry_space_group_name_H-M   'P 1'
_cell_length_a   17.99079687
_cell_length_b   17.99334836
_cell_length_c   22.00074960
_cell_angle_alpha   90.00409673
_cell_angle_beta   90.00045061
_cell_angle_gamma   119.97405207
_symmetry_Int_Tables_number   1
_chemical_formula_structural   H2O
_chemical_formula_sum   'H384 O192'
_cell_volume   6169.41509037
_cell_formula_units_Z   192
loop_
 _symmetry_equiv_pos_site_id
 _symmetry_equiv_pos_as_xyz
  1  'x, y, z'
loop_
 _atom_type_symbol
 _atom_type_oxidation_number
  H+  1.0
  O2-  -2.0
loop_
 _atom_site_type_symbol
 _atom_site_label
 _atom_site_symmetry_multiplicity
 _atom_site_fract_x
 _atom_site_fract_y
 _atom_site_fract_z
 _atom_site_occupancy
  H+  H0  1  0.04214813  0.40288062  0.74010666  1
  H+  H1  1  0.13294255  0.63102138  0.34433353  1
  H+  H2  1  0.61351718  0.14278263  0.00321872  1
  H+  H3  1  0.38573958  0.11818176  0.99099906  1
  H+  H4  1  0.89183773  0.03698174  0.82997388  1
  H+  H5  1  0.51735004  0.13470639  0.15776381  1
  H+  H6  1  0.84503512  0.43786360  0.16794638  1
  H+  H7  1  0.62284716  0.26366484  0.17440633  1
  H+  H8  1  -0.03261171  0.63666218  0.66722351  1
  H+  H9  1  0.62621954  0.50739127  0.51099051  1
  H+  H10  1  0.64656426  0.27259792  0.83774777  1
  H+  H11  1  0.11888486  0.43228385  0.50661223  1
  H+  H12  1  0.38448006  0.60988889  0.17887084  1
  H+  H13  1  0.61437718  -0.02283267  0.15471566  1
  H+  H14  1  0.11780952  0.13572946  0.33594296  1
  H+  H15  1  0.36948391  0.88821894  0.16642305  1
  H+  H16  1  0.47633202  0.35848671  0.33366126  1
  H+  H17  1  0.11196577  0.22388652  0.15456006  1
  H+  H18  1  0.11820225  0.23647958  0.66495694  1
  H+  H19  1  0.34408328  0.42012089  0.44618531  1
  H+  H20  1  0.38213007  0.02367596  0.32939163  1
  H+  H21  1  0.50853315  0.88357585  0.34138147  1
  H+  H22  1  0.88859034  0.77610483  0.97063947  1
  H+  H23  1  0.62821586  0.61476675  0.16655712  1
  H+  H24  1  0.49004162  0.87767284  0.51882863  1
  H+  H25  1  0.22842548  0.59499420  0.33480006  1
  H+  H26  1  0.37711933  0.47739100  0.50670924  1
  H+  H27  1  0.95886643  0.62654178  0.32729940  1
  H+  H28  1  0.21577031  0.36039652  0.84559146  1
  H+  H29  1  0.13624553  0.11304568  0.17038271  1
  H+  H30  1  0.27289632  0.33183384  0.38314709  1
  H+  H31  1  0.78672364  0.90521605  0.63771286  1
  H+  H32  1  0.05649456  0.65193508  0.16348237  1
  H+  H33  1  0.87496591  0.75898143  0.34681375  1
  H+  H34  1  0.27058670  0.88941282  0.67862497  1
  H+  H35  1  0.11816761  0.60527076  0.58463506  1
  H+  H36  1  0.72556766  0.36579573  0.99530191  1
  H+  H37  1  0.26952810  0.62869224  0.69451264  1
  H+  H38  1  0.37109156  0.49608489  0.32998464  1
  H+  H39  1  0.35947671  1.11701674  0.65879476  1
  H+  H40  1  0.58221018  0.24428414  0.34857699  1
  H+  H41  1  0.10026520  0.63735076  0.83997931  1
  H+  H42  1  0.10550267  0.38713797  0.83262138  1
  H+  H43  1  0.22743452  0.36547519  0.16683565  1
  H+  H44  1  0.60667397  0.94999839  0.49280560  1
  H+  H45  1  0.88598957  0.24251752  0.50516445  1
  H+  H46  1  0.63687699  0.12009224  0.84432671  1
  H+  H47  1  0.65335240  0.77755748  0.61277888  1
  H+  H48  1  0.05082634  0.61735069  0.37892566  1
  H+  H49  1  0.35901530  0.21761987  0.83462949  1
  H+  H50  1  0.62860422  0.86182027  0.99629873  1
  H+  H51  1  0.87844801  0.33191504  0.29930131  1
  H+  H52  1  0.87623527  0.69772058  0.15718809  1
  H+  H53  1  0.34917806  0.13016466  0.33878243  1
  H+  H54  1  0.09908206  0.65248865  0.67168089  1
  H+  H55  1  0.14692801  0.54950473  1.01657082  1
  H+  H56  1  0.05883967  0.37184447  0.67728743  1
  H+  H57  1  -0.01067764  0.10946389  0.32033711  1
  H+  H58  1  0.47484695  0.86427006  0.17240445  1
  H+  H59  1  0.72722590  0.56894262  0.65215629  1
  H+  H60  1  0.26581893  0.13284767  0.49234000  1
  H+  H61  1  0.97199663  0.36361410  0.84606285  1
  H+  H62  1  0.38001502  0.77214681  0.66667644  1
  H+  H63  1  0.04173611  0.64850681  0.02320604  1
  H+  H64  1  0.50791700  0.12743350  0.49509104  1
  H+  H65  1  0.62153752  0.69399052  0.70410054  1
  H+  H66  1  0.11331925  0.88234464  0.00634595  1
  H+  H67  1  0.14439246  0.77476407  0.33086617  1
  H+  H68  1  0.60115631  0.10524417  0.34071374  1
  H+  H69  1  1.02521925  0.88376658  0.99691734  1
  H+  H70  1  0.62438489  0.72164431  0.50046069  1
  H+  H71  1  0.84416736  0.48058529  0.51986609  1
  H+  H72  1  0.90530147  0.80657109  0.65376646  1
  H+  H73  1  0.12899809  0.01507730  0.32725160  1
  H+  H74  1  0.35823355  0.23082168  0.00919083  1
  H+  H75  1  0.27355114  0.13790998  0.16264171  1
  H+  H76  1  0.18219398  0.83777664  0.94459885  1
  H+  H77  1  0.13210600  0.35841053  0.31466011  1
  H+  H78  1  0.38846489  0.65324025  0.84560251  1
  H+  H79  1  0.27531626  0.12588195  0.83128292  1
  H+  H80  1  0.97677716  0.11173328  0.16797603  1
  H+  H81  1  0.23806756  0.87160573  0.84787397  1
  H+  H82  1  0.90398760  0.11207758  0.32727723  1
  H+  H83  1  0.37509108  0.90076115  0.49336143  1
  H+  H84  1  0.35596163  0.47545868  0.85236341  1
  H+  H85  1  0.89946126  0.26157168  0.15602947  1
  H+  H86  1  0.63667554  0.27815523  0.99013783  1
  H+  H87  1  0.36633007  0.98628531  0.83378190  1
  H+  H88  1  0.35867603  0.88660495  0.68115955  1
  H+  H89  1  0.53293109  0.36461137  0.67082902  1
  H+  H90  1  0.02799300  0.38439698  0.15916510  1
  H+  H91  1  0.79605879  0.53046504  0.19649693  1
  H+  H92  1  0.29630218  0.74865351  0.30177852  1
  H+  H93  1  0.20705299  0.61051077  0.85966341  1
  H+  H94  1  0.38783369  0.91341043  0.33022116  1
  H+  H95  1  0.36806632  0.21557508  0.65907392  1
  H+  H96  1  0.03911643  0.14185818  0.66014414  1
  H+  H97  1  0.66950404  0.05873020  0.32010061  1
  H+  H98  1  0.38853506  0.02632669  0.17519532  1
  H+  H99  1  0.37742378  0.01775281  0.50132119  1
  H+  H100  1  0.71802025  0.61079231  0.83155716  1
  H+  H101  1  0.15287931  0.78674390  0.17557568  1
  H+  H102  1  0.19590306  0.37819339  0.66797619  1
  H+  H103  1  0.23776115  0.87084145  0.50495694  1
  H+  H104  1  0.21811897  0.10385145  0.32581578  1
  H+  H105  1  0.36373187  0.22610673  0.16553841  1
  H+  H106  1  0.11162765  0.46330211  0.33211849  1
  H+  H107  1  0.92649802  0.83651394  0.55688336  1
  H+  H108  1  0.71712645  0.34273444  0.17516286  1
  H+  H109  1  0.79172729  0.90711421  0.50135807  1
  H+  H110  1  0.74487457  0.35209600  0.65677923  1
  H+  H111  1  0.34212092  0.69082511  0.51359499  1
  H+  H112  1  0.35646901  0.63874989  -0.00336833  1
  H+  H113  1  0.53339258  0.63530617  0.50303909  1
  H+  H114  1  0.63341968  0.60060277  0.51391641  1
  H+  H115  1  0.61623399  0.45758847  0.67483702  1
  H+  H116  1  0.36734572  0.47970011  0.16770262  1
  H+  H117  1  0.37961759  0.26296139  0.50370675  1
  H+  H118  1  0.38449757  0.77094593  0.99779508  1
  H+  H119  1  0.51332695  0.12837445  0.67658534  1
  H+  H120  1  0.29934372  0.35407324  0.70245672  1
  H+  H121  1  0.13057191  0.89153269  0.49423620  1
  H+  H122  1  0.77592207  0.13884276  0.00450074  1
  H+  H123  1  0.87766146  0.85703838  0.98121630  1
  H+  H124  1  0.77250093  0.37643748  0.81491399  1
  H+  H125  1  0.15398309  0.61521442  0.17492449  1
  H+  H126  1  0.02397050  0.41373116  0.51458456  1
  H+  H127  1  0.12030480  0.90637266  0.66177235  1
  H+  H128  1  0.61879495  0.76706107  0.99481407  1
  H+  H129  1  0.15491743  0.31729454  0.92725834  1
  H+  H130  1  0.64714870  0.00846055  0.65206023  1
  H+  H131  1  0.38821942  0.11348762  0.84021935  1
  H+  H132  1  0.73697572  0.09364596  0.64724406  1
  H+  H133  1  0.23939461  0.60961561  0.17355477  1
  H+  H134  1  0.85761196  0.77154504  0.15564769  1
  H+  H135  1  0.66536267  0.58986070  0.06505605  1
  H+  H136  1  0.88518100  0.27330506  0.99554081  1
  H+  H137  1  0.86189106  0.77181973  0.82802251  1
  H+  H138  1  0.59531640  0.82641062  0.31875760  1
  H+  H139  1  0.38461476  0.87554929  0.84798209  1
  H+  H140  1  0.60963368  0.88499216  0.15735886  1
  H+  H141  1  0.52245800  0.90183114  0.83788158  1
  H+  H142  1  0.89176920  0.62037976  1.00797368  1
  H+  H143  1  0.14482921  0.87184058  0.17432487  1
  H+  H144  1  0.10983892  0.21643286  0.00496505  1
  H+  H145  1  0.60752658  0.20708156  0.67495599  1
  H+  H146  1  0.35425862  0.60499721  0.35587036  1
  H+  H147  1  0.87364817  0.97644630  0.34196090  1
  H+  H148  1  0.12508834  -0.01457994  0.49368862  1
  H+  H149  1  0.88305418  0.37097896  0.51896496  1
  H+  H150  1  0.42299178  0.34251240  0.90700886  1
  H+  H151  1  0.86508676  0.13126866  0.15212595  1
  H+  H152  1  0.51771801  0.37250042  0.49422441  1
  H+  H153  1  0.59570610  0.62937479  0.00692056  1
  H+  H154  1  0.56791366  0.40061742  0.76940494  1
  H+  H155  1  0.86573428  0.88596267  0.35245997  1
  H+  H156  1  0.79287521  0.69126066  0.65596235  1
  H+  H157  1  0.12936138  0.34832180  0.98756342  1
  H+  H158  1  0.12521912  0.27301865  0.83218162  1
  H+  H159  1  -0.02795622  0.11273482  -0.00727501  1
  H+  H160  1  0.09204074  0.91729692  0.43063671  1
  H+  H161  1  0.57859959  0.16162172  0.77276678  1
  H+  H162  1  0.38544911  0.11447364  0.17443549  1
  H+  H163  1  0.28618363  0.89539759  0.33899098  1
  H+  H164  1  0.61354661  0.74968651  0.31603646  1
  H+  H165  1  0.62412203  0.08778685  0.49965680  1
  H+  H166  1  -0.07519132  0.35894729  0.67736022  1
  H+  H167  1  0.14158887  0.00663217  0.84090665  1
  H+  H168  1  0.56256558  0.65993009  0.09799251  1
  H+  H169  1  0.71402637  0.35513211  0.33163439  1
  H+  H170  1  0.13357067  0.64477290  0.01344891  1
  H+  H171  1  0.52339127  0.13719175  0.83374844  1
  H+  H172  1  0.14810552  0.77661730  0.00435958  1
  H+  H173  1  0.69675583  0.83266356  0.84950248  1
  H+  H174  1  0.48313691  0.14942719  0.34667674  1
  H+  H175  1  0.02107729  0.15073188  0.81644513  1
  H+  H176  1  0.77691964  0.64265145  0.00774386  1
  H+  H177  1  0.13720933  0.02034558  0.99700714  1
  H+  H178  1  0.37574963  0.10676865  0.50484797  1
  H+  H179  1  0.36565827  0.87283260  1.01524501  1
  H+  H180  1  0.09677222  0.55263310  0.50044878  1
  H+  H181  1  0.77836168  0.92157015  0.78824920  1
  H+  H182  1  0.22886917  0.37479110  0.51477391  1
  H+  H183  1  0.14435127  0.03660833  0.65279647  1
  H+  H184  1  -0.00618164  0.88827034  0.17501049  1
  H+  H185  1  0.91328638  0.81403144  0.28611710  1
  H+  H186  1  0.88996006  0.57763660  0.17218075  1
  H+  H187  1  0.86360048  0.47232540  0.02081840  1
  H+  H188  1  0.17089919  0.83966581  0.60258458  1
  H+  H189  1  0.66188868  0.05893664  0.55585719  1
  H+  H190  1  0.86271684  0.38298451  0.01089382  1
  H+  H191  1  0.86129517  0.23221884  0.83138010  1
  H+  H192  1  0.38572311  0.35639169  0.51007638  1
  H+  H193  1  0.72413675  0.63229405  0.16888244  1
  H+  H194  1  0.61512500  0.47465897  0.16029191  1
  H+  H195  1  0.87759477  -0.00506026  0.64684780  1
  H+  H196  1  1.03703878  0.14732158  0.49096245  1
  H+  H197  1  0.11093052  0.88009654  0.34615601  1
  H+  H198  1  0.85006408  0.48104724  0.35729330  1
  H+  H199  1  0.80187696  0.12322992  0.35700038  1
  H+  H200  1  0.85840359  0.89680617  0.15606596  1
  H+  H201  1  0.96659411  0.61824472  0.82393692  1
  H+  H202  1  0.01785319  0.87324284  0.35259353  1
  H+  H203  1  0.02410148  0.37370445  0.32587639  1
  H+  H204  1  0.63943884  0.03238218  0.84590186  1
  H+  H205  1  0.85442573  0.98149195  0.15362907  1
  H+  H206  1  0.13161332  0.78489100  0.66393819  1
  H+  H207  1  0.10811734  0.45149963  0.96920696  1
  H+  H208  1  0.38535067  0.37119197  0.84870759  1
  H+  H209  1  0.31006329  0.76178037  0.33406898  1
  H+  H210  1  0.60668117  0.47436200  0.34194886  1
  H+  H211  1  0.49468821  0.59258319  0.66621126  1
  H+  H212  1  0.27196244  0.87823465  0.01637709  1
  H+  H213  1  0.47704122  0.37080133  0.99757647  1
  H+  H214  1  0.94071445  0.61234814  0.47624884  1
  H+  H215  1  0.64023401  0.85293491  0.51873924  1
  H+  H216  1  0.89258083  0.34679742  0.16248623  1
  H+  H217  1  0.64862146  0.35766386  0.66598196  1
  H+  H218  1  0.14014682  0.28969153  0.50847637  1
  H+  H219  1  0.25704073  0.38086661  -0.01221854  1
  H+  H220  1  0.83705051  0.62855848  0.35805607  1
  H+  H221  1  0.85780692  0.46650311  0.79859159  1
  H+  H222  1  0.39662101  0.79168902  0.84866018  1
  H+  H223  1  0.38864455  0.37448132  -0.00681216  1
  H+  H224  1  0.35600384  0.45614557  0.68948042  1
  H+  H225  1  0.90108347  0.89155734  0.64193761  1
  H+  H226  1  0.87778305  0.21656578  0.33774344  1
  H+  H227  1  0.85309166  0.64748739  0.80967850  1
  H+  H228  1  0.59067891  0.61980684  0.84280990  1
  H+  H229  1  0.40933574  0.35195268  0.65280990  1
  H+  H230  1  0.47470036  0.11994436  -0.01062516  1
  H+  H231  1  0.50849817  0.62897709  -0.00925224  1
  H+  H232  1  0.80755543  0.06200443  0.71390575  1
  H+  H233  1  0.90361664  0.03871766  0.50255455  1
  H+  H234  1  0.60232100  0.72394089  0.15477969  1
  H+  H235  1  0.11664154  0.22468015  0.33058661  1
  H+  H236  1  0.86584361  0.18777142  0.44410646  1
  H+  H237  1  0.16861847  0.83553700  0.27214795  1
  H+  H238  1  0.52309624  0.88923913  0.00712064  1
  H+  H239  1  1.03350119  0.91209821  0.65832081  1
  H+  H240  1  0.60844996  0.13834584  0.14942599  1
  H+  H241  1  0.46865780  0.60331440  0.87016742  1
  H+  H242  1  0.22375732  0.11184525  -0.00335041  1
  H+  H243  1  0.10162874  0.47455050  0.83829222  1
  H+  H244  1  0.86656093  0.86791703  0.82453423  1
  H+  H245  1  0.85192819  0.39670556  0.37421868  1
  H+  H246  1  0.77141501  0.14333322  0.83221827  1
  H+  H247  1  0.63398095  0.51826608  0.01587494  1
  H+  H248  1  0.20550467  0.65925340  0.61628375  1
  H+  H249  1  0.60099417  0.47005623  0.82512434  1
  H+  H250  1  0.11954401  -0.01835583  0.15555227  1
  H+  H251  1  0.62274322  0.34976151  0.51410536  1
  H+  H252  1  1.02188387  0.38126136  0.99789364  1
  H+  H253  1  0.91043938  0.13385716  0.50540027  1
  H+  H254  1  0.92268492  0.30931815  0.24721608  1
  H+  H255  1  0.42648790  0.31933019  0.59027132  1
  H+  H256  1  0.84390442  0.69866131  0.05707250  1
  H+  H257  1  0.12515948  0.38701447  0.16244252  1
  H+  H258  1  0.48911486  0.95980251  0.28473551  1
  H+  H259  1  0.61401423  0.38422350  0.16421615  1
  H+  H260  1  0.63746803  0.02891443  0.99595898  1
  H+  H261  1  0.15711857  0.77930676  0.50854375  1
  H+  H262  1  0.99215927  0.66904289  0.52949705  1
  H+  H263  1  0.75996117  0.86013791  0.00421673  1
  H+  H264  1  0.35378124  0.22076398  0.34022314  1
  H+  H265  1  0.13465497  0.11385911  0.49927588  1
  H+  H266  1  0.36855292  0.72878239  0.16343213  1
  H+  H267  1  0.40826870  0.59446476  0.67548670  1
  H+  H268  1  0.26976179  0.64305778  1.00829655  1
  H+  H269  1  0.10941903  0.72994150  0.83784072  1
  H+  H270  1  0.91973661  0.08339692  0.22870623  1
  H+  H271  1  0.52499227  0.88622044  0.68173749  1
  H+  H272  1  0.94727486  0.91754770  0.22256434  1
  H+  H273  1  0.88461030  0.12122758  0.83843587  1
  H+  H274  1  0.62045748  0.13142493  0.31214953  1
  H+  H275  1  0.48921805  0.37612629  0.83667667  1
  H+  H276  1  0.86663648  0.13846502  -0.00004612  1
  H+  H277  1  0.60701924  0.93253258  0.36100450  1
  H+  H278  1  0.28128569  0.89296730  0.16646948  1
  H+  H279  1  0.48971043  0.95272271  0.55150153  1
  H+  H280  1  0.50952816  0.61589895  0.35055215  1
  H+  H281  1  0.08921858  0.85160342  0.78572889  1
  H+  H282  1  0.39173893  0.36361033  0.18260984  1
  H+  H283  1  0.48010833  0.36248048  0.17824248  1
  H+  H284  1  0.37304209  0.52118643  -0.03590985  1
  H+  H285  1  0.12274425  0.48242829  0.16665713  1
  H+  H286  1  0.39390074  0.60132651  0.52382612  1
  H+  H287  1  0.73589513  0.11997135  0.15435190  1
  H+  H288  1  0.94064412  0.09878464  0.58523818  1
  H+  H289  1  0.66233643  0.55867197  0.59675724  1
  H+  H290  1  0.87323626  0.68945372  0.51390798  1
  H+  H291  1  0.90856825  0.60475881  0.60849885  1
  H+  H292  1  0.07695681  0.67693081  0.73748215  1
  H+  H293  1  0.45243415  0.72476399  0.80215549  1
  H+  H294  1  0.15528935  0.58727473  0.92193292  1
  H+  H295  1  0.58616049  0.70657774  0.84627753  1
  H+  H296  1  0.82032843  0.68376307  0.75631608  1
  H+  H297  1  0.71448883  0.00711923  0.29858497  1
  H+  H298  1  0.34108675  0.91962315  0.42903101  1
  H+  H299  1  0.62070121  0.60324808  0.32894486  1
  H+  H300  1  0.14812882  0.67659909  0.44174881  1
  H+  H301  1  0.58557499  0.92257312  0.73823720  1
  H+  H302  1  0.15302989  0.87596140  0.85729102  1
  H+  H303  1  0.09713400  0.17704789  0.43199499  1
  H+  H304  1  0.82470569  0.39241410  0.10271601  1
  H+  H305  1  0.68281396  0.33865188  0.89267326  1
  H+  H306  1  0.56400891  0.87472834  0.44246550  1
  H+  H307  1  0.37728409  1.01410648  0.66041061  1
  H+  H308  1  0.91746228  0.08983360  0.93187019  1
  H+  H309  1  0.08382395  0.17999466  0.75805355  1
  H+  H310  1  0.90055218  0.34080619  0.58110892  1
  H+  H311  1  0.16464373  0.33235991  0.22497476  1
  H+  H312  1  0.15194368  0.34644566  0.60293401  1
  H+  H313  1  0.30767938  0.44867723  0.03863291  1
  H+  H314  1  0.90994061  0.11966825  0.65098880  1
  H+  H315  1  0.58157290  0.40628260  0.43697830  1
  H+  H316  1  0.33317228  0.92306182  0.77483344  1
  H+  H317  1  0.89799582  0.83708147  0.89430304  1
  H+  H318  1  0.57996444  0.40645500  0.06757706  1
  H+  H319  1  0.63479677  0.63206823  0.66004766  1
  H+  H320  1  0.66552212  0.32479157  0.59750170  1
  H+  H321  1  0.32494976  0.16155979  0.43283651  1
  H+  H322  1  0.71423122  0.35549610  0.51708806  1
  H+  H323  1  0.58364650  0.91805565  0.06528863  1
  H+  H324  1  0.33604135  0.90833485  0.08041090  1
  H+  H325  1  0.47228281  0.60916687  0.17865431  1
  H+  H326  1  0.84157891  0.93013658  0.73706287  1
  H+  H327  1  0.41592462  0.08391668  0.90148199  1
  H+  H328  1  0.64391113  0.82083187  0.90966515  1
  H+  H329  1  0.41782768  0.84346207  0.61260576  1
  H+  H330  1  0.43087490  0.56997895  0.57883800  1
  H+  H331  1  0.82393442  0.89617819  0.06059265  1
  H+  H332  1  0.83920742  0.16307943  0.08926045  1
  H+  H333  1  0.40582851  0.07023411  0.59702061  1
  H+  H334  1  0.10822680  0.12695207  0.00686669  1
  H+  H335  1  0.35786476  0.36149068  0.34500212  1
  H+  H336  1  0.34189071  0.67129177  0.74448920  1
  H+  H337  1  0.57951486  0.17304707  0.05975646  1
  H+  H338  1  0.16473913  0.08528289  0.56033596  1
  H+  H339  1  0.71524357  0.85861909  0.16876850  1
  H+  H340  1  0.57870458  0.65641365  0.40489946  1
  H+  H341  1  0.34187074  0.67039438  0.10258495  1
  H+  H342  1  0.93403656  0.58847807  0.95968124  1
  H+  H343  1  0.81864279  0.43330939  0.45567150  1
  H+  H344  1  0.88777313  0.57118678  0.27862061  1
  H+  H345  1  0.60952960  0.38674102  0.33983566  1
  H+  H346  1  0.54845040  0.18109691  0.41384624  1
  H+  H347  1  0.59990137  0.21360104  0.49805574  1
  H+  H348  1  0.75398729  0.63491517  0.34843176  1
  H+  H349  1  0.26625828  0.12985572  0.65621640  1
  H+  H350  1  0.08265444  0.91576513  0.09870028  1
  H+  H351  1  0.67088180  0.57300247  0.89425833  1
  H+  H352  1  0.88341989  0.36291006  0.83828601  1
  H+  H353  1  0.61237709  0.38455936  0.00498578  1
  H+  H354  1  0.17928713  0.58020202  0.27020264  1
  H+  H355  1  0.65960171  0.32409895  0.26804018  1
  H+  H356  1  0.35664823  0.69324496  0.36527430  1
  H+  H357  1  0.83079309  0.38848183  0.72045419  1
  H+  H358  1  0.32274433  0.63162615  0.45637912  1
  H+  H359  1  0.16197485  0.07841232  0.22988694  1
  H+  H360  1  0.33209804  0.17161509  0.06842476  1
  H+  H361  1  0.60414927  0.88965946  0.83689472  1
  H+  H362  1  0.41222034  0.83866191  0.94121863  1
  H+  H363  1  0.08733882  0.92569843  0.75345904  1
  H+  H364  1  0.66814109  0.09008491  0.93753638  1
  H+  H365  1  0.08175940  0.16100305  0.09692076  1
  H+  H366  1  0.83789954  0.15198335  0.74072684  1
  H+  H367  1  0.42574497  0.85391971  0.23523088  1
  H+  H368  1  0.40369326  0.56289437  0.27438894  1
  H+  H369  1  0.32719736  0.42256759  0.78907854  1
  H+  H370  1  0.41957222  0.32977949  0.27207118  1
  H+  H371  1  0.65452650  0.58027235  0.26777965  1
  H+  H372  1  0.67768282  0.10253456  0.21210959  1
  H+  H373  1  0.16683115  0.06717781  0.89917016  1
  H+  H374  1  0.91026297  0.33505180  0.93741146  1
  H+  H375  1  0.86909787  0.66921974  0.66794556  1
  H+  H376  1  0.64680393  0.81929864  0.22525153  1
  H+  H377  1  0.11118233  0.68079703  0.10174741  1
  H+  H378  1  0.41308829  0.08557558  0.26807196  1
  H+  H379  1  0.88216498  0.56358432  0.86303807  1
  H+  H380  1  0.22244922  0.35859007  0.31266292  1
  H+  H381  1  0.84401365  0.93261914  0.43934350  1
  H+  H382  1  0.35243215  0.41737437  0.11128083  1
  H+  H383  1  0.15207449  0.13142355  0.65307664  1
  O2-  O384  1  0.08235497  0.16245137  0.14316563  1
  O2-  O385  1  0.09952901  0.17742840  0.47727533  1
  O2-  O386  1  0.08142705  0.18616844  0.80262238  1
  O2-  O387  1  0.09278222  0.42047404  0.15051318  1
  O2-  O388  1  0.08122642  0.45582784  0.49788290  1
  O2-  O389  1  0.07254815  0.41629328  0.82032699  1
  O2-  O390  1  0.11558217  0.68145465  0.14905306  1
  O2-  O391  1  0.16094098  0.68169315  0.48626579  1
  O2-  O392  1  0.07545099  0.67077982  0.82119140  1
  O2-  O393  1  0.08647716  0.91898030  0.14413489  1
  O2-  O394  1  0.10110106  0.92330927  0.47786066  1
  O2-  O395  1  0.08355277  0.90147392  0.79508095  1
  O2-  O396  1  0.33458141  0.16691518  0.14841632  1
  O2-  O397  1  0.32728890  0.16224882  0.47846576  1
  O2-  O398  1  0.33662109  0.16050226  0.81710000  1
  O2-  O399  1  0.33811491  0.41709068  0.15408727  1
  O2-  O400  1  0.34222970  0.41650635  0.49092030  1
  O2-  O401  1  0.33157810  0.41715506  0.83394058  1
  O2-  O402  1  0.34052350  0.66814599  0.14797685  1
  O2-  O403  1  0.32662187  0.63280311  0.50150673  1
  O2-  O404  1  0.39337683  0.69878556  0.81686523  1
  O2-  O405  1  0.34088528  0.92043724  0.14929094  1
  O2-  O406  1  0.33595212  0.91897143  0.47493779  1
  O2-  O407  1  0.33370153  0.92288422  0.82019086  1
  O2-  O408  1  0.57659933  0.16899316  0.14024719  1
  O2-  O409  1  0.56629077  0.15903246  0.47517180  1
  O2-  O410  1  0.58404933  0.16674631  0.81823266  1
  O2-  O411  1  0.58346755  0.41349447  0.14750586  1
  O2-  O412  1  0.57965340  0.40120095  0.48234051  1
  O2-  O413  1  0.56167899  0.40879790  0.81372450  1
  O2-  O414  1  0.57060946  0.66117082  0.14276054  1
  O2-  O415  1  0.59151063  0.66235004  0.48400142  1
  O2-  O416  1  0.55219706  0.64382729  0.83712101  1
  O2-  O417  1  0.57984674  0.91627691  0.14215895  1
  O2-  O418  1  0.57653284  0.88509811  0.48704788  1
  O2-  O419  1  0.58208427  0.92669141  0.82165895  1
  O2-  O420  1  0.83760962  0.16414500  0.13590719  1
  O2-  O421  1  0.86304564  0.18384224  0.48889414  1
  O2-  O422  1  0.83187025  0.17152756  0.81632056  1
  O2-  O423  1  0.82241862  0.38150628  0.14830991  1
  O2-  O424  1  0.81741032  0.42417186  0.50032501  1
  O2-  O425  1  0.83144833  0.40406994  0.79311170  1
  O2-  O426  1  0.83541285  0.71262724  0.13990349  1
  O2-  O427  1  0.84818201  0.72546887  0.52507057  1
  O2-  O428  1  0.81865261  0.67646766  0.80195521  1
  O2-  O429  1  0.82298597  0.91992931  0.14006188  1
  O2-  O430  1  0.84961319  0.94221935  0.48447357  1
  O2-  O431  1  0.83527543  0.92831492  0.78308957  1
  O2-  O432  1  0.16654966  0.08200654  0.18454896  1
  O2-  O433  1  0.16177517  0.07922144  0.51483452  1
  O2-  O434  1  0.17500607  0.06620444  0.85474054  1
  O2-  O435  1  0.16564931  0.33708134  0.17865191  1
  O2-  O436  1  0.16743113  0.34857616  0.52567886  1
  O2-  O437  1  0.15384904  0.33133563  0.85519128  1
  O2-  O438  1  0.17831156  0.57885213  0.18912799  1
  O2-  O439  1  0.08663261  0.60279852  0.51056928  1
  O2-  O440  1  0.14831089  0.58160559  0.87493044  1
  O2-  O441  1  0.17769159  0.84590223  0.19239615  1
  O2-  O442  1  0.17661598  0.83974927  0.52023030  1
  O2-  O443  1  0.17803014  0.83967351  0.86659974  1
  O2-  O444  1  0.41756389  0.08643578  0.19104438  1
  O2-  O445  1  0.40672631  0.07700839  0.51999763  1
  O2-  O446  1  0.41824009  0.08176924  0.85531324  1
  O2-  O447  1  0.42077961  0.33157305  0.19569898  1
  O2-  O448  1  0.41493768  0.32267862  0.52092217  1
  O2-  O449  1  0.42053247  0.34284753  0.86049539  1
  O2-  O450  1  0.41185812  0.57684285  0.19450182  1
  O2-  O451  1  0.43085561  0.57527439  0.53393622  1
  O2-  O452  1  0.40408752  0.57801561  0.88436608  1
  O2-  O453  1  0.41588505  0.83505811  0.19010587  1
  O2-  O454  1  0.44951108  0.89291986  0.54054729  1
  O2-  O455  1  0.41784210  0.84941648  0.86660043  1
  O2-  O456  1  0.67377697  0.09257335  0.16843926  1
  O2-  O457  1  0.64039067  0.04587591  0.51256427  1
  O2-  O458  1  0.67016792  0.09282955  0.86085721  1
  O2-  O459  1  0.65860785  0.32354228  0.19174527  1
  O2-  O460  1  0.65332596  0.31977621  0.53141604  1
  O2-  O461  1  0.68525715  0.33457088  0.84799707  1
  O2-  O462  1  0.66418350  0.58827934  0.17787910  1
  O2-  O463  1  0.65439467  0.56360207  0.53211714  1
  O2-  O464  1  0.66014903  0.57423924  0.85086528  1
  O2-  O465  1  0.65308287  0.82538100  0.17904677  1
  O2-  O466  1  0.67877716  0.82921980  0.53201579  1
  O2-  O467  1  0.63854548  0.81428255  0.86299328  1
  O2-  O468  1  0.91604492  0.08303301  0.18293984  1
  O2-  O469  1  0.94122403  0.10092426  0.51682983  1
  O2-  O470  1  0.91908185  0.09322412  0.84997863  1
  O2-  O471  1  0.93061632  0.32257956  0.17330581  1
  O2-  O472  1  0.91661597  0.34720474  0.53729855  1
  O2-  O473  1  0.91061954  0.33415448  0.86034024  1
  O2-  O474  1  0.85296231  0.53753228  0.20336134  1
  O2-  O475  1  0.93334653  0.62813658  0.51734034  1
  O2-  O476  1  0.90176927  0.58614108  0.82228926  1
  O2-  O477  1  0.93624544  0.86986793  0.19567230  1
  O2-  O478  1  0.92243285  0.81120946  0.51562661  1
  O2-  O479  1  0.88951337  0.83321112  0.84471244  1
  O2-  O480  1  0.15828315  0.07344612  0.30902730  1
  O2-  O481  1  0.17957588  0.09786826  0.63646546  1
  O2-  O482  1  0.16333641  0.07994357  0.98139296  1
  O2-  O483  1  0.16323982  0.32775123  0.29690560  1
  O2-  O484  1  0.14103514  0.33977647  0.64795006  1
  O2-  O485  1  0.16135308  0.31901106  0.97335770  1
  O2-  O486  1  0.17122689  0.57443447  0.31513494  1
  O2-  O487  1  0.14675524  0.61527030  0.62535157  1
  O2-  O488  1  0.17262167  0.60169919  0.99187479  1
  O2-  O489  1  0.16806697  0.83480353  0.31763219  1
  O2-  O490  1  0.16802878  0.84450116  0.64744529  1
  O2-  O491  1  0.17962281  0.83866931  0.99013879  1
  O2-  O492  1  0.40861491  0.08608040  0.31375109  1
  O2-  O493  1  0.40467021  0.07398975  0.64250592  1
  O2-  O494  1  0.41467759  0.08817135  0.97442484  1
  O2-  O495  1  0.41574708  0.32628156  0.31771548  1
  O2-  O496  1  0.43176561  0.31645470  0.63692441  1
  O2-  O497  1  0.41773534  0.34303037  0.97956454  1
  O2-  O498  1  0.40104709  0.55742248  0.31970569  1
  O2-  O499  1  0.43085863  0.55797562  0.66085230  1
  O2-  O500  1  0.40722322  0.58348931  0.95151048  1
  O2-  O501  1  0.44962018  0.90189102  0.29902064  1
  O2-  O502  1  0.40918264  0.83427067  0.65730006  1
  O2-  O503  1  0.41329042  0.83403825  0.98696684  1
  O2-  O504  1  0.70264307  0.03227220  0.33397075  1
  O2-  O505  1  0.67994641  0.06272447  0.62849608  1
  O2-  O506  1  0.66846211  0.09030755  0.98332722  1
  O2-  O507  1  0.65576010  0.32665477  0.31378187  1
  O2-  O508  1  0.67642839  0.32697927  0.64493468  1
  O2-  O509  1  0.66715090  0.34033502  0.97748669  1
  O2-  O510  1  0.65281741  0.57462708  0.31241041  1
  O2-  O511  1  0.66884909  0.55770214  0.64513148  1
  O2-  O512  1  0.66438653  0.58316885  1.02079272  1
  O2-  O513  1  0.62755533  0.80407086  0.29561054  1
  O2-  O514  1  0.68153083  0.83787080  0.59898018  1
  O2-  O515  1  0.65372775  0.82690592  0.97926089  1
  O2-  O516  1  0.92888040  0.08101000  0.30492173  1
  O2-  O517  1  0.94070109  0.09251807  0.63216655  1
  O2-  O518  1  0.91290310  0.08965874  0.97676477  1
  O2-  O519  1  0.91711765  0.30949018  0.29301817  1
  O2-  O520  1  0.86415822  0.32962004  0.65859489  1
  O2-  O521  1  0.91444302  0.33549927  0.98303732  1
  O2-  O522  1  0.89982085  0.57964699  0.32294670  1
  O2-  O523  1  0.90695789  0.61258875  0.65234470  1
  O2-  O524  1  0.92309218  0.58757048  1.00312141  1
  O2-  O525  1  0.91660440  0.81892791  0.33041466  1
  O2-  O526  1  0.93582977  0.86310806  0.63278238  1
  O2-  O527  1  0.91309423  0.83639568  0.95603290  1
  O2-  O528  1  0.07862518  0.15777438  0.02304433  1
  O2-  O529  1  0.08994339  0.16810912  0.35159309  1
  O2-  O530  1  0.09897069  0.17596277  0.67727292  1
  O2-  O531  1  0.08599413  0.41114510  0.00312506  1
  O2-  O532  1  0.08396099  0.40078939  0.34023698  1
  O2-  O533  1  0.02428448  0.39372858  0.69695003  1
  O2-  O534  1  0.10348605  0.68071074  0.03290177  1
  O2-  O535  1  0.10732876  0.66284838  0.36623092  1
  O2-  O536  1  0.07176844  0.68245496  0.69300930  1
  O2-  O537  1  0.07980716  0.91010187  0.01975542  1
  O2-  O538  1  0.08078626  0.90958934  0.36349870  1
  O2-  O539  1  0.09393390  0.94113693  0.67519964  1
  O2-  O540  1  0.32854914  0.17055499  0.02315237  1
  O2-  O541  1  0.31954520  0.16036084  0.35529525  1
  O2-  O542  1  0.33037870  0.15388589  0.67131872  1
  O2-  O543  1  0.31868609  0.42465921  0.00226414  1
  O2-  O544  1  0.31881460  0.38228349  0.36286584  1
  O2-  O545  1  0.30586266  0.40997709  0.71197097  1
  O2-  O546  1  0.33392008  0.66977255  0.02029934  1
  O2-  O547  1  0.32324640  0.63233718  0.37555924  1
  O2-  O548  1  0.33163750  0.66250107  0.69994297  1
  O2-  O549  1  0.33317122  0.90252060  0.03347951  1
  O2-  O550  1  0.34557016  0.93126096  0.35397831  1
  O2-  O551  1  0.33077684  0.92046565  0.69430920  1
  O2-  O552  1  0.58374985  0.17532634  0.01466126  1
  O2-  O553  1  0.53158325  0.19944571  0.37303125  1
  O2-  O554  1  0.56963058  0.15419336  0.69687868  1
  O2-  O555  1  0.58073169  0.41334529  0.02247441  1
  O2-  O556  1  0.57874602  0.41410099  0.35842202  1
  O2-  O557  1  0.58992657  0.39728589  0.69138059  1
  O2-  O558  1  0.56257456  0.65892162  0.01457080  1
  O2-  O559  1  0.57170201  0.64937318  0.35972589  1
  O2-  O560  1  0.60580304  0.66694354  0.66414871  1
  O2-  O561  1  0.58457099  0.91899094  0.01961190  1
  O2-  O562  1  0.55427737  0.87650677  0.36535178  1
  O2-  O563  1  0.58574255  0.91342364  0.69396470  1
  O2-  O564  1  0.83719397  0.16988401  0.01822808  1
  O2-  O565  1  0.86290868  0.16621054  0.36395719  1
  O2-  O566  1  0.83361778  0.12179680  0.70139135  1
  O2-  O567  1  0.83067862  0.41014172  0.03001670  1
  O2-  O568  1  0.81538397  0.42249764  0.37541561  1
  O2-  O569  1  0.83003779  0.38676016  0.67375711  1
  O2-  O570  1  0.84007362  0.67916733  0.01441084  1
  O2-  O571  1  0.81101786  0.66340517  0.36868951  1
  O2-  O572  1  0.84098978  0.70426136  0.68297862  1
  O2-  O573  1  0.81558328  0.86940105  0.01998233  1
  O2-  O574  1  0.83989659  0.92112087  0.36345815  1
  O2-  O575  1  0.84069205  0.93297144  0.66171926  1
