# generated using pymatgen
data_H2O
_symmetry_space_group_name_H-M   'P 1'
_cell_length_a   17.99930561
_cell_length_b   17.99092760
_cell_length_c   22.00470813
_cell_angle_alpha   89.98314318
_cell_angle_beta   90.01985148
_cell_angle_gamma   120.02081841
_symmetry_Int_Tables_number   1
_chemical_formula_structural   H2O
_chemical_formula_sum   'H384 O192'
_cell_volume   6169.70467269
_cell_formula_units_Z   192
loop_
 _symmetry_equiv_pos_site_id
 _symmetry_equiv_pos_as_xyz
  1  'x, y, z'
loop_
 _atom_type_symbol
 _atom_type_oxidation_number
  H+  1.0
  O2-  -2.0
loop_
 _atom_site_type_symbol
 _atom_site_label
 _atom_site_symmetry_multiplicity
 _atom_site_fract_x
 _atom_site_fract_y
 _atom_site_fract_z
 _atom_site_occupancy
  H+  H0  1  0.66078135  0.31892372  0.89454249  1
  H+  H1  1  0.13000225  0.88285605  0.49383770  1
  H+  H2  1  -0.03178784  0.12577249  -0.01665373  1
  H+  H3  1  0.40241765  0.11438459  0.98854149  1
  H+  H4  1  0.22631541  0.10698946  0.32679853  1
  H+  H5  1  0.10401688  0.42572809  0.07511709  1
  H+  H6  1  0.38704932  0.27816644  -0.00320775  1
  H+  H7  1  0.35200984  0.98692690  0.33325060  1
  H+  H8  1  0.41422066  0.99689962  0.69654366  1
  H+  H9  1  0.64688955  0.29282102  0.49601601  1
  H+  H10  1  0.87629476  0.86652285  0.50705557  1
  H+  H11  1  0.71708291  0.08562179  0.98658121  1
  H+  H12  1  0.38440915  -0.01870049  1.00300647  1
  H+  H13  1  0.31171072  0.74982670  0.65427098  1
  H+  H14  1  0.82364670  0.66112222  0.48242834  1
  H+  H15  1  0.90859170  0.78724102  0.51230703  1
  H+  H16  1  0.59731875  0.61199196  0.33615292  1
  H+  H17  1  0.86634315  0.66048181  0.39351650  1
  H+  H18  1  0.10361795  0.62870679  0.00619377  1
  H+  H19  1  0.85012236  0.21994405  0.33809423  1
  H+  H20  1  0.86551597  0.38921641  0.14757427  1
  H+  H21  1  0.22771316  0.36951809  0.66568659  1
  H+  H22  1  0.36551080  0.88658020  0.49694667  1
  H+  H23  1  1.02963352  0.88610634  0.34458153  1
  H+  H24  1  0.64047355  0.52574372  0.31219217  1
  H+  H25  1  0.61066873  0.96957247  0.82749351  1
  H+  H26  1  0.76657412  0.12402816  0.83712781  1
  H+  H27  1  0.37017332  0.12530729  0.65804854  1
  H+  H28  1  0.60064086  0.10238102  0.53577629  1
  H+  H29  1  0.14937298  0.98607926  0.17663181  1
  H+  H30  1  0.00059009  0.39448930  0.81630855  1
  H+  H31  1  0.63136022  0.39255555  0.82018200  1
  H+  H32  1  0.13824259  0.39059142  0.84064460  1
  H+  H33  1  0.38870645  0.85595602  0.99250336  1
  H+  H34  1  0.60747098  0.06174338  0.33377407  1
  H+  H35  1  0.36987231  0.38683462  0.00161404  1
  H+  H36  1  0.61212087  0.11572321  1.00556696  1
  H+  H37  1  0.90374166  0.03112083  0.32922991  1
  H+  H38  1  0.59376066  0.93700308  0.34280451  1
  H+  H39  1  1.12218048  0.97396915  0.50143508  1
  H+  H40  1  0.47260192  0.84793485  0.84386868  1
  H+  H41  1  0.33926949  0.86507894  0.33983945  1
  H+  H42  1  0.38351565  0.60344421  1.00257483  1
  H+  H43  1  0.58094818  0.46148037  0.51855694  1
  H+  H44  1  0.24645723  0.14857510  0.99153044  1
  H+  H45  1  0.91782890  0.28945290  -0.00410485  1
  H+  H46  1  0.47571154  0.12631046  0.49570844  1
  H+  H47  1  0.47232508  0.86470905  0.51170127  1
  H+  H48  1  0.34095404  0.44336600  0.82633460  1
  H+  H49  1  0.27371217  0.38335904  1.01054593  1
  H+  H50  1  0.36519908  0.81739549  0.60258602  1
  H+  H51  1  0.15442568  0.35940039  0.84345783  1
  H+  H52  1  0.63453330  0.85917960  -0.00479396  1
  H+  H53  1  0.60629947  0.97263682  0.14967008  1
  H+  H54  1  0.12432509  0.64678616  0.67821988  1
  H+  H55  1  0.05490909  0.11077260  0.16135157  1
  H+  H56  1  0.76839654  0.89403599  0.83122316  1
  H+  H57  1  0.86904359  0.93626176  0.08666211  1
  H+  H58  1  0.82955147  0.46093228  0.99433095  1
  H+  H59  1  0.05195692  0.38824339  0.01226613  1
  H+  H60  1  0.33005156  0.14370866  0.07833912  1
  H+  H61  1  0.73077362  0.11968562  0.67386475  1
  H+  H62  1  0.73087984  0.35900700  0.15730043  1
  H+  H63  1  0.87443755  0.82702715  0.15486928  1
  H+  H64  1  0.97025103  0.10966387  0.52094001  1
  H+  H65  1  0.36147403  0.64150498  0.34162470  1
  H+  H66  1  0.53849956  0.61670626  0.10372893  1
  H+  H67  1  0.65212816  0.89581000  0.30517650  1
  H+  H68  1  0.65949026  0.53667539  0.16842083  1
  H+  H69  1  0.14755160  0.27715638  0.01028534  1
  H+  H70  1  0.23841308  0.87060522  0.51061713  1
  H+  H71  1  0.37023517  0.40597835  0.67370608  1
  H+  H72  1  0.86176801  0.23435307  0.16146689  1
  H+  H73  1  0.11602162  0.22871969  0.32355478  1
  H+  H74  1  0.87126431  0.62023106  0.99744349  1
  H+  H75  1  0.14522999  0.11760776  0.66058885  1
  H+  H76  1  0.00051339  0.02241263  0.12713880  1
  H+  H77  1  0.97833085  0.60429568  0.17435303  1
  H+  H78  1  0.35796064  0.13091452  0.49692044  1
  H+  H79  1  0.60639475  0.16986528  0.44306714  1
  H+  H80  1  0.78672744  0.40892091  0.49524228  1
  H+  H81  1  0.66924000  0.83167672  0.93813708  1
  H+  H82  1  0.86783610  0.14183969  0.34252568  1
  H+  H83  1  0.60401461  0.63336083  0.00584165  1
  H+  H84  1  0.87855657  0.61698818  0.66652235  1
  H+  H85  1  0.74225129  0.86453089  0.67663055  1
  H+  H86  1  1.01072171  0.63304493  0.50622508  1
  H+  H87  1  0.14968656  0.79826148  0.82926123  1
  H+  H88  1  0.28377292  0.06413111  0.03484998  1
  H+  H89  1  0.11402393  0.15035623  -0.00249682  1
  H+  H90  1  0.73181639  0.60836182  0.32295059  1
  H+  H91  1  0.86615892  0.23753903  0.49502996  1
  H+  H92  1  0.11634602  0.62746019  0.17116141  1
  H+  H93  1  0.78853951  0.87764538  0.28638313  1
  H+  H94  1  0.89600678  0.61411299  0.17706241  1
  H+  H95  1  0.37295688  0.72635082  0.01405115  1
  H+  H96  1  0.86918880  0.73659585  0.82721734  1
  H+  H97  1  0.10825895  0.88822542  0.67217178  1
  H+  H98  1  0.43981148  0.07620412  0.33750783  1
  H+  H99  1  0.45131996  0.59671480  0.31221919  1
  H+  H100  1  0.08764514  0.91798039  0.43438318  1
  H+  H101  1  0.13819690  0.57043278  0.89241187  1
  H+  H102  1  0.62484048  0.89086671  0.68014319  1
  H+  H103  1  0.49305394  0.13239976  0.18978311  1
  H+  H104  1  0.87909371  0.49524842  0.49447175  1
  H+  H105  1  0.44845225  0.34442345  0.53468242  1
  H+  H106  1  0.89691827  0.89098568  0.34377011  1
  H+  H107  1  0.88914957  0.86888724  0.66680876  1
  H+  H108  1  0.27977675  0.63910343  0.49925380  1
  H+  H109  1  0.38534951  0.61739266  0.51250959  1
  H+  H110  1  0.26234073  0.39104341  0.35617256  1
  H+  H111  1  0.03789316  0.11850333  0.81244762  1
  H+  H112  1  0.14726155  0.52923064  0.52041513  1
  H+  H113  1  0.89371062  0.75079539  0.31929616  1
  H+  H114  1  -0.02220513  0.87911946  0.83582191  1
  H+  H115  1  0.10624910  -0.01487705  0.34650677  1
  H+  H116  1  0.38421874  0.52640971  0.51414193  1
  H+  H117  1  0.64169654  0.11394192  0.83158808  1
  H+  H118  1  0.09823853  0.73154908  0.34853345  1
  H+  H119  1  0.37133813  0.48679005  0.00406462  1
  H+  H120  1  0.87876395  0.97711276  0.15281983  1
  H+  H121  1  0.15530417  0.52309061  0.33194455  1
  H+  H122  1  0.13683927  0.78184113  0.66059326  1
  H+  H123  1  0.51872064  0.19132467  0.28598042  1
  H+  H124  1  0.64048233  0.26833290  0.83112101  1
  H+  H125  1  0.88988855  0.11327586  0.67065517  1
  H+  H126  1  0.39687488  0.26431840  0.32739784  1
  H+  H127  1  0.42736272  0.49375508  0.15105034  1
  H+  H128  1  0.11266601  0.48160726  0.16593549  1
  H+  H129  1  0.30752543  -0.06881257  0.77197262  1
  H+  H130  1  0.86788509  0.98231403  0.67810821  1
  H+  H131  1  0.20395251  0.85133022  0.33238617  1
  H+  H132  1  0.88201002  0.11319549  0.88941687  1
  H+  H133  1  0.13426116  0.84420067  0.17313533  1
  H+  H134  1  0.42284251  0.09347502  0.56184600  1
  H+  H135  1  0.10794010  0.21389469  0.50847656  1
  H+  H136  1  0.89510864  0.37647327  0.51004875  1
  H+  H137  1  0.84095595  0.16984645  0.74390380  1
  H+  H138  1  0.03163503  0.39346333  0.50911730  1
  H+  H139  1  0.53707750  0.39203093  0.16472642  1
  H+  H140  1  0.60096910  0.71989972  0.01167185  1
  H+  H141  1  0.58315010  0.70685514  0.28974977  1
  H+  H142  1  0.29347364  0.13845179  0.81873063  1
  H+  H143  1  0.38389889  0.55778962  0.89680958  1
  H+  H144  1  0.92897782  0.58031474  1.01643169  1
  H+  H145  1  0.27631705  0.88976840  0.16025954  1
  H+  H146  1  0.61938589  0.39312244  0.67081391  1
  H+  H147  1  0.77288896  0.89321309  1.00436124  1
  H+  H148  1  0.87713854  0.37371634  0.32076181  1
  H+  H149  1  0.34335600  0.21178436  0.50440836  1
  H+  H150  1  0.51917368  0.39978881  1.01070855  1
  H+  H151  1  0.41203272  0.32787895  0.93080063  1
  H+  H152  1  0.49017087  0.11286446  0.98899706  1
  H+  H153  1  0.88197339  0.35551733  0.84626587  1
  H+  H154  1  0.62482113  -0.00046252  0.98481973  1
  H+  H155  1  0.45659127  0.87375967  0.32775562  1
  H+  H156  1  0.73157319  0.61920509  0.84400294  1
  H+  H157  1  0.29255804  0.89739536  0.00848410  1
  H+  H158  1  0.88358974  0.52137778  0.84352671  1
  H+  H159  1  0.39820811  0.26857006  0.84413384  1
  H+  H160  1  0.64054364  0.13453034  0.51935290  1
  H+  H161  1  0.22499871  0.60511245  0.18086565  1
  H+  H162  1  0.12737487  0.36333484  0.33392606  1
  H+  H163  1  0.35024608  0.58083861  0.83659306  1
  H+  H164  1  0.89197154  0.27019856  0.84429811  1
  H+  H165  1  0.38103589  0.89828502  0.68917251  1
  H+  H166  1  0.69135137  0.83604385  0.14291507  1
  H+  H167  1  0.91164058  0.66352044  0.49208656  1
  H+  H168  1  0.64188623  0.29966723  0.30985523  1
  H+  H169  1  0.51282264  0.63888578  0.49360804  1
  H+  H170  1  1.09180563  0.67472514  0.43630276  1
  H+  H171  1  0.59762370  0.63375477  0.49468276  1
  H+  H172  1  0.73471350  0.11510421  0.18011663  1
  H+  H173  1  0.91690860  0.33950543  0.57011770  1
  H+  H174  1  0.09214779  0.50083962  0.81736109  1
  H+  H175  1  0.04237042  0.44694328  0.37479951  1
  H+  H176  1  0.14830300  0.86369910  1.00066241  1
  H+  H177  1  0.70988589  0.34294163  0.98392744  1
  H+  H178  1  0.95398742  0.35428703  0.31948782  1
  H+  H179  1  0.77799925  0.40617204  0.33511856  1
  H+  H180  1  0.12661388  0.20762127  0.81979429  1
  H+  H181  1  0.23168380  0.10919634  0.66166720  1
  H+  H182  1  0.46667053  0.86586697  0.17536789  1
  H+  H183  1  0.47352197  0.60500567  -0.00312601  1
  H+  H184  1  0.67706955  0.33567843  0.60325315  1
  H+  H185  1  0.51285236  0.87271093  -0.00326489  1
  H+  H186  1  0.22012781  0.09554419  0.51204769  1
  H+  H187  1  -0.02150424  0.86794611  0.66234782  1
  H+  H188  1  0.85835233  0.98572526  -0.00435807  1
  H+  H189  1  0.03684983  0.50315894  0.96098536  1
  H+  H190  1  0.85607838  0.14160588  0.16265718  1
  H+  H191  1  0.64661801  0.57675526  0.58068572  1
  H+  H192  1  0.03100344  0.14127921  0.66537527  1
  H+  H193  1  0.51938418  0.13595321  0.66312898  1
  H+  H194  1  0.62376590  0.39012935  0.15506847  1
  H+  H195  1  0.38209638  0.15070620  0.17251397  1
  H+  H196  1  0.62828697  0.52890798  0.99711645  1
  H+  H197  1  0.77475527  0.38185722  0.68098004  1
  H+  H198  1  0.01208181  0.87717627  0.00121409  1
  H+  H199  1  0.97443871  0.95963611  0.37701748  1
  H+  H200  1  0.84577399  0.99042114  0.82569961  1
  H+  H201  1  0.40479876  0.36828036  0.17444232  1
  H+  H202  1  0.05159618  0.67743988  0.01060406  1
  H+  H203  1  0.86303027  0.73153117  0.67562070  1
  H+  H204  1  0.28604532  0.64087381  0.02644003  1
  H+  H205  1  0.38399048  0.76063186  0.83952713  1
  H+  H206  1  0.36216833  0.73154836  0.34316384  1
  H+  H207  1  0.86247537  0.47103512  0.68822688  1
  H+  H208  1  0.79213564  0.21316989  0.01761365  1
  H+  H209  1  0.28276709  0.12256308  0.16652994  1
  H+  H210  1  0.18645731  0.59907421  0.61186156  1
  H+  H211  1  0.12130286  0.39410151  0.67643970  1
  H+  H212  1  0.38598762  0.52680782  0.66528453  1
  H+  H213  1  -0.01473012  0.12182533  0.31775346  1
  H+  H214  1  0.64437592  0.77710824  0.84432639  1
  H+  H215  1  0.62918910  0.76930243  0.48263264  1
  H+  H216  1  0.68851412  0.58435037  0.51592399  1
  H+  H217  1  0.71794036  0.61895767  -0.00320734  1
  H+  H218  1  0.48374664  0.61919787  0.66347883  1
  H+  H219  1  0.76851069  0.85867536  0.31670603  1
  H+  H220  1  0.40314405  0.32262368  0.71247055  1
  H+  H221  1  0.11043863  -0.02147103  0.67094382  1
  H+  H222  1  0.88596889  0.87196367  0.98655059  1
  H+  H223  1  0.62757690  0.25084144  -0.01717849  1
  H+  H224  1  0.25843560  0.62850051  0.82188125  1
  H+  H225  1  0.61304839  0.12785440  0.16505107  1
  H+  H226  1  0.86826098  0.64605677  0.82766066  1
  H+  H227  1  0.68845906  0.93961697  0.31460640  1
  H+  H228  1  0.39445844  0.27385781  0.17180713  1
  H+  H229  1  0.67552546  0.76198547  0.26588146  1
  H+  H230  1  0.89115527  0.12502808  0.51553276  1
  H+  H231  1  0.62520220  -0.02305811  0.50048872  1
  H+  H232  1  0.01093407  0.84920199  0.15705612  1
  H+  H233  1  0.08111168  0.24355762  0.16609353  1
  H+  H234  1  0.61121508  0.72322679  0.68229075  1
  H+  H235  1  0.16724407  0.78732583  1.00608518  1
  H+  H236  1  0.77692290  0.87251272  0.47811031  1
  H+  H237  1  0.86654998  0.54571915  0.33602313  1
  H+  H238  1  0.34463169  0.48194237  0.34982245  1
  H+  H239  1  0.40340107  0.11388495  0.82928771  1
  H+  H240  1  0.02187710  0.64404165  0.82772451  1
  H+  H241  1  0.52815261  0.12933417  0.82198186  1
  H+  H242  1  0.63987760  0.37171638  0.51654245  1
  H+  H243  1  0.75658261  0.10122193  0.51642725  1
  H+  H244  1  0.12435616  0.62011266  0.83555187  1
  H+  H245  1  0.38666880  0.77272012  0.50674085  1
  H+  H246  1  0.23570972  0.61654680  0.32915313  1
  H+  H247  1  0.60912935  0.13642876  0.66741418  1
  H+  H248  1  0.88715885  0.87576688  0.83869410  1
  H+  H249  1  0.13945259  0.06451641  0.16450426  1
  H+  H250  1  0.11384920  0.99319985  0.81907118  1
  H+  H251  1  0.08693553  0.22723760  0.19643129  1
  H+  H252  1  0.26188819  0.40191184  0.18795134  1
  H+  H253  1  0.66828216  0.58503958  0.90176373  1
  H+  H254  1  0.14537457  0.88283072  0.82804895  1
  H+  H255  1  0.57766901  0.59346651  0.15884937  1
  H+  H256  1  0.34698456  0.11669291  0.34652042  1
  H+  H257  1  0.96248596  0.13734491  0.18436360  1
  H+  H258  1  0.22434864  0.19439024  0.93660731  1
  H+  H259  1  0.39657800  0.35561383  0.84264690  1
  H+  H260  1  0.91320457  0.83777229  0.57814421  1
  H+  H261  1  -0.01772552  0.36844509  0.66105081  1
  H+  H262  1  0.12899921  0.40499536  0.16832233  1
  H+  H263  1  0.03128504  0.63623425  0.67269948  1
  H+  H264  1  0.11586506  0.50828291  0.99228905  1
  H+  H265  1  0.36945511  0.97858842  0.49212558  1
  H+  H266  1  0.21314402  0.87190317  0.67824801  1
  H+  H267  1  0.91113663  0.80552127  0.25999535  1
  H+  H268  1  0.00743312  0.64864026  0.35930508  1
  H+  H269  1  0.77068677  0.37700252  0.83637328  1
  H+  H270  1  0.88211332  0.12828061  -0.00839514  1
  H+  H271  1  0.59581447  0.87840912  0.14199662  1
  H+  H272  1  0.35386322  0.39006859  0.50296967  1
  H+  H273  1  0.13178005  0.73364396  0.49728233  1
  H+  H274  1  0.87011606  0.23025618  0.68431242  1
  H+  H275  1  0.72448859  0.61749317  0.66445421  1
  H+  H276  1  0.98019799  0.36501519  0.17047012  1
  H+  H277  1  0.62221214  0.64361877  0.83405617  1
  H+  H278  1  0.22419016  0.36448212  0.51323650  1
  H+  H279  1  0.89158083  0.36392461  0.66743369  1
  H+  H280  1  0.11589111  0.13863942  0.32116857  1
  H+  H281  1  0.14371586  0.76218422  0.17948946  1
  H+  H282  1  0.91132623  0.33913926  0.22482812  1
  H+  H283  1  0.61920620  0.97618057  0.68187317  1
  H+  H284  1  0.86236681  0.47643443  0.15045857  1
  H+  H285  1  0.36295346  0.21262308  0.66445356  1
  H+  H286  1  0.63159689  0.48276293  0.82332387  1
  H+  H287  1  0.85839152  0.73685817  0.00224448  1
  H+  H288  1  0.41045736  0.81576885  0.93263577  1
  H+  H289  1  0.56252132  0.95114597  0.40584118  1
  H+  H290  1  0.13004823  0.48888142  0.67380009  1
  H+  H291  1  0.38392260  0.87589166  0.17780743  1
  H+  H292  1  0.40511711  0.83491524  0.26449032  1
  H+  H293  1  0.28105861  0.33885320  0.82098324  1
  H+  H294  1  0.83821471  0.17571021  0.43525895  1
  H+  H295  1  0.48921340  0.37600986  0.67592538  1
  H+  H296  1  0.90583912  0.08375328  0.23959386  1
  H+  H297  1  0.08861765  0.41995534  0.42221525  1
  H+  H298  1  0.66315104  0.07747008  0.89322896  1
  H+  H299  1  0.62110765  0.22012845  0.15696215  1
  H+  H300  1  0.83575197  0.68915040  0.06621217  1
  H+  H301  1  0.91201641  0.08455017  0.60694911  1
  H+  H302  1  0.83676626  0.43324784  0.39617443  1
  H+  H303  1  0.10414962  0.12381890  0.50932185  1
  H+  H304  1  0.14977291  0.61938203  0.51403047  1
  H+  H305  1  0.18884955  0.08389597  0.89033074  1
  H+  H306  1  0.60259723  0.88919762  0.47080855  1
  H+  H307  1  0.17229090  0.06506028  0.26546444  1
  H+  H308  1  0.31770901  0.89744055  0.40302837  1
  H+  H309  1  0.65928977  0.84479514  0.53020195  1
  H+  H310  1  0.36975642  0.02725751  0.63134068  1
  H+  H311  1  0.60101221  0.42672505  0.73501504  1
  H+  H312  1  0.58090896  0.43068619  0.06920049  1
  H+  H313  1  0.57074173  0.91115801  0.05682485  1
  H+  H314  1  0.61600395  0.78182659  0.18805404  1
  H+  H315  1  0.17703731  0.84354862  0.57033725  1
  H+  H316  1  0.59428975  0.42761277  0.37516146  1
  H+  H317  1  0.09184812  0.66069395  0.11087312  1
  H+  H318  1  0.11882182  0.38770206  0.50992826  1
  H+  H319  1  0.34065994  0.92417907  0.10366541  1
  H+  H320  1  0.91464376  0.83976111  0.92754892  1
  H+  H321  1  0.67840351  0.33846213  0.21896668  1
  H+  H322  1  0.35967672  0.42641915  0.10602112  1
  H+  H323  1  0.41938807  0.08847527  0.24226718  1
  H+  H324  1  0.83367679  0.67319060  0.73594602  1
  H+  H325  1  0.68070500  0.59640849  0.22640711  1
  H+  H326  1  0.55879496  0.64052784  0.39101233  1
  H+  H327  1  0.06865065  0.43314730  0.75125547  1
  H+  H328  1  0.58271389  0.90880216  0.76984546  1
  H+  H329  1  0.34674355  0.65169649  0.12519244  1
  H+  H330  1  0.06695773  0.13884948  0.05950126  1
  H+  H331  1  0.74961071  0.02445587  0.55339347  1
  H+  H332  1  0.26201597  0.48453701  0.20285507  1
  H+  H333  1  0.68672735  0.03573593  0.22447900  1
  H+  H334  1  0.63764329  0.27290135  0.66022553  1
  H+  H335  1  0.10138332  0.96253873  0.00782968  1
  H+  H336  1  0.85458457  0.54243042  0.62007583  1
  H+  H337  1  0.16749646  0.57622345  0.24083090  1
  H+  H338  1  0.33726167  0.66802589  0.43769567  1
  H+  H339  1  0.32841580  0.42686297  0.44300527  1
  H+  H340  1  0.91153426  0.58510023  0.89968668  1
  H+  H341  1  0.15804525  0.37124688  1.00808486  1
  H+  H342  1  0.68728557  0.82375785  0.61781772  1
  H+  H343  1  0.16306782  0.06512872  0.57345918  1
  H+  H344  1  0.58588191  0.16742296  0.31650475  1
  H+  H345  1  0.07001697  0.88829868  0.09862328  1
  H+  H346  1  0.19027238  0.27261293  0.88978729  1
  H+  H347  1  0.18240746  0.36951056  0.27555089  1
  H+  H348  1  0.83892607  0.92591869  0.74006014  1
  H+  H349  1  0.38033416  0.58415731  0.26053622  1
  H+  H350  1  0.42266885  0.32114609  0.26571921  1
  H+  H351  1  0.38069896  0.31608127  0.58651095  1
  H+  H352  1  0.33376814  0.42151886  0.73438161  1
  H+  H353  1  0.42932660  0.08235933  0.88859090  1
  H+  H354  1  0.15205277  0.82161817  0.27138829  1
  H+  H355  1  0.58606052  0.14941720  0.06598596  1
  H+  H356  1  0.32435947  0.15792547  0.40322012  1
  H+  H357  1  0.83395968  0.40814360  0.77949177  1
  H+  H358  1  0.63844028  0.86388937  0.84393326  1
  H+  H359  1  0.19307233  0.15506724  0.84806899  1
  H+  H360  1  0.56096883  0.20738935  0.40421746  1
  H+  H361  1  0.53960340  0.39188785  0.46634502  1
  H+  H362  1  0.30139482  0.64866505  0.75763253  1
  H+  H363  1  0.82443676  0.17822739  0.07160403  1
  H+  H364  1  0.95066820  0.61365944  0.56583063  1
  H+  H365  1  0.58596895  0.16119831  0.76171592  1
  H+  H366  1  0.81932807  0.40950819  0.05467737  1
  H+  H367  1  0.34960053  0.16522339  0.75863508  1
  H+  H368  1  0.78739239  0.67324126  0.16461474  1
  H+  H369  1  0.41803521  0.58767413  0.59981517  1
  H+  H370  1  0.68323206  0.07952493  0.61231326  1
  H+  H371  1  0.65584659  0.11470494  0.27493643  1
  H+  H372  1  0.63791654  0.52388979  0.66666301  1
  H+  H373  1  0.65277930  0.39061353  0.30591103  1
  H+  H374  1  0.16717798  0.33389598  0.57358753  1
  H+  H375  1  0.08541308  0.17294470  0.72576402  1
  H+  H376  1  0.07772398  0.92777673  0.76316566  1
  H+  H377  1  0.58279077  0.66895833  0.77886794  1
  H+  H378  1  0.08230212  0.67365836  0.76875089  1
  H+  H379  1  0.60627984  0.63216856  0.67841907  1
  H+  H380  1  0.94734303  0.33830838  0.93295436  1
  H+  H381  1  0.13927052  0.27724774  0.66418222  1
  H+  H382  1  0.51916704  0.37988388  0.32364395  1
  H+  H383  1  0.86367145  0.91562835  0.43469354  1
  O2-  O384  1  0.05834715  0.07656420  0.12816633  1
  O2-  O385  1  0.07189443  0.15255749  0.49791173  1
  O2-  O386  1  0.06931384  0.17621226  0.79571890  1
  O2-  O387  1  0.08759503  0.42038967  0.15014522  1
  O2-  O388  1  0.09306470  0.42372004  0.49603202  1
  O2-  O389  1  0.04891188  0.44462265  0.79277853  1
  O2-  O390  1  0.08587180  0.65812443  0.15559667  1
  O2-  O391  1  0.10148287  0.67304014  0.48287557  1
  O2-  O392  1  0.08280344  0.67382767  0.81414692  1
  O2-  O393  1  0.07120465  0.88438407  0.14373388  1
  O2-  O394  1  0.09644141  0.91306842  0.48040732  1
  O2-  O395  1  0.07688373  0.93152417  0.80850722  1
  O2-  O396  1  0.34083636  0.16298818  0.14973833  1
  O2-  O397  1  0.31989714  0.15501143  0.48437848  1
  O2-  O398  1  0.35390682  0.17117768  0.80389969  1
  O2-  O399  1  0.37478775  0.43482070  0.14933947  1
  O2-  O400  1  0.33044752  0.42687721  0.48989806  1
  O2-  O401  1  0.33273436  0.39191609  0.80284145  1
  O2-  O402  1  0.32983755  0.64498742  0.16842750  1
  O2-  O403  1  0.34010713  0.66791653  0.48357358  1
  O2-  O404  1  0.31472760  0.65050799  0.80195896  1
  O2-  O405  1  0.33734420  0.92765539  0.14851639  1
  O2-  O406  1  0.33515056  0.91672662  0.48049915  1
  O2-  O407  1  0.25455041  0.91169258  0.74801299  1
  O2-  O408  1  0.58538494  0.15723321  0.14641538  1
  O2-  O409  1  0.57611564  0.20200588  0.44677109  1
  O2-  O410  1  0.59073811  0.16091145  0.80671595  1
  O2-  O411  1  0.59658184  0.42597945  0.14813799  1
  O2-  O412  1  0.55543660  0.39854976  0.50918187  1
  O2-  O413  1  0.60965520  0.42795422  0.80050237  1
  O2-  O414  1  0.52351619  0.58721310  0.14338430  1
  O2-  O415  1  0.57166365  0.66475377  0.47484516  1
  O2-  O416  1  0.59525929  0.67839017  0.82251649  1
  O2-  O417  1  0.56895909  0.91511510  0.13286456  1
  O2-  O418  1  0.57923291  0.92815760  0.47638305  1
  O2-  O419  1  0.58241596  0.90822039  0.81590899  1
  O2-  O420  1  0.82654117  0.17247123  0.14712377  1
  O2-  O421  1  0.83812475  0.17687973  0.48109145  1
  O2-  O422  1  0.83354134  0.15820891  0.82737542  1
  O2-  O423  1  0.83253553  0.41649003  0.13299062  1
  O2-  O424  1  0.84629770  0.43549683  0.47898989  1
  O2-  O425  1  0.83455133  0.40952482  0.82470450  1
  O2-  O426  1  0.84831155  0.70510491  0.14743438  1
  O2-  O427  1  0.88421477  0.69574527  0.47225400  1
  O2-  O428  1  0.83829915  0.67612154  0.81191938  1
  O2-  O429  1  0.89516125  0.94182027  0.12816877  1
  O2-  O430  1  0.84043311  0.89987666  0.47760793  1
  O2-  O431  1  0.82949910  0.93078939  0.81528937  1
  O2-  O432  1  0.17719071  0.04816781  0.18673060  1
  O2-  O433  1  0.15959767  0.05968780  0.52754149  1
  O2-  O434  1  0.18944627  0.09620569  0.84679234  1
  O2-  O435  1  0.22258066  0.41937232  0.20569101  1
  O2-  O436  1  0.16374556  0.33107199  0.52821857  1
  O2-  O437  1  0.21044358  0.25043253  0.85726747  1
  O2-  O438  1  0.16349925  0.57661067  0.19439605  1
  O2-  O439  1  0.17963716  0.59094041  0.53314132  1
  O2-  O440  1  0.14638940  0.57925975  0.84776213  1
  O2-  O441  1  0.17127273  0.82401098  0.19169599  1
  O2-  O442  1  0.17653537  0.84092392  0.52453951  1
  O2-  O443  1  0.18263765  0.85949656  0.84035223  1
  O2-  O444  1  0.45250456  0.13992526  0.21643497  1
  O2-  O445  1  0.41875447  0.08914472  0.51371656  1
  O2-  O446  1  0.43301935  0.08305025  0.84379209  1
  O2-  O447  1  0.42970915  0.33218871  0.18930372  1
  O2-  O448  1  0.38571833  0.31657863  0.54202577  1
  O2-  O449  1  0.42083277  0.32483581  0.86531217  1
  O2-  O450  1  0.34590253  0.57797841  0.18941255  1
  O2-  O451  1  0.41664881  0.58789123  0.52961558  1
  O2-  O452  1  0.36008037  0.53687744  0.85620308  1
  O2-  O453  1  0.41036843  0.84272048  0.19536872  1
  O2-  O454  1  0.41095028  0.83254837  0.52284116  1
  O2-  O455  1  0.41407167  0.81575908  0.86143758  1
  O2-  O456  1  0.67693507  0.07491318  0.19944745  1
  O2-  O457  1  0.71424912  0.04875426  0.54068084  1
  O2-  O458  1  0.67259295  0.08363670  0.84834130  1
  O2-  O459  1  0.67101131  0.32642387  0.17441453  1
  O2-  O460  1  0.67764561  0.34651737  0.52017714  1
  O2-  O461  1  0.67036596  0.32768422  0.84849354  1
  O2-  O462  1  0.68458912  0.59800459  0.18116225  1
  O2-  O463  1  0.63331825  0.56692763  0.53485789  1
  O2-  O464  1  0.67043416  0.58467856  0.85621318  1
  O2-  O465  1  0.62974638  0.81102874  0.14752671  1
  O2-  O466  1  0.66562073  0.83401304  0.48769055  1
  O2-  O467  1  0.67373556  0.83868368  0.85971049  1
  O2-  O468  1  0.90518963  0.08919338  0.19284374  1
  O2-  O469  1  0.90975004  0.08767966  0.53540655  1
  O2-  O470  1  0.86864087  0.10267403  0.84519850  1
  O2-  O471  1  0.91719606  0.33557889  0.17991842  1
  O2-  O472  1  0.92176258  0.34291870  0.52481583  1
  O2-  O473  1  0.92199002  0.33226739  0.85525431  1
  O2-  O474  1  0.91525833  0.57253731  0.18268487  1
  O2-  O475  1  0.94777985  0.60828942  0.52129720  1
  O2-  O476  1  0.91363128  0.58364958  0.85477618  1
  O2-  O477  1  0.89294453  0.79053714  0.17677092  1
  O2-  O478  1  0.91627112  0.84112540  0.53137689  1
  O2-  O479  1  0.91694728  0.84445201  0.85165014  1
  O2-  O480  1  0.16677304  0.07443735  0.30945053  1
  O2-  O481  1  0.17011226  0.08134291  0.64728810  1
  O2-  O482  1  0.19953464  0.14693895  0.96655823  1
  O2-  O483  1  0.16250642  0.34117690  0.31608552  1
  O2-  O484  1  0.16703692  0.33979377  0.65168279  1
  O2-  O485  1  0.18569223  0.33684926  0.99548306  1
  O2-  O486  1  0.17752723  0.57851546  0.31143362  1
  O2-  O487  1  0.18054130  0.59584154  0.65759536  1
  O2-  O488  1  0.09794072  0.54395599  0.96710651  1
  O2-  O489  1  0.14462942  0.82452667  0.31601112  1
  O2-  O490  1  0.16548490  0.84276239  0.64751196  1
  O2-  O491  1  0.19080111  0.84635813  0.99104789  1
  O2-  O492  1  0.38291677  0.04968878  0.31900834  1
  O2-  O493  1  0.41349346  0.08797163  0.62949401  1
  O2-  O494  1  0.43081962  0.08471584  0.97117060  1
  O2-  O495  1  0.43031854  0.32344423  0.31088504  1
  O2-  O496  1  0.42378296  0.34482304  0.67164582  1
  O2-  O497  1  0.40855471  0.33460122  0.97851124  1
  O2-  O498  1  0.39071837  0.58001240  0.30547601  1
  O2-  O499  1  0.42121783  0.58790046  0.64694666  1
  O2-  O500  1  0.40977864  0.57038210  0.98509117  1
  O2-  O501  1  0.40014406  0.83056411  0.31150850  1
  O2-  O502  1  0.33091018  0.80937438  0.63924628  1
  O2-  O503  1  0.41311907  0.81911310  0.97929494  1
  O2-  O504  1  0.63780009  0.12061446  0.31595302  1
  O2-  O505  1  0.67256481  0.08854073  0.65507530  1
  O2-  O506  1  0.65866547  0.06218939  0.97064478  1
  O2-  O507  1  0.68486808  0.35958017  0.29717626  1
  O2-  O508  1  0.67392701  0.33535137  0.64826431  1
  O2-  O509  1  0.65200878  0.30874502  0.96503605  1
  O2-  O510  1  0.67477570  0.58948367  0.30515380  1
  O2-  O511  1  0.66320782  0.58522801  0.65073081  1
  O2-  O512  1  0.65953206  0.58958269  0.97907576  1
  O2-  O513  1  0.61809036  0.75358103  0.26063249  1
  O2-  O514  1  0.68041801  0.82796350  0.66121027  1
  O2-  O515  1  0.66932857  0.83184748  0.98382276  1
  O2-  O516  1  0.91976599  0.08681600  0.30994910  1
  O2-  O517  1  0.91676044  0.08138632  0.65312974  1
  O2-  O518  1  0.90761127  0.09935644  0.96905625  1
  O2-  O519  1  0.89669709  0.33477831  0.30308464  1
  O2-  O520  1  0.92067652  0.33413090  0.64950228  1
  O2-  O521  1  0.95987180  0.34413901  0.97724585  1
  O2-  O522  1  0.89809987  0.60901902  0.32674611  1
  O2-  O523  1  0.90034578  0.57949197  0.64806808  1
  O2-  O524  1  0.89898424  0.58690292  0.98186091  1
  O2-  O525  1  0.91920791  0.81056610  0.30441391  1
  O2-  O526  1  0.91565034  0.83624365  0.64865803  1
  O2-  O527  1  0.91359345  0.83826658  0.97347360  1
  O2-  O528  1  0.07359772  0.16477047  0.01869502  1
  O2-  O529  1  0.08100126  0.16583756  0.33010793  1
  O2-  O530  1  0.09181905  0.17301779  0.67956257  1
  O2-  O531  1  0.11127515  0.42598741  0.02951455  1
  O2-  O532  1  0.07729330  0.41958893  0.37679318  1
  O2-  O533  1  0.09178618  0.42771589  0.68704349  1
  O2-  O534  1  0.09889919  0.67408450  0.02932886  1
  O2-  O535  1  0.06821954  0.67432203  0.37054852  1
  O2-  O536  1  0.08820059  0.67244754  0.69022571  1
  O2-  O537  1  0.07101686  0.90257146  0.02031701  1
  O2-  O538  1  0.06238162  0.93558335  0.37189364  1
  O2-  O539  1  0.07551562  0.91748641  0.68520196  1
  O2-  O540  1  0.31655819  0.12676945  0.03362994  1
  O2-  O541  1  0.32665574  0.15733659  0.35794146  1
  O2-  O542  1  0.33563352  0.15387238  0.67994436  1
  O2-  O543  1  0.34132359  0.41968086  0.02006122  1
  O2-  O544  1  0.32096970  0.42742057  0.37286989  1
  O2-  O545  1  0.33750808  0.43352710  0.68839360  1
  O2-  O546  1  0.34734202  0.66750666  0.03416399  1
  O2-  O547  1  0.33535695  0.67315618  0.36212262  1
  O2-  O548  1  0.27074144  0.64485478  0.67817999  1
  O2-  O549  1  0.35422781  0.92286242  0.02149774  1
  O2-  O550  1  0.30862632  0.89405380  0.35815786  1
  O2-  O551  1  0.41107078  0.94773319  0.71766319  1
  O2-  O552  1  0.58560309  0.14929268  0.02076797  1
  O2-  O553  1  0.55514949  0.20185864  0.32262063  1
  O2-  O554  1  0.57914252  0.16799983  0.67992476  1
  O2-  O555  1  0.57862264  0.43682665  0.02448055  1
  O2-  O556  1  0.58596759  0.42390846  0.33141980  1
  O2-  O557  1  0.59187548  0.42512601  0.68722311  1
  O2-  O558  1  0.56811999  0.65778291  0.02191802  1
  O2-  O559  1  0.55260653  0.62661954  0.34720268  1
  O2-  O560  1  0.57327710  0.66073289  0.69126454  1
  O2-  O561  1  0.57475920  0.90667346  0.01158053  1
  O2-  O562  1  0.55774671  0.95792834  0.36075241  1
  O2-  O563  1  0.59076423  0.91564816  0.69551447  1
  O2-  O564  1  0.82370399  0.18311835  0.02584325  1
  O2-  O565  1  0.83413456  0.16648828  0.36015865  1
  O2-  O566  1  0.83824874  0.16969103  0.69889982  1
  O2-  O567  1  0.81219062  0.40333955  0.00971391  1
  O2-  O568  1  0.83851599  0.43812907  0.35110308  1
  O2-  O569  1  0.83431787  0.40955188  0.69870024  1
  O2-  O570  1  0.82948079  0.67862290  0.02178001  1
  O2-  O571  1  0.84449144  0.64276637  0.35118618  1
  O2-  O572  1  0.83176727  0.67045319  0.69000340  1
  O2-  O573  1  0.83641241  0.92802556  0.01402732  1
  O2-  O574  1  0.91336213  0.94218794  0.36952364  1
  O2-  O575  1  0.83971567  0.92125600  0.69442260  1
