# generated using pymatgen
data_H2O
_symmetry_space_group_name_H-M   'P 1'
_cell_length_a   17.98571710
_cell_length_b   17.98965491
_cell_length_c   22.01781120
_cell_angle_alpha   90.00649796
_cell_angle_beta   90.01047682
_cell_angle_gamma   120.03511143
_symmetry_Int_Tables_number   1
_chemical_formula_structural   H2O
_chemical_formula_sum   'H384 O192'
_cell_volume   6167.39240022
_cell_formula_units_Z   192
loop_
 _symmetry_equiv_pos_site_id
 _symmetry_equiv_pos_as_xyz
  1  'x, y, z'
loop_
 _atom_type_symbol
 _atom_type_oxidation_number
  H+  1.0
  O2-  -2.0
loop_
 _atom_site_type_symbol
 _atom_site_label
 _atom_site_symmetry_multiplicity
 _atom_site_fract_x
 _atom_site_fract_y
 _atom_site_fract_z
 _atom_site_occupancy
  H+  H0  1  0.48104004  0.04144292  0.68632581  1
  H+  H1  1  0.64084846  0.52040910  0.14154113  1
  H+  H2  1  0.83175074  0.28212744  0.18986366  1
  H+  H3  1  0.87988326  0.24210659  0.32951159  1
  H+  H4  1  0.23194427  0.07751744  0.64549669  1
  H+  H5  1  0.87046217  0.14914599  0.67939335  1
  H+  H6  1  0.61838112  0.31366510  0.86737274  1
  H+  H7  1  0.44774857  0.61756427  0.84551037  1
  H+  H8  1  0.71813981  0.85128994  0.82460046  1
  H+  H9  1  0.02941100  0.64351836  0.18115900  1
  H+  H10  1  0.88791848  0.27995811  0.67318262  1
  H+  H11  1  -0.01434978  0.37038212  -0.00751873  1
  H+  H12  1  0.88534525  0.37005112  0.52377440  1
  H+  H13  1  0.39637963  0.53040828  0.16066214  1
  H+  H14  1  0.74241114  0.61951641  0.13706245  1
  H+  H15  1  0.61356106  0.23664274  0.15638190  1
  H+  H16  1  0.57408987  0.91139406  0.72888052  1
  H+  H17  1  0.62116905  0.22740700  0.85220169  1
  H+  H18  1  0.73951354  0.60709279  -0.01312115  1
  H+  H19  1  1.02759293  0.15104908  0.50717289  1
  H+  H20  1  0.87313499  0.62907013  0.98870667  1
  H+  H21  1  0.99196512  0.87388845  0.51428609  1
  H+  H22  1  0.02739339  0.63447291  0.68003722  1
  H+  H23  1  0.61796039  0.86203305  0.65714215  1
  H+  H24  1  0.36160710  0.22524635  0.14248073  1
  H+  H25  1  0.65042569  0.53648146  0.65603427  1
  H+  H26  1  0.27632549  0.39278215  0.67559600  1
  H+  H27  1  0.37928213  0.78554527  0.84432890  1
  H+  H28  1  0.74763359  0.34766824  0.83936949  1
  H+  H29  1  0.52825440  0.91509509  0.33422680  1
  H+  H30  1  0.35078189  0.98899493  0.76912133  1
  H+  H31  1  0.89386442  0.78358160  0.35191979  1
  H+  H32  1  0.73200218  0.37146979  0.17624435  1
  H+  H33  1  0.26462546  0.87549700  0.49679532  1
  H+  H34  1  0.28385261  0.40067452  0.12253763  1
  H+  H35  1  0.37027425  0.48537454  0.32973134  1
  H+  H36  1  0.87862755  0.73663329  0.50633302  1
  H+  H37  1  0.37206153  0.98378088  0.16259172  1
  H+  H38  1  0.46921721  0.09991633  0.82051565  1
  H+  H39  1  0.58484507  0.64046043  0.84922357  1
  H+  H40  1  0.16315440  0.10719586  0.66397921  1
  H+  H41  1  0.85706633  0.86512846  0.15057073  1
  H+  H42  1  0.60163313  0.19838264  0.34219118  1
  H+  H43  1  0.14349620  0.77479995  0.50862628  1
  H+  H44  1  0.57614446  0.16154464  0.44259080  1
  H+  H45  1  0.27864243  0.64544301  0.34910963  1
  H+  H46  1  0.26787789  0.39045028  0.83524833  1
  H+  H47  1  0.27275747  0.38618599  0.34105016  1
  H+  H48  1  0.53444764  0.40310994  0.66440121  1
  H+  H49  1  0.35330167  0.15840275  0.67510241  1
  H+  H50  1  0.22099256  0.84820024  0.66988597  1
  H+  H51  1  0.39652191  0.28557722  0.83908897  1
  H+  H52  1  0.89155098  1.02074011  0.33056864  1
  H+  H53  1  0.12610393  0.49799737  0.83266846  1
  H+  H54  1  0.12329967  0.89563440  0.14862428  1
  H+  H55  1  0.71578467  0.10837442  0.18252815  1
  H+  H56  1  0.46596773  0.61182001  0.32504444  1
  H+  H57  1  0.63872147  0.98568255  0.02629112  1
  H+  H58  1  0.61268806  0.79138254  0.49882175  1
  H+  H59  1  0.61476122  0.56750380  0.26722575  1
  H+  H60  1  0.87902036  0.64982361  0.82706899  1
  H+  H61  1  0.13959065  0.90473638  0.98979825  1
  H+  H62  1  0.87031180  0.72589112  0.13850189  1
  H+  H63  1  0.66798061  0.08377099  0.60492442  1
  H+  H64  1  0.89319530  0.61489636  0.51458614  1
  H+  H65  1  0.91892413  0.58073401  0.60589688  1
  H+  H66  1  0.77556967  0.36697910  0.00962393  1
  H+  H67  1  0.79616396  0.64181923  0.35547160  1
  H+  H68  1  0.98484106  0.38575183  0.84387311  1
  H+  H69  1  0.47383676  0.87081544  0.65716399  1
  H+  H70  1  0.71521202  0.10677519  0.83397013  1
  H+  H71  1  0.48345265  0.61870454  0.17072103  1
  H+  H72  1  0.76872067  0.38497516  0.50356165  1
  H+  H73  1  0.15940425  0.52174569  -0.00755372  1
  H+  H74  1  0.35681504  0.44535252  0.07126778  1
  H+  H75  1  0.64682967  0.55056165  0.50971277  1
  H+  H76  1  0.75663822  0.86972900  0.67161803  1
  H+  H77  1  0.85859000  0.19427045  0.15706226  1
  H+  H78  1  1.02958073  0.64172236  0.49367661  1
  H+  H79  1  0.47193188  0.38717250  0.82723464  1
  H+  H80  1  0.12225312  -0.02404049  0.82218224  1
  H+  H81  1  0.01747816  0.12802733  0.82846997  1
  H+  H82  1  0.38547651  0.12108158  -0.02515016  1
  H+  H83  1  0.11887142  0.64288167  0.49362788  1
  H+  H84  1  0.33259699  0.44058877  0.45028402  1
  H+  H85  1  0.87143196  0.24541573  0.51736932  1
  H+  H86  1  0.13446579  0.76174707  0.66016972  1
  H+  H87  1  0.39477950  0.37864170  0.13312615  1
  H+  H88  1  0.50300509  0.60111242  0.69109392  1
  H+  H89  1  0.27286738  0.13775210  0.15228489  1
  H+  H90  1  0.63521330  0.84510742  0.56045842  1
  H+  H91  1  0.54194610  0.89585852  1.01215687  1
  H+  H92  1  0.70120227  0.65354691  0.26756913  1
  H+  H93  1  0.69769781  0.13753630  1.01221459  1
  H+  H94  1  0.05721838  0.14800464  0.67153193  1
  H+  H95  1  0.13902421  0.27032424  0.33732015  1
  H+  H96  1  0.28450813  0.14953126  0.82902861  1
  H+  H97  1  0.23089594  0.62789361  0.51310256  1
  H+  H98  1  0.10084761  0.46731334  0.34853543  1
  H+  H99  1  0.53298256  0.39503903  0.14557577  1
  H+  H100  1  0.32296242  0.92599941  -0.00129317  1
  H+  H101  1  0.33122358  0.43339299  0.97175559  1
  H+  H102  1  -0.01725298  0.10597598  -0.00217389  1
  H+  H103  1  0.64538591  0.24371325  0.68868895  1
  H+  H104  1  0.09506989  0.72225134  -0.05975240  1
  H+  H105  1  0.64128844  0.64765601  1.00682583  1
  H+  H106  1  0.22432720  0.61326567  0.66157229  1
  H+  H107  1  0.17248252  0.85197770  0.26798592  1
  H+  H108  1  0.77734925  0.64082596  0.66776618  1
  H+  H109  1  0.76090063  0.84902957  0.15237797  1
  H+  H110  1  0.36503417  0.64478986  0.34896568  1
  H+  H111  1  0.35847219  0.39231007  0.83502935  1
  H+  H112  1  0.93478451  0.55691101  0.81946774  1
  H+  H113  1  0.11215456  0.40360209  0.83681810  1
  H+  H114  1  0.02129080  0.39513751  0.50779954  1
  H+  H115  1  0.61804033  0.00455183  0.49306379  1
  H+  H116  1  0.12191598  0.24857876  0.51271566  1
  H+  H117  1  0.12061927  0.14875332  0.51064864  1
  H+  H118  1  0.83713208  0.42103541  0.34139276  1
  H+  H119  1  0.52259309  0.87828910  0.82014787  1
  H+  H120  1  1.11321577  0.67851473  0.76947559  1
  H+  H121  1  0.13078275  0.09548913  0.83041548  1
  H+  H122  1  0.11564841  0.47864881  0.67741358  1
  H+  H123  1  0.38881192  0.86924868  0.32955705  1
  H+  H124  1  0.61831439  0.35907732  0.00569215  1
  H+  H125  1  0.72946340  0.10810465  0.66299131  1
  H+  H126  1  0.86799424  0.23705900  0.83122682  1
  H+  H127  1  0.11094751  -0.04021635  0.66847398  1
  H+  H128  1  0.89271339  0.78290504  0.83596827  1
  H+  H129  1  0.78620054  0.90357623  0.51546902  1
  H+  H130  1  0.52843749  0.42357963  0.50295307  1
  H+  H131  1  0.60880693  0.97433035  0.67062562  1
  H+  H132  1  0.22804826  0.11752569  0.31831938  1
  H+  H133  1  0.20185403  0.82858464  0.97743308  1
  H+  H134  1  0.46820988  0.10497521  0.33037806  1
  H+  H135  1  0.11507745  0.63116953  0.67438449  1
  H+  H136  1  0.63926687  0.12507686  0.51114889  1
  H+  H137  1  0.89755087  0.03931760  0.51703520  1
  H+  H138  1  0.40463123  0.38344419  0.48910835  1
  H+  H139  1  0.50025330  0.29524313  0.53392954  1
  H+  H140  1  0.11184773  0.87095849  0.67116862  1
  H+  H141  1  0.16797477  0.08216829  0.89211332  1
  H+  H142  1  0.40249745  0.06822939  0.87358944  1
  H+  H143  1  0.47873180  0.12043489  0.17115175  1
  H+  H144  1  0.12497798  0.36598582  0.51755881  1
  H+  H145  1  0.36187575  0.13344035  0.34104023  1
  H+  H146  1  0.59902090  0.61495163  0.69218849  1
  H+  H147  1  0.51974810  0.36773339  0.35748608  1
  H+  H148  1  0.64236570  0.89584674  0.33597636  1
  H+  H149  1  -0.02686268  0.03764771  0.79805939  1
  H+  H150  1  0.62479148  0.77551248  0.83930499  1
  H+  H151  1  0.88102322  0.74280209  0.66430409  1
  H+  H152  1  0.13999991  0.03084681  0.32323934  1
  H+  H153  1  0.60567461  0.22643229  0.50038980  1
  H+  H154  1  0.30025090  0.64760562  1.00784947  1
  H+  H155  1  0.14856454  0.79028007  0.17822234  1
  H+  H156  1  0.09379660  0.20655651  0.13804413  1
  H+  H157  1  0.39962598  0.29188729  0.66892163  1
  H+  H158  1  0.10890716  0.46873697  0.16312442  1
  H+  H159  1  0.89204610  0.53264763  0.17128825  1
  H+  H160  1  0.36240246  0.72583420  0.16615676  1
  H+  H161  1  0.38814351  0.11614597  0.17111489  1
  H+  H162  1  0.86792155  0.63413338  0.66902642  1
  H+  H163  1  0.84189645  0.42445471  0.09790662  1
  H+  H164  1  0.75416974  0.01748746  0.87112466  1
  H+  H165  1  0.17852958  0.83129488  0.57034297  1
  H+  H166  1  0.82682069  0.08498749  1.00755269  1
  H+  H167  1  0.15735934  0.87600428  0.83397287  1
  H+  H168  1  0.13726076  0.36499479  0.67266097  1
  H+  H169  1  0.13449401  0.35756692  0.14640005  1
  H+  H170  1  0.03013081  0.14449619  0.33140945  1
  H+  H171  1  0.87993413  0.90299117  0.82057202  1
  H+  H172  1  0.42125381  0.63950725  1.00039429  1
  H+  H173  1  0.99148339  0.20861933  0.63866658  1
  H+  H174  1  0.61350357  0.88515044  0.81424084  1
  H+  H175  1  0.81174204  0.44535998  0.84293812  1
  H+  H176  1  0.63257997  0.01101735  0.83247024  1
  H+  H177  1  0.47345757  0.09976752  0.51345048  1
  H+  H178  1  0.23020882  0.60328972  0.17631943  1
  H+  H179  1  0.64934899  0.15648570  0.68642508  1
  H+  H180  1  0.68845229  0.06137069  0.32648925  1
  H+  H181  1  0.65087883  0.51773465  0.99036378  1
  H+  H182  1  0.86624440  0.63569227  0.14973641  1
  H+  H183  1  0.10117274  0.12273166  0.14800181  1
  H+  H184  1  0.60302197  0.11060325  0.83387728  1
  H+  H185  1  0.37901687  0.55534196  0.51007436  1
  H+  H186  1  0.61738959  0.66312743  0.49309056  1
  H+  H187  1  0.94520833  0.12143400  0.60399439  1
  H+  H188  1  0.71372327  0.80003901  1.00248305  1
  H+  H189  1  0.36719423  0.22125474  0.50276401  1
  H+  H190  1  0.59942925  0.66494550  0.32575619  1
  H+  H191  1  0.13304817  1.02227061  -0.01669162  1
  H+  H192  1  0.23768929  0.87831851  0.17166303  1
  H+  H193  1  1.03334499  0.90185434  0.35542912  1
  H+  H194  1  0.36730557  0.63933704  0.16395457  1
  H+  H195  1  0.47633495  0.63408987  0.51214915  1
  H+  H196  1  0.59341956  0.74651801  0.34209316  1
  H+  H197  1  0.36729241  0.38531112  0.33921151  1
  H+  H198  1  0.63876811  0.37072306  0.51619151  1
  H+  H199  1  0.39641585  0.78495684  0.33220699  1
  H+  H200  1  0.64202226  0.37360294  0.66252547  1
  H+  H201  1  0.26913904  0.13685313  -0.00555504  1
  H+  H202  1  0.82605098  -0.00221422  0.84425254  1
  H+  H203  1  0.84324241  -0.01543292  0.99832893  1
  H+  H204  1  0.10121414  0.37255337  0.00936469  1
  H+  H205  1  0.38133760  0.26254634  0.34034803  1
  H+  H206  1  0.47744443  0.02156385  0.65573118  1
  H+  H207  1  0.38129189  0.52822203  0.66417640  1
  H+  H208  1  -0.00879237  0.86494628  0.14423526  1
  H+  H209  1  0.09653335  0.68746533  0.03470020  1
  H+  H210  1  0.59275367  0.83976143  0.15250176  1
  H+  H211  1  0.10197731  0.93353915  0.40791558  1
  H+  H212  1  0.88578684  0.52452794  0.66775523  1
  H+  H213  1  0.10042635  0.67627455  0.23094561  1
  H+  H214  1  0.61484378  0.15007908  0.15858207  1
  H+  H215  1  0.22080270  0.12527365  0.50897075  1
  H+  H216  1  0.97966880  0.36929124  0.67528101  1
  H+  H217  1  0.14178456  0.87707778  0.33009783  1
  H+  H218  1  0.51932934  0.86609101  0.15973111  1
  H+  H219  1  0.38684648  0.80278144  0.56254226  1
  H+  H220  1  0.37022541  0.66906361  0.51112573  1
  H+  H221  1  0.85783850  0.46315077  -0.00325207  1
  H+  H222  1  0.35721537  0.64256809  0.67534565  1
  H+  H223  1  0.91883283  0.55621834  0.32853519  1
  H+  H224  1  0.25784335  0.42216564  0.49523771  1
  H+  H225  1  0.59607800  0.51303655  0.81581071  1
  H+  H226  1  0.12260896  0.98492069  0.50200485  1
  H+  H227  1  0.72511180  0.62639527  0.84176863  1
  H+  H228  1  0.01882431  0.37923441  0.16133332  1
  H+  H229  1  0.27138698  0.88964268  0.34115387  1
  H+  H230  1  0.73054485  0.12645931  0.51127564  1
  H+  H231  1  0.09843749  0.92229312  0.08442423  1
  H+  H232  1  0.13823953  0.02545113  0.16128997  1
  H+  H233  1  0.98442054  0.86904856  0.83518298  1
  H+  H234  1  0.84772283  0.10670079  0.32428050  1
  H+  H235  1  0.84340397  0.13801109  0.83438824  1
  H+  H236  1  0.14376916  0.53422127  0.50848190  1
  H+  H237  1  0.06802024  0.74032086  0.95185025  1
  H+  H238  1  0.90240610  0.87497660  0.51800377  1
  H+  H239  1  0.42905601  0.40510333  0.98042669  1
  H+  H240  1  1.00512944  0.64391783  0.32806125  1
  H+  H241  1  0.40489553  0.38117601  0.45475756  1
  H+  H242  1  0.37197601  0.14684829  0.82227390  1
  H+  H243  1  0.86488709  0.39141878  0.68441420  1
  H+  H244  1  0.85799914  0.89187722  0.36650604  1
  H+  H245  1  0.84197154  0.86387443  0.67202731  1
  H+  H246  1  0.39257091  0.86656639  0.17380197  1
  H+  H247  1  0.89674433  0.12951404  0.51370242  1
  H+  H248  1  0.84732324  0.34028252  0.34787416  1
  H+  H249  1  0.10746492  0.38312583  0.35637264  1
  H+  H250  1  0.13129227  0.28860497  0.84375040  1
  H+  H251  1  0.84386661  0.92569288  0.75975658  1
  H+  H252  1  0.11879140  0.14461921  0.32908883  1
  H+  H253  1  0.73092983  0.37366410  0.66275981  1
  H+  H254  1  0.88942452  0.65452588  0.34734015  1
  H+  H255  1  0.35571780  0.88752956  0.69417852  1
  H+  H256  1  0.73712061  0.63673814  0.51001221  1
  H+  H257  1  0.40039972  0.37859630  0.65335310  1
  H+  H258  1  0.12925837  0.74427468  0.34184476  1
  H+  H259  1  0.50705390  0.37592735  0.98306813  1
  H+  H260  1  0.33222474  0.02795191  0.66575595  1
  H+  H261  1  0.87302289  0.99469966  0.16991395  1
  H+  H262  1  0.11724583  0.10192364  0.98134763  1
  H+  H263  1  0.32598030  0.91112840  0.42995982  1
  H+  H264  1  0.18895268  0.31667752  1.00763149  1
  H+  H265  1  0.90060148  0.77321743  0.98227835  1
  H+  H266  1  0.60209699  0.90094000  0.49088800  1
  H+  H267  1  0.42103864  0.88157994  0.99778141  1
  H+  H268  1  0.48089225  0.14609247  0.95922464  1
  H+  H269  1  0.15507330  0.60586571  0.99590653  1
  H+  H270  1  0.14194577  0.61318002  0.33132425  1
  H+  H271  1  0.36246450  -0.03275089  0.49508753  1
  H+  H272  1  0.62211457  0.39401818  0.15955995  1
  H+  H273  1  0.88647172  0.37088564  0.84626447  1
  H+  H274  1  0.88963951  0.36703303  0.99316232  1
  H+  H275  1  0.36051486  0.97811594  0.34246755  1
  H+  H276  1  0.86308643  0.87287211  0.00124601  1
  H+  H277  1  0.14872175  0.28010957  0.67139657  1
  H+  H278  1  0.15080049  0.65348861  0.82717264  1
  H+  H279  1  0.71107191  0.32306239  0.33131622  1
  H+  H280  1  0.77244705  0.89968878  0.36244069  1
  H+  H281  1  0.38597798  0.09472983  0.49961907  1
  H+  H282  1  0.62630943  0.32997044  0.33350396  1
  H+  H283  1  0.61407237  0.44640731  0.35255520  1
  H+  H284  1  0.14223909  0.60401441  0.18196569  1
  H+  H285  1  0.87709249  0.40353944  0.15760211  1
  H+  H286  1  -0.02750133  0.58694795  -0.01075920  1
  H+  H287  1  0.35337984  0.72848124  0.66779686  1
  H+  H288  1  0.21702162  0.88027263  0.91703250  1
  H+  H289  1  0.66774723  0.33177100  0.23353111  1
  H+  H290  1  0.16397763  0.08325943  0.22198381  1
  H+  H291  1  0.91703248  0.59496889  0.22993723  1
  H+  H292  1  0.33533178  0.42249821  0.73410432  1
  H+  H293  1  -0.03869982  0.08566946  0.16626498  1
  H+  H294  1  0.53358029  0.50703467  0.76437421  1
  H+  H295  1  0.67748670  0.60660755  0.60249451  1
  H+  H296  1  0.91398758  0.85132579  0.29999017  1
  H+  H297  1  0.12732571  0.89714560  0.50261756  1
  H+  H298  1  0.84876387  0.04143670  0.93867484  1
  H+  H299  1  0.16991664  0.57514262  0.27581131  1
  H+  H300  1  0.41403206  0.08387289  0.26798501  1
  H+  H301  1  0.66888270  0.58900835  0.90149982  1
  H+  H302  1  0.43599167  0.29604399  0.58285520  1
  H+  H303  1  0.41146336  1.00673926  0.00582413  1
  H+  H304  1  0.32665177  0.16421299  0.39943375  1
  H+  H305  1  0.07358741  0.41513927  0.44516600  1
  H+  H306  1  0.60219847  0.16448431  0.77487170  1
  H+  H307  1  0.03970198  0.88478173  -0.00751167  1
  H+  H308  1  0.42833099  0.32674107  0.28639930  1
  H+  H309  1  0.30690359  0.24343750  0.46466206  1
  H+  H310  1  0.66514193  0.33491436  0.57384288  1
  H+  H311  1  0.36344785  0.51839094  0.83983001  1
  H+  H312  1  0.34281385  0.70039389  0.45307038  1
  H+  H313  1  0.34651456  0.19497668  0.74031574  1
  H+  H314  1  0.18399577  0.32366930  0.18649416  1
  H+  H315  1  0.09711343  0.15222276  0.73407076  1
  H+  H316  1  0.85083321  0.67667918  0.44792345  1
  H+  H317  1  0.19999383  0.59392361  0.89708760  1
  H+  H318  1  0.64448051  0.07280279  0.23405211  1
  H+  H319  1  0.17510508  0.79839527  0.83777321  1
  H+  H320  1  0.80158958  0.12616298  0.07402406  1
  H+  H321  1  0.41534555  0.52577580  -0.00900758  1
  H+  H322  1  0.66329775  0.28230321  0.95097005  1
  H+  H323  1  0.83969956  0.66956298  0.76934059  1
  H+  H324  1  0.16421848  0.34603563  0.28848033  1
  H+  H325  1  0.91236836  0.06361260  0.26336641  1
  H+  H326  1  0.93802449  0.82470355  0.20348637  1
  H+  H327  1  0.04616090  0.13384799  0.05522271  1
  H+  H328  1  0.84701576  0.66168713  0.04810125  1
  H+  H329  1  0.16389463  0.34182189  0.57692272  1
  H+  H330  1  0.80160888  0.10882178  0.38356933  1
  H+  H331  1  0.85244831  0.20156712  0.45374023  1
  H+  H332  1  0.34986540  0.67661261  0.07065791  1
  H+  H333  1  0.41250128  0.35042612  0.19488204  1
  H+  H334  1  0.36228023  0.06686389  0.59893694  1
  H+  H335  1  0.42020746  0.59583268  0.60911663  1
  H+  H336  1  0.58425181  0.94840438  0.42812214  1
  H+  H337  1  0.58874673  0.10400898  0.34996967  1
  H+  H338  1  0.58307860  0.41971301  0.44860847  1
  H+  H339  1  0.64636748  0.62247161  0.14618829  1
  H+  H340  1  0.44205702  0.35590038  0.91812296  1
  H+  H341  1  0.98257527  0.85090876  0.66478686  1
  H+  H342  1  0.91914027  0.34540870  0.58505353  1
  H+  H343  1  0.42085385  0.83765920  0.23419567  1
  H+  H344  1  0.93117900  0.57569751  0.92321777  1
  H+  H345  1  0.92593040  0.34666715  0.92567853  1
  H+  H346  1  0.43548222  0.82565337  0.90365524  1
  H+  H347  1  0.96677027  0.33683426  0.33472782  1
  H+  H348  1  0.84914900  0.10129865  0.15931094  1
  H+  H349  1  0.16555503  0.08397866  0.57059731  1
  H+  H350  1  1.01879011  0.63952464  0.83783227  1
  H+  H351  1  0.92410741  0.82657772  0.60272767  1
  H+  H352  1  0.09657373  0.24009877  0.99304984  1
  H+  H353  1  0.55332186  0.64982002  0.78531656  1
  H+  H354  1  0.07654213  0.41327886  0.06520202  1
  H+  H355  1  0.92712519  0.83964444  0.92746999  1
  H+  H356  1  0.63638064  0.75817190  0.21234506  1
  H+  H357  1  0.62200369  0.20282657  0.06162571  1
  H+  H358  1  0.83833954  0.92989262  0.45390677  1
  H+  H359  1  0.08739484  0.91154450  0.76494880  1
  H+  H360  1  0.41545919  0.78888383  0.00247681  1
  H+  H361  1  0.08839888  0.42719337  0.74050232  1
  H+  H362  1  0.89009999  0.52431825  0.51083989  1
  H+  H363  1  0.82610785  0.39972591  0.44502569  1
  H+  H364  1  0.09591260  0.68031750  0.40035163  1
  H+  H365  1  0.15553489  0.33007572  0.90888293  1
  H+  H366  1  0.35112025  0.92909062  0.10205941  1
  H+  H367  1  0.41180518  0.57470299  0.26290032  1
  H+  H368  1  0.25859357  0.60119052  0.83707084  1
  H+  H369  1  0.06361728  0.60834995  0.07682768  1
  H+  H370  1  0.90335085  0.30681270  0.23848100  1
  H+  H371  1  0.51352600  0.64349989  -0.00103727  1
  H+  H372  1  0.82334771  0.88982536  0.06208544  1
  H+  H373  1  0.60661140  0.69225484  0.09807159  1
  H+  H374  1  0.83167143  0.17228286  0.73702016  1
  H+  H375  1  0.82355931  0.41397923  0.74051918  1
  H+  H376  1  0.57795998  0.68075848  0.43305081  1
  H+  H377  1  0.32929602  0.15771111  0.05155858  1
  H+  H378  1  0.58843946  0.44299338  0.72340400  1
  H+  H379  1  0.68619171  0.87355463  0.28382178  1
  H+  H380  1  0.59555290  0.40402911  0.05894737  1
  H+  H381  1  0.16177407  0.58159288  0.60363287  1
  H+  H382  1  0.59097966  0.90758145  0.08258506  1
  H+  H383  1  0.60947550  0.77046265  0.64731888  1
  O2-  O384  1  0.06229674  0.14365999  0.13191988  1
  O2-  O385  1  0.09194905  0.18373743  0.49735970  1
  O2-  O386  1  0.02954753  0.09221443  0.80172140  1
  O2-  O387  1  0.07687017  0.40999161  0.14377927  1
  O2-  O388  1  0.08023178  0.41975240  0.49022352  1
  O2-  O389  1  0.08474972  0.43537185  0.82053218  1
  O2-  O390  1  0.09339195  0.67181663  0.18676985  1
  O2-  O391  1  0.08927504  0.67408374  0.47726460  1
  O2-  O392  1  0.11817908  0.68264425  0.81474062  1
  O2-  O393  1  0.09084999  0.92171583  0.12991495  1
  O2-  O394  1  0.09484875  0.92451823  0.48670443  1
  O2-  O395  1  0.08769070  0.91405317  0.81017668  1
  O2-  O396  1  0.33311743  0.16248096  0.13730706  1
  O2-  O397  1  0.31613936  0.19530241  0.47302442  1
  O2-  O398  1  0.34617628  0.18489082  0.81732712  1
  O2-  O399  1  0.34682756  0.43516425  0.11633481  1
  O2-  O400  1  0.30415778  0.46779862  0.47051869  1
  O2-  O401  1  0.32799887  0.42231442  0.81988324  1
  O2-  O402  1  0.33295630  0.66558363  0.15003561  1
  O2-  O403  1  0.33712186  0.69728950  0.49766193  1
  O2-  O404  1  0.33982690  0.61091869  0.81206988  1
  O2-  O405  1  0.34203945  0.92324777  0.14687325  1
  O2-  O406  1  0.32654296  0.90734703  0.47676654  1
  O2-  O407  1  0.32438025  0.96985374  0.72817625  1
  O2-  O408  1  0.58592579  0.17849345  0.13792842  1
  O2-  O409  1  0.57767350  0.16466173  0.48800948  1
  O2-  O410  1  0.57799259  0.14591821  0.81786519  1
  O2-  O411  1  0.59611582  0.42427933  0.13666550  1
  O2-  O412  1  0.58522360  0.43184561  0.49304659  1
  O2-  O413  1  0.54976612  0.47032074  0.78812267  1
  O2-  O414  1  0.59936071  0.68081502  0.14387308  1
  O2-  O415  1  0.58179664  0.68733220  0.47789312  1
  O2-  O416  1  0.55091671  0.66315329  0.82937679  1
  O2-  O417  1  0.57834318  0.88475240  0.14332358  1
  O2-  O418  1  0.58134603  0.94383219  0.47376542  1
  O2-  O419  1  0.58044975  0.91375382  0.80036159  1
  O2-  O420  1  0.82102703  0.13430497  0.14382131  1
  O2-  O421  1  0.84361035  0.18624931  0.49671444  1
  O2-  O422  1  0.83225529  0.17978458  0.81266445  1
  O2-  O423  1  0.84416781  0.43036708  0.14329379  1
  O2-  O424  1  0.82960646  0.41327577  0.48883840  1
  O2-  O425  1  0.80640009  0.39334597  0.82493934  1
  O2-  O426  1  0.83694842  0.66310816  0.12780567  1
  O2-  O427  1  0.84527886  0.67530643  0.49279228  1
  O2-  O428  1  0.84175307  0.67291039  0.81410587  1
  O2-  O429  1  0.82055443  0.89050624  0.14009132  1
  O2-  O430  1  0.84510528  0.93171365  0.49943860  1
  O2-  O431  1  0.86514222  0.94513572  0.80246670  1
  O2-  O432  1  0.16443316  0.08570296  0.17660753  1
  O2-  O433  1  0.16092036  0.09140958  0.52505913  1
  O2-  O434  1  0.17388555  0.08204104  0.84657255  1
  O2-  O435  1  0.16907805  0.32768812  0.14448435  1
  O2-  O436  1  0.15880901  0.33767463  0.53128158  1
  O2-  O437  1  0.16308523  0.34374397  0.86445610  1
  O2-  O438  1  0.16952342  0.56947733  0.19212825  1
  O2-  O439  1  0.16800693  0.59393246  0.52361581  1
  O2-  O440  1  0.19848281  0.59262943  0.85218614  1
  O2-  O441  1  0.17710796  0.85241333  0.18745518  1
  O2-  O442  1  0.17881211  0.83531390  0.52436530  1
  O2-  O443  1  0.19904398  0.85941852  0.84918254  1
  O2-  O444  1  0.41981677  0.08877194  0.18898390  1
  O2-  O445  1  0.40991144  0.06417954  0.52132770  1
  O2-  O446  1  0.40623700  0.07446967  0.82881881  1
  O2-  O447  1  0.42301666  0.34753906  0.15178488  1
  O2-  O448  1  0.44197983  0.26101886  0.54949199  1
  O2-  O449  1  0.42187097  0.34720696  0.85367356  1
  O2-  O450  1  0.42346450  0.58442776  0.18518005  1
  O2-  O451  1  0.41895352  0.61040895  0.53134654  1
  O2-  O452  1  0.38297897  0.58016792  0.85452551  1
  O2-  O453  1  0.41933016  0.83288100  0.18898230  1
  O2-  O454  1  0.41161873  0.86064198  0.58067801  1
  O2-  O455  1  0.43743275  0.81267773  0.86039411  1
  O2-  O456  1  0.67178224  0.11709361  0.20261738  1
  O2-  O457  1  0.66877734  0.09184346  0.52267468  1
  O2-  O458  1  0.66309181  0.06603527  0.85634620  1
  O2-  O459  1  0.67091236  0.34286757  0.18892691  1
  O2-  O460  1  0.66178549  0.33302216  0.52757154  1
  O2-  O461  1  0.65358247  0.28724889  0.87452157  1
  O2-  O462  1  0.67561778  0.58733577  0.14040933  1
  O2-  O463  1  0.67574451  0.61133782  0.52280236  1
  O2-  O464  1  0.66551232  0.59844623  0.85714915  1
  O2-  O465  1  0.64424824  0.77020291  0.16834906  1
  O2-  O466  1  0.63755202  0.85140518  0.51492265  1
  O2-  O467  1  0.66397624  0.83850190  0.84343326  1
  O2-  O468  1  0.90282602  0.05513730  0.18514924  1
  O2-  O469  1  0.93036725  0.10211985  0.52765951  1
  O2-  O470  1  0.81612039  0.03753807  0.87074711  1
  O2-  O471  1  0.89392859  0.30624635  0.19339418  1
  O2-  O472  1  0.91830174  0.34254550  0.53917487  1
  O2-  O473  1  0.92447244  0.34883335  0.86090889  1
  O2-  O474  1  0.92014284  0.59421510  0.18494523  1
  O2-  O475  1  0.92385216  0.58391967  0.52705144  1
  O2-  O476  1  0.95424733  0.60570319  0.84692372  1
  O2-  O477  1  0.92941289  0.82842471  0.16015050  1
  O2-  O478  1  0.93115378  0.84203841  0.52986052  1
  O2-  O479  1  0.92347853  0.84378110  0.84993191  1
  O2-  O480  1  0.16825674  0.08789334  0.30251382  1
  O2-  O481  1  0.17165528  0.06446038  0.64081332  1
  O2-  O482  1  0.15697460  0.08230202  0.96762514  1
  O2-  O483  1  0.17282285  0.33812564  0.33125683  1
  O2-  O484  1  0.16849014  0.33772033  0.65322105  1
  O2-  O485  1  0.13680510  0.30404139  0.98559547  1
  O2-  O486  1  0.16767361  0.57716550  0.32093930  1
  O2-  O487  1  0.16102701  0.57830388  0.64883505  1
  O2-  O488  1  0.19145364  0.58317682  0.98093273  1
  O2-  O489  1  0.17044185  0.84584660  0.31320734  1
  O2-  O490  1  0.16646032  0.82337504  0.64574177  1
  O2-  O491  1  0.22233024  0.88731682  0.96404883  1
  O2-  O492  1  0.40867355  0.08025980  0.31350095  1
  O2-  O493  1  0.32909014  0.06647053  0.63456100  1
  O2-  O494  1  0.42235808  0.09768681  0.95830627  1
  O2-  O495  1  0.41628627  0.32746449  0.32953071  1
  O2-  O496  1  0.43273848  0.34835651  0.64491905  1
  O2-  O497  1  0.44909681  0.36366548  0.96587690  1
  O2-  O498  1  0.40718006  0.57044165  0.30853668  1
  O2-  O499  1  0.41769982  0.59056139  0.65435133  1
  O2-  O500  1  0.45380749  0.61278874  0.98314451  1
  O2-  O501  1  0.42434537  0.84444151  0.31500551  1
  O2-  O502  1  0.41047688  0.84309660  0.64623403  1
  O2-  O503  1  0.45047714  0.84878627  0.98627183  1
  O2-  O504  1  0.62509017  0.03403590  0.31898208  1
  O2-  O505  1  0.66812688  0.07880087  0.64970567  1
  O2-  O506  1  0.71092795  0.08997539  1.00743628  1
  O2-  O507  1  0.65326180  0.30089924  0.31230808  1
  O2-  O508  1  0.67068499  0.34166058  0.64736021  1
  O2-  O509  1  0.67096516  0.29274871  0.99643403  1
  O2-  O510  1  0.63913589  0.62966812  0.26615320  1
  O2-  O511  1  0.68200218  0.60026248  0.64727921  1
  O2-  O512  1  0.67597924  0.57875869  0.97908135  1
  O2-  O513  1  0.67104948  0.86151573  0.32669423  1
  O2-  O514  1  0.64555621  0.83076083  0.63634231  1
  O2-  O515  1  0.65475115  0.76113330  0.98642613  1
  O2-  O516  1  0.91629500  0.07611695  0.30796346  1
  O2-  O517  1  0.96243104  0.14672427  0.64565448  1
  O2-  O518  1  0.86302317  0.04602167  0.98392578  1
  O2-  O519  1  0.90725146  0.30363809  0.31735964  1
  O2-  O520  1  0.91872433  0.34177965  0.66019539  1
  O2-  O521  1  0.92479443  0.34200465  0.97418041  1
  O2-  O522  1  0.94285935  0.61404992  0.31201573  1
  O2-  O523  1  0.91582775  0.58465193  0.65125325  1
  O2-  O524  1  0.91705134  0.56411776  0.96743557  1
  O2-  O525  1  0.91900988  0.84664280  0.34373653  1
  O2-  O526  1  0.92023669  0.81839807  0.64861474  1
  O2-  O527  1  0.92965892  0.83577829  0.97294338  1
  O2-  O528  1  0.04400748  0.13840520  0.00983999  1
  O2-  O529  1  0.09066467  0.17632398  0.34531796  1
  O2-  O530  1  0.11403194  0.16909328  0.69133715  1
  O2-  O531  1  0.07866620  0.41172062  0.01980485  1
  O2-  O532  1  0.06961057  0.40742850  0.36478510  1
  O2-  O533  1  0.08603137  0.41888573  0.69552966  1
  O2-  O534  1  0.07042289  0.62502131  0.03414389  1
  O2-  O535  1  0.09802752  0.68225365  0.35441901  1
  O2-  O536  1  0.08884898  0.66522775  0.69165604  1
  O2-  O537  1  0.09929444  0.92133856  0.00864287  1
  O2-  O538  1  0.09618839  0.93192761  0.36259090  1
  O2-  O539  1  0.07909143  0.90003515  0.68509723  1
  O2-  O540  1  0.32998358  0.16263689  0.00686330  1
  O2-  O541  1  0.33197012  0.16580089  0.35428627  1
  O2-  O542  1  0.34311535  0.20172355  0.69560744  1
  O2-  O543  1  0.38200833  0.45571401  -0.00231593  1
  O2-  O544  1  0.33852383  0.42033636  0.34820773  1
  O2-  O545  1  0.33740426  0.42338609  0.68919614  1
  O2-  O546  1  0.35874423  0.68166966  0.02573188  1
  O2-  O547  1  0.33961919  0.67934613  0.36237676  1
  O2-  O548  1  0.32031329  0.66834589  0.68128869  1
  O2-  O549  1  0.37839374  0.94662647  0.02083312  1
  O2-  O550  1  0.33102534  0.91773015  0.35875183  1
  O2-  O551  1  0.30755448  0.88193893  0.72000415  1
  O2-  O552  1  0.64327841  0.20468512  0.01887151  1
  O2-  O553  1  0.56716676  0.14236733  0.36382919  1
  O2-  O554  1  0.65003110  0.20066152  0.71376933  1
  O2-  O555  1  0.59635976  0.39901901  0.01381594  1
  O2-  O556  1  0.58003762  0.39077445  0.37238549  1
  O2-  O557  1  0.59598147  0.43460477  0.67949342  1
  O2-  O558  1  0.61897092  0.68428459  0.02483335  1
  O2-  O559  1  0.56619447  0.68414128  0.35086132  1
  O2-  O560  1  0.54923448  0.60258973  0.71797816  1
  O2-  O561  1  0.60104885  0.92272361  0.03434151  1
  O2-  O562  1  0.58947836  0.95046499  0.35075910  1
  O2-  O563  1  0.57334081  0.91227549  0.68244644  1
  O2-  O564  1  0.80047363  0.12764064  0.02672329  1
  O2-  O565  1  0.80856427  0.12750588  0.34132754  1
  O2-  O566  1  0.83285191  0.17217887  0.69135913  1
  O2-  O567  1  0.83760472  0.40794283  0.01964362  1
  O2-  O568  1  0.81241684  0.36658512  0.36305454  1
  O2-  O569  1  0.83334743  0.42222141  0.69625710  1
  O2-  O570  1  0.84547336  0.66212868  0.00298295  1
  O2-  O571  1  0.85591084  0.67913124  0.36745947  1
  O2-  O572  1  0.84054518  0.67009144  0.68239606  1
  O2-  O573  1  0.82095180  0.88964103  0.01674555  1
  O2-  O574  1  0.83276134  0.92828869  0.37771286  1
  O2-  O575  1  0.81588340  0.89661009  0.68766855  1
