# generated using pymatgen
data_H2O
_symmetry_space_group_name_H-M   'P 1'
_cell_length_a   17.98863473
_cell_length_b   17.99298865
_cell_length_c   22.00835803
_cell_angle_alpha   90.00035274
_cell_angle_beta   89.99227266
_cell_angle_gamma   120.01765474
_symmetry_Int_Tables_number   1
_chemical_formula_structural   H2O
_chemical_formula_sum   'H384 O192'
_cell_volume   6167.97336474
_cell_formula_units_Z   192
loop_
 _symmetry_equiv_pos_site_id
 _symmetry_equiv_pos_as_xyz
  1  'x, y, z'
loop_
 _atom_type_symbol
 _atom_type_oxidation_number
  H+  1.0
  O2-  -2.0
loop_
 _atom_site_type_symbol
 _atom_site_label
 _atom_site_symmetry_multiplicity
 _atom_site_fract_x
 _atom_site_fract_y
 _atom_site_fract_z
 _atom_site_occupancy
  H+  H0  1  0.10783615  0.62157803  0.15932538  1
  H+  H1  1  0.12169085  0.50152493  0.67411842  1
  H+  H2  1  0.72882062  0.12046566  0.32359876  1
  H+  H3  1  0.37439416  0.35146641  0.99007691  1
  H+  H4  1  0.13543637  0.85878953  0.86190580  1
  H+  H5  1  0.87036860  0.64486873  0.83583102  1
  H+  H6  1  0.64059925  0.77002412  -0.00253550  1
  H+  H7  1  0.86743332  0.47359502  0.49593970  1
  H+  H8  1  0.92015803  0.58044081  0.23437703  1
  H+  H9  1  0.72091840  0.11078887  0.98076450  1
  H+  H10  1  0.14230304  0.27815859  0.84121771  1
  H+  H11  1  0.91864481  0.84475073  0.57390860  1
  H+  H12  1  0.53601054  0.90253484  0.48590158  1
  H+  H13  1  0.09355509  0.46068014  0.13329011  1
  H+  H14  1  0.86473952  0.23225919  0.67331520  1
  H+  H15  1  0.64068240  0.62203484  0.33334446  1
  H+  H16  1  0.10692314  -0.01890041  0.62986742  1
  H+  H17  1  0.15919887  0.16098343  0.64553926  1
  H+  H18  1  0.38247042  0.27787356  0.83489174  1
  H+  H19  1  0.37077509  0.76955160  0.67192353  1
  H+  H20  1  0.43929831  0.03616843  0.87766636  1
  H+  H21  1  0.23063300  0.12516498  0.49569027  1
  H+  H22  1  0.47115554  0.35757458  0.33372019  1
  H+  H23  1  0.09710779  0.44800871  0.48498642  1
  H+  H24  1  0.02450744  0.88620490  0.01242879  1
  H+  H25  1  0.13775411  0.76856912  0.65342047  1
  H+  H26  1  0.90329997  0.63002226  0.66436495  1
  H+  H27  1  0.92470626  0.54542987  0.99141073  1
  H+  H28  1  0.85830386  0.97732849  0.49556847  1
  H+  H29  1  0.38764490  0.37016092  0.67010005  1
  H+  H30  1  0.56666465  0.69395908  0.09051656  1
  H+  H31  1  0.89415844  0.12047976  0.49565138  1
  H+  H32  1  0.61143898  0.62983304  0.18534397  1
  H+  H33  1  0.30283872  0.66493272  0.48893053  1
  H+  H34  1  0.89824389  0.77970138  0.17377867  1
  H+  H35  1  0.15417886  0.36507362  0.18433074  1
  H+  H36  1  0.67273739  0.45090450  0.10646329  1
  H+  H37  1  0.78148654  0.13741046  0.48526730  1
  H+  H38  1  0.88589270  0.74942489  0.67038543  1
  H+  H39  1  0.61934566  0.39344135  0.49787945  1
  H+  H40  1  0.28072300  0.90275932  0.01168146  1
  H+  H41  1  0.87920499  1.03208644  0.64738885  1
  H+  H42  1  0.06532073  0.36574294  0.10884020  1
  H+  H43  1  0.46972452  0.61569635  0.67051137  1
  H+  H44  1  0.62633164  0.76971567  0.65846366  1
  H+  H45  1  0.60271000  0.87525063  1.01460464  1
  H+  H46  1  0.79155756  0.63563770  0.16917787  1
  H+  H47  1  0.21788998  0.59432544  0.15023199  1
  H+  H48  1  0.38233431  0.35807293  0.33757522  1
  H+  H49  1  0.47242796  0.36681829  0.83877439  1
  H+  H50  1  1.02151948  0.62751192  0.16540205  1
  H+  H51  1  0.64281323  0.03706190  0.83164456  1
  H+  H52  1  0.36184325  0.13890489  0.49423808  1
  H+  H53  1  0.90482940  0.75642865  0.47816629  1
  H+  H54  1  0.10682986  0.47109555  0.83854381  1
  H+  H55  1  0.40081135  0.11435888  0.16882846  1
  H+  H56  1  0.72185162  0.86437145  0.85348652  1
  H+  H57  1  0.63893791  0.52966853  0.84364243  1
  H+  H58  1  0.46827678  0.11005885  0.66103035  1
  H+  H59  1  0.78031777  0.39542335  0.68306313  1
  H+  H60  1  0.38457286  0.80858343  0.23537113  1
  H+  H61  1  0.98705687  0.89033249  0.48759933  1
  H+  H62  1  0.35098245  0.67349798  0.42521159  1
  H+  H63  1  0.78283406  0.65181012  0.33788850  1
  H+  H64  1  0.61492508  0.22685417  0.49667628  1
  H+  H65  1  0.89227409  0.04043316  0.86171784  1
  H+  H66  1  0.88318688  0.77467715  0.85274434  1
  H+  H67  1  0.03484086  0.65666785  0.01206712  1
  H+  H68  1  0.36804636  0.48853822  0.83225919  1
  H+  H69  1  0.88730973  0.37029931  0.32444879  1
  H+  H70  1  0.88799502  0.77357057  1.00663490  1
  H+  H71  1  0.34634159  0.97437262  0.81450437  1
  H+  H72  1  0.86379325  0.89217171  0.16155269  1
  H+  H73  1  0.36000708  0.48537492  0.67553994  1
  H+  H74  1  0.12346223  0.52845360  0.95123530  1
  H+  H75  1  0.13994081  0.11400469  1.00013281  1
  H+  H76  1  0.71300247  0.85909375  0.64780752  1
  H+  H77  1  -0.04767865  0.35789226  0.16285631  1
  H+  H78  1  0.72678327  0.11929414  0.68603079  1
  H+  H79  1  0.11267234  0.63608035  0.67931906  1
  H+  H80  1  0.43959409  0.97272642  0.37387791  1
  H+  H81  1  -0.02506890  0.36122420  0.66159007  1
  H+  H82  1  0.04336483  0.13444939  0.01286314  1
  H+  H83  1  0.64014771  0.87246951  0.32256260  1
  H+  H84  1  0.51564789  0.87759104  0.00749546  1
  H+  H85  1  0.36938735  0.60780785  0.16293633  1
  H+  H86  1  0.36272205  -0.01509695  0.49724258  1
  H+  H87  1  0.25931040  0.62743412  0.68205309  1
  H+  H88  1  0.51682807  0.39295540  0.67944904  1
  H+  H89  1  0.47715095  0.11782897  0.50807322  1
  H+  H90  1  0.11111614  0.38444345  0.83376298  1
  H+  H91  1  0.45830281  0.67830856  0.87742354  1
  H+  H92  1  0.77385670  0.89029385  0.00977389  1
  H+  H93  1  0.24815398  0.63986467  -0.02509621  1
  H+  H94  1  0.37657571  0.72911762  0.33337088  1
  H+  H95  1  0.61420143  0.98472269  0.33591507  1
  H+  H96  1  0.97428901  0.88478000  0.63246885  1
  H+  H97  1  0.33766315  0.64578771  -0.02353858  1
  H+  H98  1  0.13059358  1.00468866  0.65843147  1
  H+  H99  1  0.60708281  0.63175665  0.49482875  1
  H+  H100  1  0.90072360  0.91183025  0.34447662  1
  H+  H101  1  0.11729034  0.22872487  0.50295268  1
  H+  H102  1  -0.02520325  0.36641248  0.32098631  1
  H+  H103  1  0.06691763  0.90443802  0.70238270  1
  H+  H104  1  0.25857195  0.12865888  0.00574786  1
  H+  H105  1  0.32932072  0.42530286  0.73461673  1
  H+  H106  1  0.60837900  0.72282152  0.49413976  1
  H+  H107  1  0.11743790  0.41113521  -0.01685315  1
  H+  H108  1  0.50805772  0.37475661  0.99887838  1
  H+  H109  1  0.13246009  0.79447387  0.50634274  1
  H+  H110  1  0.72405159  0.87341642  0.17109346  1
  H+  H111  1  0.88966297  0.36735366  0.65752601  1
  H+  H112  1  0.14675429  0.28010767  0.66673054  1
  H+  H113  1  0.39639654  0.85586905  0.33071856  1
  H+  H114  1  0.96957321  0.35943265  0.98019372  1
  H+  H115  1  0.16768418  0.33141889  0.57218973  1
  H+  H116  1  0.61249794  0.90589364  0.16248701  1
  H+  H117  1  0.49590388  0.12850250  0.85101381  1
  H+  H118  1  0.13231429  0.35086335  0.50999624  1
  H+  H119  1  0.38065794  1.03371514  0.00106014  1
  H+  H120  1  0.14084629  0.02209241  0.99382739  1
  H+  H121  1  0.88513968  0.12393637  0.65714270  1
  H+  H122  1  0.57428433  0.17035892  0.77256326  1
  H+  H123  1  0.38648787  0.02868492  0.32435806  1
  H+  H124  1  0.87169535  0.39873397  0.83078642  1
  H+  H125  1  0.48699120  0.86215444  0.32330270  1
  H+  H126  1  0.90264108  0.03507966  1.00414132  1
  H+  H127  1  0.10616995  0.63810867  0.35697484  1
  H+  H128  1  0.63359932  0.51849445  0.50718982  1
  H+  H129  1  0.09675081  0.95421017  0.41504856  1
  H+  H130  1  0.13522853  0.34832683  0.32781236  1
  H+  H131  1  0.24590965  0.37471117  0.17310381  1
  H+  H132  1  0.11554752  0.47032566  0.33943854  1
  H+  H133  1  0.12721843  0.75395362  1.01969101  1
  H+  H134  1  0.11869476  0.88463941  0.15340526  1
  H+  H135  1  0.32969981  0.16448185  0.73240436  1
  H+  H136  1  0.58607167  0.18150779  1.02587713  1
  H+  H137  1  0.45883096  0.85707800  0.66325488  1
  H+  H138  1  0.34561234  0.21611616  0.34051889  1
  H+  H139  1  0.26819308  0.13046924  0.83098362  1
  H+  H140  1  0.61570780  0.63908783  0.83437082  1
  H+  H141  1  0.97169927  0.36194540  0.84257146  1
  H+  H142  1  0.38285742  0.51934571  0.49972567  1
  H+  H143  1  0.85066407  0.20200124  0.00491322  1
  H+  H144  1  0.48325990  0.61318202  0.49969639  1
  H+  H145  1  0.40809332  0.59466986  1.00426583  1
  H+  H146  1  0.84932085  0.46743944  0.16226957  1
  H+  H147  1  0.61819215  0.89005015  0.48639853  1
  H+  H148  1  0.88377449  0.26403285  0.50062817  1
  H+  H149  1  0.63646642  0.51348980  0.99379121  1
  H+  H150  1  0.39695901  0.87613570  0.50005873  1
  H+  H151  1  0.86533967  0.38306109  0.49281632  1
  H+  H152  1  0.61890755  0.89934853  0.82569382  1
  H+  H153  1  1.02593277  0.14519574  0.83827820  1
  H+  H154  1  0.73406433  0.36657469  0.50994653  1
  H+  H155  1  0.00911469  0.36118877  0.48989808  1
  H+  H156  1  0.89452709  0.03285766  0.17314972  1
  H+  H157  1  1.00423990  0.89410375  0.31996348  1
  H+  H158  1  0.18543055  0.58491751  0.53606264  1
  H+  H159  1  0.66185992  0.07917080  0.73921372  1
  H+  H160  1  0.73743630  0.37952327  0.81940621  1
  H+  H161  1  0.32849090  0.71364269  0.14779388  1
  H+  H162  1  -0.01953957  0.61168436  0.51326023  1
  H+  H163  1  0.12245020  0.22227777  0.16320800  1
  H+  H164  1  0.72624038  0.61482795  0.65971318  1
  H+  H165  1  1.00720539  0.12630643  0.67315662  1
  H+  H166  1  0.26593269  0.37724848  0.34355008  1
  H+  H167  1  0.42386304  0.08581962  0.23070895  1
  H+  H168  1  0.88642461  0.52703584  0.32920690  1
  H+  H169  1  0.36367077  0.12524760  0.00293046  1
  H+  H170  1  0.09854408  0.18898922  0.33625154  1
  H+  H171  1  0.10573370  0.84466950  0.69277514  1
  H+  H172  1  0.10081467  0.07679501  0.33106260  1
  H+  H173  1  0.37387234  0.48680748  0.15316285  1
  H+  H174  1  0.38027448  0.11046741  0.65980114  1
  H+  H175  1  0.52362479  0.14186944  0.33923940  1
  H+  H176  1  0.37013573  0.78111085  0.98474401  1
  H+  H177  1  0.24276011  0.85739215  0.31176146  1
  H+  H178  1  0.87039288  0.63938223  0.01000021  1
  H+  H179  1  0.84315308  0.17550399  0.73496772  1
  H+  H180  1  0.22303520  0.61037774  0.85441676  1
  H+  H181  1  0.64723945  0.28799528  0.82145110  1
  H+  H182  1  0.52605597  0.63889510  0.83444509  1
  H+  H183  1  0.61004874  0.47872134  0.34563376  1
  H+  H184  1  0.63401248  0.36564650  0.33333312  1
  H+  H185  1  0.61316507  0.14197481  0.34159398  1
  H+  H186  1  0.66804262  0.58776371  0.60030874  1
  H+  H187  1  0.67186849  0.34305587  0.73428630  1
  H+  H188  1  0.77566983  0.14336016  0.82446168  1
  H+  H189  1  0.13430611  0.10860556  0.84369203  1
  H+  H190  1  0.64385191  0.64330055  0.16011738  1
  H+  H191  1  0.84458930  0.37625361  0.16417386  1
  H+  H192  1  0.34656538  0.20801932  0.16796668  1
  H+  H193  1  0.22952634  0.37092623  0.83832654  1
  H+  H194  1  0.80604233  0.42591708  0.00828923  1
  H+  H195  1  0.38780569  0.87693331  0.98794032  1
  H+  H196  1  0.03138931  0.13798812  0.16157159  1
  H+  H197  1  0.52838527  0.64509363  0.33750424  1
  H+  H198  1  0.64196016  0.78562914  0.32409961  1
  H+  H199  1  0.71907286  0.61049239  0.50531867  1
  H+  H200  1  0.65390255  0.03180878  0.49969142  1
  H+  H201  1  0.86253733  0.88972334  1.01347173  1
  H+  H202  1  0.29072145  0.78660623  0.22571737  1
  H+  H203  1  0.10955841  0.37927879  0.68377375  1
  H+  H204  1  0.35479971  0.97139007  0.67018907  1
  H+  H205  1  0.31222602  0.65699008  0.74352362  1
  H+  H206  1  0.38065749  0.61426724  0.67208524  1
  H+  H207  1  0.37734058  0.11215188  0.32271440  1
  H+  H208  1  0.02285837  0.13596910  0.49640900  1
  H+  H209  1  0.39518113  0.36867795  0.49800521  1
  H+  H210  1  0.38608228  0.31364082  0.24561414  1
  H+  H211  1  0.23205692  0.37219986  0.66546805  1
  H+  H212  1  0.46863214  0.63757783  0.15697869  1
  H+  H213  1  1.02665205  0.63885377  0.66775473  1
  H+  H214  1  0.25745271  0.12331543  0.34482612  1
  H+  H215  1  0.36108618  0.88749696  0.15918362  1
  H+  H216  1  0.73019808  0.61781234  0.84410682  1
  H+  H217  1  0.62713939  0.10041437  0.98312044  1
  H+  H218  1  0.22758354  0.38412310  -0.00829535  1
  H+  H219  1  0.11011054  -0.03073251  0.84098290  1
  H+  H220  1  0.34497608  0.63116878  0.84011795  1
  H+  H221  1  0.35508744  0.46707561  0.33680562  1
  H+  H222  1  0.13869245  0.86834913  1.00531276  1
  H+  H223  1  0.36706118  0.39337924  0.16064896  1
  H+  H224  1  0.65279995  0.11883232  0.50347406  1
  H+  H225  1  0.39357553  0.27913123  0.49452932  1
  H+  H226  1  0.89687035  0.61517492  0.50469157  1
  H+  H227  1  0.58952302  1.00669276  0.17302819  1
  H+  H228  1  0.05861794  0.08548906  0.70192902  1
  H+  H229  1  0.36276261  0.84827402  0.83205597  1
  H+  H230  1  0.66453651  0.50949393  0.18233142  1
  H+  H231  1  0.12596496  0.66898595  0.50160957  1
  H+  H232  1  0.53226358  0.62629346  0.00013402  1
  H+  H233  1  0.14888794  0.78125279  0.16173248  1
  H+  H234  1  0.85841120  0.89161806  0.64170914  1
  H+  H235  1  0.63502520  0.27693464  0.33288608  1
  H+  H236  1  0.70587957  0.34591882  0.17936372  1
  H+  H237  1  0.36784283  0.63575776  0.33098338  1
  H+  H238  1  0.27402322  0.39062612  0.49837026  1
  H+  H239  1  0.23298562  0.61992165  0.33328371  1
  H+  H240  1  0.22334785  0.86031655  0.84933362  1
  H+  H241  1  0.63458165  0.77515737  0.84386506  1
  H+  H242  1  0.28574217  0.16203013  0.66759486  1
  H+  H243  1  0.87473539  0.34201508  -0.00640248  1
  H+  H244  1  0.84597452  0.21249576  0.15807827  1
  H+  H245  1  0.35921382  0.13561941  0.83088829  1
  H+  H246  1  0.39333074  0.28397949  0.67074520  1
  H+  H247  1  0.61932127  0.14731375  0.82727771  1
  H+  H248  1  0.29682321  0.27555311  0.21411776  1
  H+  H249  1  0.10863305  0.63513102  0.84155926  1
  H+  H250  1  0.61258840  0.39825824  0.82194155  1
  H+  H251  1  0.11728833  0.91288483  0.47780517  1
  H+  H252  1  0.86601036  0.89151625  0.85574512  1
  H+  H253  1  0.73250350  0.52497069  0.23183983  1
  H+  H254  1  0.35001173  0.22196958  0.00635654  1
  H+  H255  1  0.60930105  0.32687921  1.00140485  1
  H+  H256  1  0.37140932  0.46946475  0.99744036  1
  H+  H257  1  0.68851080  0.31231748  1.00832919  1
  H+  H258  1  0.39218715  0.61932403  0.49580488  1
  H+  H259  1  0.62292649  0.38283395  0.15766884  1
  H+  H260  1  0.91683900  0.79855534  0.32221232  1
  H+  H261  1  0.53872342  0.11708039  0.17196190  1
  H+  H262  1  0.63501940  0.37274641  0.68256364  1
  H+  H263  1  0.88948805  0.61843067  0.32354217  1
  H+  H264  1  0.22348027  0.86232526  0.65863198  1
  H+  H265  1  0.60030087  0.88211636  0.66446620  1
  H+  H266  1  0.86878217  0.48383562  0.67360675  1
  H+  H267  1  0.23452757  0.87216364  0.14923026  1
  H+  H268  1  0.88918761  0.87548986  0.49213540  1
  H+  H269  1  0.86105728  0.22768326  0.33352372  1
  H+  H270  1  0.89626799  0.53689309  0.84754726  1
  H+  H271  1  0.61187448  0.64125960  0.67790702  1
  H+  H272  1  0.86381570  0.13498373  0.15701567  1
  H+  H273  1  0.23175153  0.08887437  0.19170485  1
  H+  H274  1  0.40890323  0.79461281  0.49360360  1
  H+  H275  1  0.81242004  0.39286934  0.07446438  1
  H+  H276  1  0.02697958  0.88717500  0.16455650  1
  H+  H277  1  0.89602987  0.61443079  0.17422341  1
  H+  H278  1  0.72084998  0.85555731  0.50163298  1
  H+  H279  1  0.27118182  0.89835761  0.49466891  1
  H+  H280  1  0.77206290  0.39069233  0.34083015  1
  H+  H281  1  0.97408161  0.86193613  0.85725681  1
  H+  H282  1  0.86871234  0.14124893  0.32889088  1
  H+  H283  1  0.60822455  0.48223432  0.67581211  1
  H+  H284  1  0.87837715  0.04010779  0.31189052  1
  H+  H285  1  0.60305964  0.97141029  0.67576145  1
  H+  H286  1  0.16190405  0.76678307  0.31467716  1
  H+  H287  1  0.58953563  0.75827608  0.14807416  1
  H+  H288  1  0.07896980  0.16782604  0.77659374  1
  H+  H289  1  0.67375313  0.58080115  0.93893700  1
  H+  H290  1  0.91599254  0.83227857  0.94748624  1
  H+  H291  1  0.82816765  0.91026233  0.70335277  1
  H+  H292  1  0.17213344  0.83445029  0.94821497  1
  H+  H293  1  0.33097952  0.16275505  0.43231461  1
  H+  H294  1  0.34940956  0.93470289  0.06538001  1
  H+  H295  1  0.85091310  0.68395465  0.77686340  1
  H+  H296  1  0.83350096  0.92289306  0.10362092  1
  H+  H297  1  0.36720884  0.39935635  0.82940685  1
  H+  H298  1  0.58886828  0.12227152  0.07800482  1
  H+  H299  1  0.40381267  0.32150978  0.93048889  1
  H+  H300  1  0.08742235  0.92276402  0.06972578  1
  H+  H301  1  0.85705768  0.68626963  0.38820241  1
  H+  H302  1  0.65685126  0.82438189  0.55943671  1
  H+  H303  1  0.85366068  0.43613853  0.77036502  1
  H+  H304  1  0.65015499  0.32873323  0.23870520  1
  H+  H305  1  0.17092890  0.35331169  0.93178423  1
  H+  H306  1  0.31328960  0.66616970  0.08204975  1
  H+  H307  1  0.57371186  0.92152136  0.10160307  1
  H+  H308  1  0.07779578  0.40095621  0.39273150  1
  H+  H309  1  0.33865827  0.71823066  0.83505651  1
  H+  H310  1  0.10281311  0.15927178  0.07213409  1
  H+  H311  1  0.60492454  0.22966430  0.68418233  1
  H+  H312  1  0.46730332  0.53909490  0.28261853  1
  H+  H313  1  0.39793867  0.82846398  0.89289114  1
  H+  H314  1  0.91501702  0.32466351  0.56167793  1
  H+  H315  1  0.07252112  0.44262278  0.03175092  1
  H+  H316  1  0.31940880  0.15269729  0.10704944  1
  H+  H317  1  0.84568232  0.93495862  0.80145507  1
  H+  H318  1  0.66190817  0.83188901  0.94045534  1
  H+  H319  1  0.42526988  0.59062227  0.92372103  1
  H+  H320  1  0.16259970  0.85267861  0.56488406  1
  H+  H321  1  0.35269742  0.92718879  0.40891071  1
  H+  H322  1  0.96031360  0.75986733  0.71041106  1
  H+  H323  1  0.13314626  0.99101947  0.18277302  1
  H+  H324  1  0.60656952  0.14076963  0.68653369  1
  H+  H325  1  0.11504596  0.72650646  0.84485365  1
  H+  H326  1  0.89130538  0.12714398  0.84723714  1
  H+  H327  1  0.93101360  0.84577112  0.23032141  1
  H+  H328  1  0.84091625  0.66715742  0.10492791  1
  H+  H329  1  0.19286950  0.13545238  0.58727698  1
  H+  H330  1  0.41876245  0.10257003  0.94333166  1
  H+  H331  1  0.16743067  0.54205406  0.20939885  1
  H+  H332  1  0.93767256  0.60227258  0.93215192  1
  H+  H333  1  0.07792428  0.88988152  0.79323585  1
  H+  H334  1  0.16439208  0.05010302  0.25434939  1
  H+  H335  1  0.94272352  1.00517995  0.37042407  1
  H+  H336  1  0.65525090  0.08887059  0.27056569  1
  H+  H337  1  0.90745074  0.33366925  0.22918311  1
  H+  H338  1  0.32767826  0.41994733  0.43551192  1
  H+  H339  1  0.83335022  0.41887264  0.39921114  1
  H+  H340  1  0.81235273  0.14705545  0.06466631  1
  H+  H341  1  -0.00226355  0.11723233  0.32034521  1
  H+  H342  1  0.58918715  0.92477014  0.39495826  1
  H+  H343  1  0.01980084  0.64085198  0.34711195  1
  H+  H344  1  0.16536721  0.61328110  0.28508073  1
  H+  H345  1  0.92045944  0.09571565  0.55933462  1
  H+  H346  1  0.08209086  0.67960783  0.44132032  1
  H+  H347  1  0.22804934  0.66896965  0.57257015  1
  H+  H348  1  0.58324518  0.41866149  0.40372220  1
  H+  H349  1  0.31541940  0.91101524  0.75797482  1
  H+  H350  1  0.42037446  0.57833191  0.24701052  1
  H+  H351  1  0.56783555  0.40519039  0.05812975  1
  H+  H352  1  0.16573552  0.08046672  0.90304133  1
  H+  H353  1  0.84243333  0.92565252  0.43463910  1
  H+  H354  1  0.98722242  0.62642136  0.84702485  1
  H+  H355  1  0.17461615  0.32191671  0.27326164  1
  H+  H356  1  0.91463118  0.58757131  0.60260608  1
  H+  H357  1  0.33709157  0.41430840  0.05886732  1
  H+  H358  1  0.67084269  0.09951502  0.89160676  1
  H+  H359  1  0.52745895  0.39049513  0.49222131  1
  H+  H360  1  0.67531980  0.33765732  0.56920453  1
  H+  H361  1  0.58525380  0.67112427  0.73865978  1
  H+  H362  1  0.10785561  0.54694012  0.61854398  1
  H+  H363  1  0.58282116  0.16897909  0.43708984  1
  H+  H364  1  0.41503260  0.08706585  0.56678640  1
  H+  H365  1  0.92309548  0.09728701  0.23070401  1
  H+  H366  1  0.84094714  0.16887426  0.42418580  1
  H+  H367  1  0.12297174  0.13521598  0.49497298  1
  H+  H368  1  0.08686177  0.67731256  0.08032187  1
  H+  H369  1  0.86450140  0.23242199  0.82643237  1
  H+  H370  1  0.58619336  0.91955609  0.76383608  1
  H+  H371  1  0.57679531  0.43082435  0.77036193  1
  H+  H372  1  0.62335430  0.63382249  0.01151143  1
  H+  H373  1  0.96316423  0.72687145  0.44681216  1
  H+  H374  1  0.35317863  0.87941308  0.67330395  1
  H+  H375  1  0.37985611  0.98557857  0.15905058  1
  H+  H376  1  0.67339788  0.58337983  0.27958913  1
  H+  H377  1  0.66465605  0.84380134  0.23016702  1
  H+  H378  1  0.93477791  0.10296922  0.95063255  1
  H+  H379  1  0.57990197  0.66941658  0.40051614  1
  H+  H380  1  0.07626043  0.40699282  0.74385527  1
  H+  H381  1  0.77607859  0.62874205  0.01114233  1
  H+  H382  1  0.90532748  0.32761001  0.89856876  1
  H+  H383  1  0.13793820  0.03522128  0.49364677  1
  O2-  O384  1  0.09293455  0.16304589  0.14842284  1
  O2-  O385  1  0.08702016  0.16850773  0.48489361  1
  O2-  O386  1  0.08592290  0.17000720  0.82115194  1
  O2-  O387  1  0.04751434  0.40861211  0.11229808  1
  O2-  O388  1  0.07070575  0.38795967  0.47314114  1
  O2-  O389  1  0.07802597  0.41296612  0.81976306  1
  O2-  O390  1  0.08222248  0.65756320  0.14900405  1
  O2-  O391  1  0.08289489  0.68358150  0.48717001  1
  O2-  O392  1  0.08068233  0.66769616  0.82791385  1
  O2-  O393  1  0.08954045  0.92137194  0.15044529  1
  O2-  O394  1  0.08847281  0.94443677  0.46323620  1
  O2-  O395  1  0.07850900  0.90492378  0.83690164  1
  O2-  O396  1  0.32448394  0.14883407  0.15185511  1
  O2-  O397  1  0.33116088  0.16819073  0.47750209  1
  O2-  O398  1  0.32846364  0.16344065  0.81472989  1
  O2-  O399  1  0.34141256  0.42465172  0.14080995  1
  O2-  O400  1  0.33290633  0.42571523  0.48096949  1
  O2-  O401  1  0.33680985  0.43027180  0.81547701  1
  O2-  O402  1  0.31048841  0.65800794  0.12680857  1
  O2-  O403  1  0.35821129  0.67741379  0.47055311  1
  O2-  O404  1  0.30726717  0.65327709  0.82454629  1
  O2-  O405  1  0.34568032  0.92743817  0.13942231  1
  O2-  O406  1  0.33214126  0.92446265  0.48113331  1
  O2-  O407  1  0.31480611  0.91333633  0.80450995  1
  O2-  O408  1  0.59713600  0.12547599  0.16367514  1
  O2-  O409  1  0.58297843  0.16655662  0.48247384  1
  O2-  O410  1  0.58497599  0.17728173  0.81747390  1
  O2-  O411  1  0.62126839  0.43029753  0.13149418  1
  O2-  O412  1  0.59182824  0.42541566  0.48155925  1
  O2-  O413  1  0.57850776  0.42770882  0.81611787  1
  O2-  O414  1  0.54215671  0.70813479  0.12600691  1
  O2-  O415  1  0.57534405  0.66053089  0.47967415  1
  O2-  O416  1  0.58541259  0.66843178  0.81719364  1
  O2-  O417  1  0.57573181  0.92883516  0.14732421  1
  O2-  O418  1  0.59701585  0.92776871  0.47057558  1
  O2-  O419  1  0.60085216  0.93761411  0.80676236  1
  O2-  O420  1  0.82403930  0.15440679  0.14183262  1
  O2-  O421  1  0.84371843  0.16905298  0.47024357  1
  O2-  O422  1  0.83783041  0.17169146  0.81115166  1
  O2-  O423  1  0.81412994  0.40712526  0.14820725  1
  O2-  O424  1  0.83460618  0.41386956  0.47973093  1
  O2-  O425  1  0.84809724  0.43567245  0.81552990  1
  O2-  O426  1  0.84891977  0.67147044  0.15019848  1
  O2-  O427  1  0.90384684  0.70406754  0.46019031  1
  O2-  O428  1  0.83902481  0.67471716  0.82098701  1
  O2-  O429  1  0.83268884  0.92204309  0.14919555  1
  O2-  O430  1  0.82895627  0.91738238  0.47984168  1
  O2-  O431  1  0.83687540  0.92552239  0.84494054  1
  O2-  O432  1  0.17185827  0.05279970  0.20807650  1
  O2-  O433  1  0.16858667  0.09684878  0.51009498  1
  O2-  O434  1  0.16386341  0.07693300  0.85709120  1
  O2-  O435  1  0.18888871  0.33929983  0.19459491  1
  O2-  O436  1  0.16750982  0.32673684  0.52657857  1
  O2-  O437  1  0.16895832  0.33983594  0.85304409  1
  O2-  O438  1  0.15789897  0.55655881  0.16855815  1
  O2-  O439  1  0.21099695  0.64681804  0.53120980  1
  O2-  O440  1  0.15753934  0.57628297  0.86852136  1
  O2-  O441  1  0.17074693  0.83954572  0.14605660  1
  O2-  O442  1  0.16352069  0.85558730  0.51939964  1
  O2-  O443  1  0.16933622  0.83068976  0.87378319  1
  O2-  O444  1  0.43123892  0.08564771  0.18562354  1
  O2-  O445  1  0.41549343  0.08865995  0.52110249  1
  O2-  O446  1  0.43678854  0.08839237  0.87031460  1
  O2-  O447  1  0.35771467  0.30062416  0.20440374  1
  O2-  O448  1  0.43025829  0.34127836  0.50344947  1
  O2-  O449  1  0.41077954  0.33683372  0.85208686  1
  O2-  O450  1  0.41041243  0.58971958  0.17634915  1
  O2-  O451  1  0.41855568  0.58386316  0.51184633  1
  O2-  O452  1  0.42694773  0.61606951  0.87190305  1
  O2-  O453  1  0.34075630  0.79310451  0.20281355  1
  O2-  O454  1  0.43693081  0.85442215  0.50742778  1
  O2-  O455  1  0.38677918  0.81392037  0.84885196  1
  O2-  O456  1  0.59486967  0.05762013  0.20212148  1
  O2-  O457  1  0.68768152  0.09232220  0.51416667  1
  O2-  O458  1  0.67179429  0.09981277  0.84275181  1
  O2-  O459  1  0.64632749  0.32502124  0.19354098  1
  O2-  O460  1  0.67298861  0.33853382  0.52492084  1
  O2-  O461  1  0.67450675  0.34996167  0.81017525  1
  O2-  O462  1  0.70507230  0.55378542  0.21239170  1
  O2-  O463  1  0.66136680  0.58112287  0.52253306  1
  O2-  O464  1  0.67063254  0.58956972  0.86060793  1
  O2-  O465  1  0.66312871  0.84751601  0.18454363  1
  O2-  O466  1  0.65907659  0.82259081  0.51387857  1
  O2-  O467  1  0.65919585  0.83413897  0.86113112  1
  O2-  O468  1  0.92792629  0.09460796  0.18418646  1
  O2-  O469  1  0.92463837  0.09105988  0.51440770  1
  O2-  O470  1  0.92644172  0.10357638  0.86539045  1
  O2-  O471  1  0.89663336  0.32982646  0.18427930  1
  O2-  O472  1  0.91580559  0.32568612  0.51623727  1
  O2-  O473  1  0.90929984  0.33400837  0.85273067  1
  O2-  O474  1  0.92009984  0.57787416  0.18883519  1
  O2-  O475  1  0.91806951  0.57963415  0.52422515  1
  O2-  O476  1  0.92474394  0.59729649  0.86337444  1
  O2-  O477  1  0.92932551  0.84175718  0.18468970  1
  O2-  O478  1  0.92707787  0.85055404  0.50354838  1
  O2-  O479  1  0.91240595  0.83414748  0.87037840  1
  O2-  O480  1  0.14282966  0.05070672  0.32493956  1
  O2-  O481  1  0.21133794  0.16958714  0.62507911  1
  O2-  O482  1  0.17133917  0.08217455  0.97851534  1
  O2-  O483  1  0.16878542  0.31944250  0.31826421  1
  O2-  O484  1  0.16956350  0.33792461  0.65015824  1
  O2-  O485  1  0.16980483  0.36713180  0.97533782  1
  O2-  O486  1  0.16983847  0.58990505  0.32400746  1
  O2-  O487  1  0.14656287  0.55965528  0.65286493  1
  O2-  O488  1  0.15619416  0.58973789  0.93459596  1
  O2-  O489  1  0.21213399  0.80379192  0.28911232  1
  O2-  O490  1  0.16199196  0.83203518  0.64382881  1
  O2-  O491  1  0.17160715  0.83787249  0.99417799  1
  O2-  O492  1  0.41277462  0.08741032  0.30739143  1
  O2-  O493  1  0.40882402  0.07850386  0.64406165  1
  O2-  O494  1  0.40284862  0.09611567  0.98761091  1
  O2-  O495  1  0.40962266  0.32606800  0.32043747  1
  O2-  O496  1  0.42380210  0.34520423  0.65847828  1
  O2-  O497  1  0.40267564  0.31790887  0.97590057  1
  O2-  O498  1  0.43142446  0.56473382  0.29033588  1
  O2-  O499  1  0.40960993  0.58375873  0.65599278  1
  O2-  O500  1  0.42920915  0.56830061  0.97563686  1
  O2-  O501  1  0.42387680  0.82559119  0.31160155  1
  O2-  O502  1  0.39638509  0.82774988  0.65409395  1
  O2-  O503  1  0.40949643  0.84029324  0.97056470  1
  O2-  O504  1  0.66533310  0.09200235  0.31523260  1
  O2-  O505  1  0.66368524  0.08725428  0.69511006  1
  O2-  O506  1  0.66763790  0.09356874  0.95580693  1
  O2-  O507  1  0.66605988  0.33759562  0.31762245  1
  O2-  O508  1  0.66827148  0.34182536  0.68835413  1
  O2-  O509  1  0.62838974  0.28467933  0.99496238  1
  O2-  O510  1  0.67111988  0.58942032  0.32433635  1
  O2-  O511  1  0.66708451  0.58967686  0.64580891  1
  O2-  O512  1  0.67440599  0.57582892  0.98426026  1
  O2-  O513  1  0.66982174  0.84308568  0.30567011  1
  O2-  O514  1  0.65153703  0.82630353  0.63653297  1
  O2-  O515  1  0.66821701  0.83173422  0.98544355  1
  O2-  O516  1  0.91622060  0.10068256  0.30165116  1
  O2-  O517  1  0.91560041  0.09449452  0.63890781  1
  O2-  O518  1  0.94590213  0.09449224  0.99301373  1
  O2-  O519  1  0.91463984  0.33898277  0.30629451  1
  O2-  O520  1  0.91715717  0.33445983  0.64200424  1
  O2-  O521  1  0.90751777  0.31921610  0.97216840  1
  O2-  O522  1  0.92080011  0.58709745  0.31291813  1
  O2-  O523  1  0.91793277  0.58741970  0.64787301  1
  O2-  O524  1  0.94319926  0.60432687  0.97943928  1
  O2-  O525  1  0.94206399  0.85741204  0.30579422  1
  O2-  O526  1  0.91477299  0.84628032  0.62039426  1
  O2-  O527  1  0.91994904  0.83444424  0.99288050  1
  O2-  O528  1  0.10519858  0.15924853  0.02652733  1
  O2-  O529  1  0.05877479  0.12687628  0.33811821  1
  O2-  O530  1  0.06351829  0.14115744  0.69404852  1
  O2-  O531  1  0.07853481  0.43818994  -0.01244027  1
  O2-  O532  1  0.08330418  0.40796290  0.34779384  1
  O2-  O533  1  0.07538006  0.40584165  0.69801017  1
  O2-  O534  1  0.09247665  0.68821537  0.03384928  1
  O2-  O535  1  0.07856200  0.67240862  0.36618637  1
  O2-  O536  1  0.08836986  0.67431055  0.67853021  1
  O2-  O537  1  0.08686984  0.91695150  0.02469957  1
  O2-  O538  1  0.09964570  0.96119071  0.34868051  1
  O2-  O539  1  0.06270955  0.85235988  0.71943330  1
  O2-  O540  1  0.32114100  0.16153503  0.02374635  1
  O2-  O541  1  0.31982535  0.15541772  0.35444127  1
  O2-  O542  1  0.33937056  0.17064250  0.68787893  1
  O2-  O543  1  0.33317687  0.40915609  0.01399775  1
  O2-  O544  1  0.32747501  0.41190261  0.35895343  1
  O2-  O545  1  0.32716219  0.42268565  0.68947673  1
  O2-  O546  1  0.30378713  0.66586723  -0.00168443  1
  O2-  O547  1  0.34131756  0.66689046  0.34847520  1
  O2-  O548  1  0.31786472  0.66046368  0.69836290  1
  O2-  O549  1  0.34362588  0.93740926  0.01979021  1
  O2-  O550  1  0.37817095  0.93645930  0.36632812  1
  O2-  O551  1  0.32150163  0.91153553  0.68628967  1
  O2-  O552  1  0.56875122  0.12123825  0.03627368  1
  O2-  O553  1  0.58184719  0.17133332  0.35757821  1
  O2-  O554  1  0.56978058  0.16705758  0.69359254  1
  O2-  O555  1  0.56921529  0.40503571  0.01320298  1
  O2-  O556  1  0.57864778  0.41721809  0.35825116  1
  O2-  O557  1  0.57976686  0.42458183  0.69452265  1
  O2-  O558  1  0.59009634  0.66330021  0.01947041  1
  O2-  O559  1  0.58636973  0.67318490  0.35540508  1
  O2-  O560  1  0.58331161  0.67248043  0.69316519  1
  O2-  O561  1  0.57014195  0.90222742  0.02995637  1
  O2-  O562  1  0.58341252  0.92327326  0.34936912  1
  O2-  O563  1  0.56902527  0.90888578  0.68319582  1
  O2-  O564  1  0.80907430  0.14425513  0.01921938  1
  O2-  O565  1  0.83343182  0.16777058  0.34845153  1
  O2-  O566  1  0.83787527  0.17210148  0.68916706  1
  O2-  O567  1  0.80974319  0.38041270  0.02932697  1
  O2-  O568  1  0.83383896  0.42257421  0.35397160  1
  O2-  O569  1  0.84373741  0.42398073  0.68956781  1
  O2-  O570  1  0.83624392  0.66342612  0.02760931  1
  O2-  O571  1  0.84644175  0.68147805  0.34364791  1
  O2-  O572  1  0.89963165  0.71664844  0.69984882  1
  O2-  O573  1  0.83383609  0.92205795  0.02610680  1
  O2-  O574  1  0.88803936  0.95114298  0.36879784  1
  O2-  O575  1  0.82669581  0.91943828  0.65989633  1
