# generated using pymatgen
data_H2O
_symmetry_space_group_name_H-M   'P 1'
_cell_length_a   17.98900128
_cell_length_b   17.99183297
_cell_length_c   21.99963976
_cell_angle_alpha   89.97307599
_cell_angle_beta   90.01203607
_cell_angle_gamma   120.01944546
_symmetry_Int_Tables_number   1
_chemical_formula_structural   H2O
_chemical_formula_sum   'H384 O192'
_cell_volume   6165.14769288
_cell_formula_units_Z   192
loop_
 _symmetry_equiv_pos_site_id
 _symmetry_equiv_pos_as_xyz
  1  'x, y, z'
loop_
 _atom_type_symbol
 _atom_type_oxidation_number
  H+  1.0
  O2-  -2.0
loop_
 _atom_site_type_symbol
 _atom_site_label
 _atom_site_symmetry_multiplicity
 _atom_site_fract_x
 _atom_site_fract_y
 _atom_site_fract_z
 _atom_site_occupancy
  H+  H0  1  0.87727873  0.53308176  0.84223459  1
  H+  H1  1  0.35127356  0.61033975  0.81496414  1
  H+  H2  1  0.48174355  0.12242240  0.85181067  1
  H+  H3  1  0.67415312  0.35547063  0.24727355  1
  H+  H4  1  0.62968223  0.52916560  0.99430881  1
  H+  H5  1  0.48270656  0.61501506  0.16877865  1
  H+  H6  1  0.63150284  0.03630758  0.83869202  1
  H+  H7  1  0.86087967  0.64734434  0.00642575  1
  H+  H8  1  0.58518478  0.72070654  0.67456846  1
  H+  H9  1  0.41111686  0.31247201  0.26394792  1
  H+  H10  1  0.36191654  0.13168530  0.83065527  1
  H+  H11  1  0.13553050  0.35514088  0.17510962  1
  H+  H12  1  0.51049790  0.38938421  0.66603393  1
  H+  H13  1  0.13882283  0.10623624  0.16862985  1
  H+  H14  1  0.76916196  0.63605585  0.67148513  1
  H+  H15  1  0.16332352  0.08757041  0.56429852  1
  H+  H16  1  0.33394376  0.41670779  0.09607597  1
  H+  H17  1  0.89569164  0.26129692  0.66553984  1
  H+  H18  1  0.41579961  0.07145968  0.90597973  1
  H+  H19  1  0.15762591  0.82111947  0.59168305  1
  H+  H20  1  0.38382293  0.11503307  0.16279988  1
  H+  H21  1  0.48158415  0.87299286  0.14911866  1
  H+  H22  1  0.39372457  0.78690694  0.15413256  1
  H+  H23  1  0.01480675  0.88714415  0.64187225  1
  H+  H24  1  0.12526129  0.40047737  0.46939961  1
  H+  H25  1  0.02647144  0.64104865  0.83168184  1
  H+  H26  1  0.65428110  0.61291618  0.15888373  1
  H+  H27  1  0.63622959  1.01758675  -0.01446112  1
  H+  H28  1  0.64863170  0.78042566  0.98688746  1
  H+  H29  1  0.71487875  0.34825189  0.16126394  1
  H+  H30  1  0.01683966  0.87984561  0.33524766  1
  H+  H31  1  0.73034174  0.12405452  0.34674118  1
  H+  H32  1  0.38926033  0.62246266  0.99182080  1
  H+  H33  1  0.07896169  0.91370205  0.43049661  1
  H+  H34  1  0.88468773  0.02151617  0.17126607  1
  H+  H35  1  0.80076891  0.60980220  0.16796642  1
  H+  H36  1  0.36924515  0.46970290  0.47805068  1
  H+  H37  1  0.31391545  0.67542559  0.74882880  1
  H+  H38  1  0.29518647  0.75314737  0.74484471  1
  H+  H39  1  0.09959146  0.90807302  0.92439825  1
  H+  H40  1  0.46824401  0.10691223  0.16519371  1
  H+  H41  1  0.63771801  0.10434141  0.68557056  1
  H+  H42  1  0.10028902  0.22332053  0.68525691  1
  H+  H43  1  0.87833421  0.77286840  0.31923527  1
  H+  H44  1  0.11159338  0.72515213  0.48760224  1
  H+  H45  1  0.17394150  0.83184087  0.22393059  1
  H+  H46  1  0.90004742  0.78915911  0.84674814  1
  H+  H47  1  0.62894617  0.53657108  0.65522746  1
  H+  H48  1  0.77968549  0.13602382  0.14371529  1
  H+  H49  1  0.90644952  0.32323481  0.22749079  1
  H+  H50  1  0.86162762  0.13878756  0.34230306  1
  H+  H51  1  0.48735876  0.62212009  0.83574336  1
  H+  H52  1  0.36272290  0.22674171  0.49023049  1
  H+  H53  1  0.03730499  0.88677610  0.86898709  1
  H+  H54  1  0.01499145  0.37320886  0.15955969  1
  H+  H55  1  0.22142393  0.36483073  0.85561797  1
  H+  H56  1  0.61909942  0.24442123  0.82580174  1
  H+  H57  1  0.36424300  0.51348403  0.66239863  1
  H+  H58  1  0.44712567  0.64111293  0.72035630  1
  H+  H59  1  0.35908785  0.73128827  0.34008900  1
  H+  H60  1  0.87763422  0.08574179  0.66779502  1
  H+  H61  1  0.07992406  0.15631240  0.10140483  1
  H+  H62  1  0.42936786  0.09023282  1.01083517  1
  H+  H63  1  0.11268035  0.21120422  0.65559834  1
  H+  H64  1  0.61433442  0.64556627  0.00568191  1
  H+  H65  1  0.10780317  0.64419545  0.67193776  1
  H+  H66  1  0.41184936  0.36329553  0.72642453  1
  H+  H67  1  0.11836532  0.98272920  -0.00044522  1
  H+  H68  1  0.44101501  0.71797126  0.69559305  1
  H+  H69  1  0.26887835  0.34339226  0.67141009  1
  H+  H70  1  0.73408249  0.38514308  0.82903612  1
  H+  H71  1  0.96509802  0.37094861  0.99059345  1
  H+  H72  1  0.64463123  0.84949719  0.56383606  1
  H+  H73  1  0.63280592  0.79572053  0.32900789  1
  H+  H74  1  0.85584342  0.63328990  0.67675326  1
  H+  H75  1  0.76593059  0.38772996  0.47410520  1
  H+  H76  1  0.11015148  0.20996501  0.33359638  1
  H+  H77  1  0.15134406  0.85884832  0.99017081  1
  H+  H78  1  -0.01879570  0.86826421  -0.00159625  1
  H+  H79  1  0.77825323  0.88627961  0.16214210  1
  H+  H80  1  0.25159864  0.35204254  0.70004895  1
  H+  H81  1  0.11304562  0.63521380  0.33304672  1
  H+  H82  1  0.47786869  0.36287645  0.16950241  1
  H+  H83  1  0.26524752  0.87998619  0.33398576  1
  H+  H84  1  0.35791816  0.13571593  0.49028790  1
  H+  H85  1  0.42102432  0.83428450  0.92372829  1
  H+  H86  1  0.27874654  0.14153378  0.14547731  1
  H+  H87  1  0.77341428  0.64773133  0.00840273  1
  H+  H88  1  0.63112781  0.65224033  0.82425219  1
  H+  H89  1  0.78505479  0.89727961  1.01327878  1
  H+  H90  1  0.82493725  0.41881095  0.40127605  1
  H+  H91  1  0.86156569  0.73130395  0.48389055  1
  H+  H92  1  0.52895350  0.88239413  -0.01213391  1
  H+  H93  1  0.22223525  0.61158297  -0.01081796  1
  H+  H94  1  0.60023709  0.14876493  0.35045997  1
  H+  H95  1  0.60921694  0.98580358  0.35465549  1
  H+  H96  1  0.63894372  0.85996334  0.16202353  1
  H+  H97  1  0.85749320  0.88631499  0.49545714  1
  H+  H98  1  0.86824699  0.13542123  0.15034028  1
  H+  H99  1  0.79281416  0.31989343  0.69286895  1
  H+  H100  1  0.74265584  -0.11903062  0.72333650  1
  H+  H101  1  0.26605048  0.63751953  0.33736892  1
  H+  H102  1  0.39966819  0.53217438  0.85062851  1
  H+  H103  1  0.62381641  0.86803111  0.79940365  1
  H+  H104  1  0.61781386  0.72345489  0.15941847  1
  H+  H105  1  0.79134482  0.02343612  0.72910253  1
  H+  H106  1  0.60652725  0.37625004  0.33659002  1
  H+  H107  1  0.12761985  0.09878150  0.31837548  1
  H+  H108  1  0.61462731  0.90074233  0.34359007  1
  H+  H109  1  0.64377356  0.03467800  0.50305697  1
  H+  H110  1  0.13095950  0.85403187  0.31831131  1
  H+  H111  1  0.86349889  0.64075837  0.33105395  1
  H+  H112  1  0.46710812  0.10518589  0.66760583  1
  H+  H113  1  0.85436480  0.23921697  -0.00194364  1
  H+  H114  1  0.85724663  0.39361036  -0.00040098  1
  H+  H115  1  0.00682471  0.01546621  0.73544245  1
  H+  H116  1  0.60407439  0.22334888  0.48971779  1
  H+  H117  1  0.36469668  0.47903157  0.15345645  1
  H+  H118  1  0.97285185  0.86174756  0.50268879  1
  H+  H119  1  0.85946000  0.38344807  0.32868318  1
  H+  H120  1  0.47632274  0.62930656  0.33437738  1
  H+  H121  1  0.36343605  0.64085210  0.15498337  1
  H+  H122  1  0.11160881  0.21509675  0.16095243  1
  H+  H123  1  0.64040553  0.28970824  0.97917821  1
  H+  H124  1  0.52808610  0.65106443  0.00574036  1
  H+  H125  1  0.22217890  0.11420056  0.50489489  1
  H+  H126  1  0.64157393  0.62176995  0.50177897  1
  H+  H127  1  0.36730804  0.89494217  0.14315601  1
  H+  H128  1  0.67551878  0.35608893  0.88859582  1
  H+  H129  1  0.42663106  0.32735285  0.56375567  1
  H+  H130  1  0.10797931  0.13336631  0.49120322  1
  H+  H131  1  0.13320132  0.60435722  0.83919672  1
  H+  H132  1  0.22665801  0.35827871  0.48985791  1
  H+  H133  1  0.53977666  0.78612674  0.77364137  1
  H+  H134  1  0.35350330  0.89703781  0.65680252  1
  H+  H135  1  0.70772858  0.34112873  0.65603619  1
  H+  H136  1  0.86080984  0.50599111  0.68554929  1
  H+  H137  1  0.22870342  0.65074276  0.66500548  1
  H+  H138  1  0.64342188  0.36809406  0.49882266  1
  H+  H139  1  0.72713134  0.37847525  0.98473001  1
  H+  H140  1  0.77743503  0.40064243  0.32053563  1
  H+  H141  1  0.13681641  0.02160515  0.64504780  1
  H+  H142  1  0.82700953  0.91551739  0.39991027  1
  H+  H143  1  0.14350153  0.64771525  0.17106807  1
  H+  H144  1  0.35910226  0.98482714  0.49477638  1
  H+  H145  1  0.47422162  0.84385622  0.83292277  1
  H+  H146  1  0.09949406  0.47420814  0.00232821  1
  H+  H147  1  0.13454714  0.76712219  0.31645153  1
  H+  H148  1  0.87193984  0.62627866  0.21725386  1
  H+  H149  1  0.01101226  0.64761406  0.14765785  1
  H+  H150  1  0.96563191  0.07218693  0.66899177  1
  H+  H151  1  0.48325845  0.36103445  0.50323369  1
  H+  H152  1  0.73058154  0.60011337  0.31664942  1
  H+  H153  1  0.08329691  0.07898029  0.69199274  1
  H+  H154  1  0.37379749  0.79616976  0.67045134  1
  H+  H155  1  0.03345425  0.88831698  0.15380345  1
  H+  H156  1  0.99079678  0.37487451  0.50250825  1
  H+  H157  1  0.28233979  0.65630086  0.15757999  1
  H+  H158  1  0.14632732  0.02144426  0.16612963  1
  H+  H159  1  0.13566826  0.52065250  0.48454893  1
  H+  H160  1  0.33740528  0.52134041  0.68499765  1
  H+  H161  1  0.01849304  0.43584669  0.67134958  1
  H+  H162  1  0.13134866  0.35993201  0.84286332  1
  H+  H163  1  0.15523782  0.27187951  1.00668658  1
  H+  H164  1  0.36021282  0.73011910  -0.00170954  1
  H+  H165  1  0.25439417  0.12731738  0.33725897  1
  H+  H166  1  0.36119067  0.89781771  0.48979010  1
  H+  H167  1  0.11420147  0.72504040  0.99521017  1
  H+  H168  1  0.13340528  0.27394937  0.49003423  1
  H+  H169  1  0.87511449  0.76555856  0.65829852  1
  H+  H170  1  0.89370486  0.78025497  0.16435805  1
  H+  H171  1  0.10130565  0.47000905  0.82504679  1
  H+  H172  1  0.35701342  0.71848378  0.48767066  1
  H+  H173  1  0.85402431  0.36711009  0.15457880  1
  H+  H174  1  0.47058911  0.86149124  0.34028435  1
  H+  H175  1  0.72144409  0.08459281  0.69143643  1
  H+  H176  1  0.61296792  0.39637907  -0.00047560  1
  H+  H177  1  0.37490102  0.60586764  0.47507537  1
  H+  H178  1  0.85389231  0.51665290  0.16810003  1
  H+  H179  1  0.38080550  0.85903370  0.33379840  1
  H+  H180  1  0.69077076  0.78868105  0.83070366  1
  H+  H181  1  0.58749680  0.66939837  0.09819239  1
  H+  H182  1  0.88045319  0.62080148  0.48100538  1
  H+  H183  1  0.17995991  0.32953050  0.26457475  1
  H+  H184  1  0.40008272  0.86928098  0.83328396  1
  H+  H185  1  0.38309841  0.01824513  0.31914430  1
  H+  H186  1  0.12837140  0.85782713  0.50048767  1
  H+  H187  1  0.37042682  0.22857445  0.67321062  1
  H+  H188  1  0.51828717  0.37889497  0.00984375  1
  H+  H189  1  0.85636372  0.88583673  0.33949208  1
  H+  H190  1  0.87272250  0.89688613  1.01580345  1
  H+  H191  1  0.76971707  0.88470203  0.50765764  1
  H+  H192  1  0.29267225  0.38350252  0.98642526  1
  H+  H193  1  0.77147102  0.64143091  0.48483785  1
  H+  H194  1  0.63405126  0.10848428  0.15395143  1
  H+  H195  1  0.82819690  0.42083738  0.06040343  1
  H+  H196  1  0.38239761  0.98152901  0.82357920  1
  H+  H197  1  0.10878772  0.97287616  0.49068251  1
  H+  H198  1  0.35493702  0.22441153  0.33401647  1
  H+  H199  1  0.89335661  0.53754181  0.31240887  1
  H+  H200  1  0.49435365  0.84473215  0.51475787  1
  H+  H201  1  0.14087262  0.11179634  0.87082658  1
  H+  H202  1  0.85458882  0.48371813  0.46734048  1
  H+  H203  1  0.35801382  -0.02078903  0.15029200  1
  H+  H204  1  0.10546448  0.22282406  0.84704700  1
  H+  H205  1  0.15623865  0.86711307  0.85582546  1
  H+  H206  1  0.88859617  0.78161483  1.00162475  1
  H+  H207  1  0.50736705  0.13660168  0.33997998  1
  H+  H208  1  0.12026145  0.88399763  0.15422834  1
  H+  H209  1  0.61757170  0.47104361  0.15059294  1
  H+  H210  1  0.85008668  0.24772355  0.65706864  1
  H+  H211  1  0.89333193  0.40947378  0.65105453  1
  H+  H212  1  0.15391299  0.35184101  0.32888911  1
  H+  H213  1  1.03271183  0.14855321  1.00629547  1
  H+  H214  1  0.34820540  0.41415812  0.90064160  1
  H+  H215  1  0.13013261  0.61471302  0.49097913  1
  H+  H216  1  0.85989827  0.84421642  0.65366767  1
  H+  H217  1  0.53551726  0.65550537  0.49463094  1
  H+  H218  1  0.10186908  0.88331484  0.64043739  1
  H+  H219  1  0.88294381  1.01671056  0.51252864  1
  H+  H220  1  0.22182277  0.71784007  0.20572452  1
  H+  H221  1  0.88341588  0.27582176  0.32755354  1
  H+  H222  1  0.63080210  0.89537170  0.49193187  1
  H+  H223  1  0.68733158  0.22840777  0.03863093  1
  H+  H224  1  0.70978275  0.44811573  0.27302565  1
  H+  H225  1  0.10301657  0.46062316  0.15590268  1
  H+  H226  1  0.10324707  0.73178751  0.14907218  1
  H+  H227  1  0.59889716  0.45693696  0.33782800  1
  H+  H228  1  0.22141800  0.11294972  0.66312347  1
  H+  H229  1  0.62248372  0.67784255  0.35325464  1
  H+  H230  1  0.39091555  0.25905591  0.85471732  1
  H+  H231  1  0.72815467  0.62251648  0.84313672  1
  H+  H232  1  0.47509196  0.35114533  0.86095427  1
  H+  H233  1  0.62222147  0.88692914  -0.01356631  1
  H+  H234  1  0.50913361  0.89627259  0.66990485  1
  H+  H235  1  0.62725173  0.35271779  0.15997103  1
  H+  H236  1  0.88347087  0.53168440  -0.00892068  1
  H+  H237  1  0.69745692  0.83990379  0.92888514  1
  H+  H238  1  0.60600143  0.20492918  0.67250851  1
  H+  H239  1  0.65278060  0.63558767  0.64938389  1
  H+  H240  1  0.21907915  0.86123407  0.50139881  1
  H+  H241  1  0.88418471  0.26433198  0.16654315  1
  H+  H242  1  0.63651662  0.58435113  0.30221178  1
  H+  H243  1  0.98012351  0.62587466  0.31515270  1
  H+  H244  1  0.27668317  0.13726736  0.83333366  1
  H+  H245  1  0.12993538  0.77145647  0.65729515  1
  H+  H246  1  0.61726848  -0.00454781  0.67793436  1
  H+  H247  1  0.61148078  0.41868209  0.68809033  1
  H+  H248  1  0.36570871  0.23047911  0.15312439  1
  H+  H249  1  0.97530288  0.12498346  0.87895599  1
  H+  H250  1  0.72565761  0.87776155  0.32536240  1
  H+  H251  1  0.86266348  0.64723500  0.83076531  1
  H+  H252  1  0.37141378  0.95498549  0.05732019  1
  H+  H253  1  0.72548284  0.11028593  0.98693505  1
  H+  H254  1  0.86477106  0.14188924  0.49957412  1
  H+  H255  1  0.25484447  0.88900901  0.65529170  1
  H+  H256  1  0.60526675  0.21487975  0.15765681  1
  H+  H257  1  0.61360781  0.40347080  0.82248784  1
  H+  H258  1  0.23240599  0.86225032  0.16176225  1
  H+  H259  1  0.77409451  0.13642188  0.83719043  1
  H+  H260  1  0.88999633  0.86733031  0.16724651  1
  H+  H261  1  0.61747262  0.48017893  0.48941012  1
  H+  H262  1  0.66369061  0.83933799  0.22750887  1
  H+  H263  1  0.12438872  0.52074081  0.32446431  1
  H+  H264  1  0.88007393  0.02291367  0.32452394  1
  H+  H265  1  0.63529485  0.53479983  0.84202746  1
  H+  H266  1  0.42237720  0.58956769  0.42278269  1
  H+  H267  1  0.10779061  0.96577802  0.33347536  1
  H+  H268  1  0.89741440  0.15199785  -0.02494750  1
  H+  H269  1  0.96876567  0.37049797  0.32066896  1
  H+  H270  1  -0.02487452  0.10602012  0.50965084  1
  H+  H271  1  0.62038108  -0.02894986  0.13247412  1
  H+  H272  1  0.47215618  0.11589772  0.50573429  1
  H+  H273  1  0.37273041  0.38115892  0.48703805  1
  H+  H274  1  0.25366896  0.59210683  0.81703721  1
  H+  H275  1  0.40889083  0.87895432  0.98340477  1
  H+  H276  1  0.87836001  0.35806296  0.83100841  1
  H+  H277  1  0.17122025  0.59927033  0.27140429  1
  H+  H278  1  0.15381167  0.77898963  0.83916283  1
  H+  H279  1  0.09283553  0.40647571  0.66495914  1
  H+  H280  1  1.01540179  0.12735235  0.33277357  1
  H+  H281  1  0.14943231  0.02781497  0.87528697  1
  H+  H282  1  0.63114985  0.14511248  1.00219486  1
  H+  H283  1  0.38962204  0.36395160  0.17150838  1
  H+  H284  1  0.09179503  0.41093432  0.30408612  1
  H+  H285  1  0.46614284  0.33707741  0.32576506  1
  H+  H286  1  0.11246233  0.30462040  0.63298498  1
  H+  H287  1  0.39292865  0.35205021  0.64021863  1
  H+  H288  1  0.01072180  0.38009508  0.82347396  1
  H+  H289  1  0.94370149  0.40239856  0.59220995  1
  H+  H290  1  0.69569974  0.80745690  0.60973123  1
  H+  H291  1  0.16079869  0.57153850  0.89809142  1
  H+  H292  1  0.41197731  0.08726137  0.56560653  1
  H+  H293  1  0.32159654  0.66878132  0.42110464  1
  H+  H294  1  0.66403072  0.10366061  0.29376136  1
  H+  H295  1  0.07653138  0.66418355  0.05342756  1
  H+  H296  1  0.67070159  0.58880623  0.55905079  1
  H+  H297  1  0.22842234  0.62020563  0.48871455  1
  H+  H298  1  0.90646557  0.34049461  0.92977491  1
  H+  H299  1  0.97499026  0.61870741  0.98793893  1
  H+  H300  1  0.41432257  0.29441425  0.95387070  1
  H+  H301  1  0.02150732  0.63628885  0.48115818  1
  H+  H302  1  0.83692394  0.17510739  0.05454595  1
  H+  H303  1  0.18770538  0.83001890  0.93458530  1
  H+  H304  1  0.66359030  0.06197586  0.20176542  1
  H+  H305  1  0.66279515  0.59102197  0.93620827  1
  H+  H306  1  0.42204552  0.58718454  0.22723972  1
  H+  H307  1  0.09603715  0.93797936  0.74402695  1
  H+  H308  1  0.06297557  0.14517174  0.79935122  1
  H+  H309  1  0.90847840  0.82691005  0.56014446  1
  H+  H310  1  0.86384531  0.14156631  0.85313721  1
  H+  H311  1  0.83077591  0.67522585  0.77198263  1
  H+  H312  1  0.16674638  0.33192020  0.95183137  1
  H+  H313  1  0.34406954  0.41628116  0.39849521  1
  H+  H314  1  0.62333261  0.69390552  0.76195700  1
  H+  H315  1  0.61128596  0.32274581  0.63842668  1
  H+  H316  1  0.91281323  0.83609082  0.26220373  1
  H+  H317  1  0.61877160  0.15495244  0.83213934  1
  H+  H318  1  0.07201003  0.15388665  0.43074800  1
  H+  H319  1  0.90521048  0.46985915  0.78785668  1
  H+  H320  1  0.62681967  0.74443671  0.51172484  1
  H+  H321  1  0.57897380  0.16441632  0.73975336  1
  H+  H322  1  0.58492770  0.41406904  0.43263997  1
  H+  H323  1  0.91985748  0.07628056  0.59489173  1
  H+  H324  1  0.18333475  0.61267727  0.60105462  1
  H+  H325  1  0.90910577  0.08192392  0.26425913  1
  H+  H326  1  0.45876549  0.76168245  0.55463009  1
  H+  H327  1  0.32108508  0.91641102  0.39478838  1
  H+  H328  1  0.36020331  0.40157188  0.82850068  1
  H+  H329  1  0.91311362  0.59103112  0.90201463  1
  H+  H330  1  0.09074492  0.43238032  0.41162751  1
  H+  H331  1  0.82570992  0.66680323  0.38899086  1
  H+  H332  1  0.37526040  0.47777890  -0.01647359  1
  H+  H333  1  0.66280681  0.08642335  0.90165561  1
  H+  H334  1  0.31769419  0.16323131  0.40155027  1
  H+  H335  1  0.08340833  0.66939956  0.38971842  1
  H+  H336  1  0.13259629  0.61117544  0.98704339  1
  H+  H337  1  0.42903015  0.60381973  0.93323305  1
  H+  H338  1  0.28414354  0.38909809  0.33326041  1
  H+  H339  1  0.91826021  0.53581160  0.63033995  1
  H+  H340  1  0.97439148  0.10952414  0.17186591  1
  H+  H341  1  0.58535283  0.91605774  0.43740355  1
  H+  H342  1  0.35310947  0.99246616  0.66030811  1
  H+  H343  1  0.58258791  0.16233935  0.09633719  1
  H+  H344  1  0.67687794  0.33036576  0.55201930  1
  H+  H345  1  0.08339060  0.66766982  0.77153637  1
  H+  H346  1  0.41132531  0.83232642  0.60287195  1
  H+  H347  1  0.84180239  0.17332318  0.40487978  1
  H+  H348  1  0.48965354  0.59761033  0.59235842  1
  H+  H349  1  0.58896454  0.69778879  0.41313428  1
  H+  H350  1  0.13590558  0.36079806  0.57398656  1
  H+  H351  1  0.67866574  0.57474080  0.21550529  1
  H+  H352  1  0.38291394  0.11821210  0.66619160  1
  H+  H353  1  0.41263817  0.07868929  0.26112736  1
  H+  H354  1  0.90269537  0.58176107  0.53728233  1
  H+  H355  1  0.63701113  0.11872875  0.49714665  1
  H+  H356  1  0.10390044  0.96341340  0.77274482  1
  H+  H357  1  0.11062863  0.12775727  0.00897233  1
  H+  H358  1  0.77940658  0.14784706  0.49397894  1
  H+  H359  1  0.33577992  0.16926041  0.73453248  1
  H+  H360  1  0.06728196  0.42207057  0.73995807  1
  H+  H361  1  0.47281035  0.62727298  0.58474380  1
  H+  H362  1  0.56236433  0.16394478  0.43180980  1
  H+  H363  1  0.29592845  0.89410135  0.82095252  1
  H+  H364  1  0.38145072  0.62099677  0.33205719  1
  H+  H365  1  0.83849424  0.91967098  0.10188862  1
  H+  H366  1  0.82754038  0.11910223  0.75327369  1
  H+  H367  1  0.33139640  0.67184751  0.05817034  1
  H+  H368  1  0.56928582  0.89189107  0.72387110  1
  H+  H369  1  0.41404772  0.45035205  0.72872980  1
  H+  H370  1  0.06902139  0.40699254  0.05706763  1
  H+  H371  1  0.90364446  0.28963749  0.51586358  1
  H+  H372  1  0.09635844  0.91622339  0.05614808  1
  H+  H373  1  0.56431054  0.43103277  0.77485271  1
  H+  H374  1  0.01594247  0.63715552  0.68325422  1
  H+  H375  1  0.58901952  0.90512877  0.07827116  1
  H+  H376  1  0.81968397  0.40147392  0.74812383  1
  H+  H377  1  0.92142721  0.84292351  0.90763363  1
  H+  H378  1  0.38024473  0.20230762  0.05558677  1
  H+  H379  1  0.22680794  0.36049490  0.17102665  1
  H+  H380  1  0.16725236  0.07562749  0.25984076  1
  H+  H381  1  0.57998238  0.41053964  0.09303305  1
  H+  H382  1  0.37010198  0.49134989  0.34090338  1
  H+  H383  1  0.88020984  0.26936191  0.83917907  1
  O2-  O384  1  0.07936847  0.15454413  0.14766964  1
  O2-  O385  1  0.07473621  0.16087643  0.47582997  1
  O2-  O386  1  0.06999510  0.15856109  0.84284392  1
  O2-  O387  1  0.07620750  0.40013999  0.14502089  1
  O2-  O388  1  0.09916947  0.43620316  0.45767112  1
  O2-  O389  1  0.07025254  0.41113737  0.80538412  1
  O2-  O390  1  0.07036949  0.67042339  0.13457963  1
  O2-  O391  1  0.08395598  0.66448501  0.47142633  1
  O2-  O392  1  0.08636278  0.66518142  0.81665983  1
  O2-  O393  1  0.09348036  0.91726501  0.13869528  1
  O2-  O394  1  0.07865978  0.91234420  0.47602899  1
  O2-  O395  1  0.10099134  0.91515377  0.88014969  1
  O2-  O396  1  0.33988725  0.17373097  0.13225197  1
  O2-  O397  1  0.32790200  0.16631094  0.47481233  1
  O2-  O398  1  0.33459002  0.16352039  0.81353563  1
  O2-  O399  1  0.33277639  0.41739084  0.14061777  1
  O2-  O400  1  0.34124050  0.40776840  0.46639962  1
  O2-  O401  1  0.33608098  0.42559517  0.85774654  1
  O2-  O402  1  0.33760555  0.67316585  0.13691191  1
  O2-  O403  1  0.31738251  0.66238163  0.46844079  1
  O2-  O404  1  0.30346607  0.60679923  0.78974531  1
  O2-  O405  1  0.33175897  0.92162224  0.12971440  1
  O2-  O406  1  0.32631457  0.92345501  0.47932073  1
  O2-  O407  1  0.35591539  0.92351542  0.80522324  1
  O2-  O408  1  0.57774501  0.15474706  0.14134432  1
  O2-  O409  1  0.56811033  0.16218679  0.47836733  1
  O2-  O410  1  0.58634994  0.18194604  0.81544084  1
  O2-  O411  1  0.58180485  0.40924732  0.13910777  1
  O2-  O412  1  0.58900391  0.41807382  0.47803697  1
  O2-  O413  1  0.57716720  0.43053767  0.81857260  1
  O2-  O414  1  0.58798085  0.66314625  0.14378275  1
  O2-  O415  1  0.59678470  0.68893827  0.48401751  1
  O2-  O416  1  0.61101209  0.69093384  0.80590823  1
  O2-  O417  1  0.59046296  0.90868481  0.12399507  1
  O2-  O418  1  0.58794583  0.91260087  0.48366281  1
  O2-  O419  1  0.56250679  0.84621091  0.78600877  1
  O2-  O420  1  0.84175509  0.16883236  0.13317519  1
  O2-  O421  1  0.84206941  0.17696437  0.48193693  1
  O2-  O422  1  0.83526147  0.16260968  0.82412171  1
  O2-  O423  1  0.82273794  0.39875523  0.14178626  1
  O2-  O424  1  0.82437524  0.42253847  0.45276897  1
  O2-  O425  1  0.84574626  0.42601027  0.79589922  1
  O2-  O426  1  0.85923016  0.61840393  0.17358605  1
  O2-  O427  1  0.83084236  0.67114597  0.46669793  1
  O2-  O428  1  0.83036454  0.67600979  0.81705590  1
  O2-  O429  1  0.83950254  0.91786007  0.14916967  1
  O2-  O430  1  0.82580303  0.91701835  0.48490542  1
  O2-  O431  1  0.72774895  0.90865852  0.81316442  1
  O2-  O432  1  0.17436983  0.08111117  0.18317619  1
  O2-  O433  1  0.16126595  0.08357718  0.51897199  1
  O2-  O434  1  0.18291554  0.09191940  0.87341349  1
  O2-  O435  1  0.16954803  0.32935016  0.19130628  1
  O2-  O436  1  0.16515074  0.33716985  0.49810402  1
  O2-  O437  1  0.15803438  0.32949153  0.86206973  1
  O2-  O438  1  0.19461993  0.65697725  0.19514914  1
  O2-  O439  1  0.16391547  0.58440982  0.50336219  1
  O2-  O440  1  0.15743950  0.56761238  0.85226243  1
  O2-  O441  1  0.17220638  0.82816918  0.17845135  1
  O2-  O442  1  0.15794295  0.82578281  0.51449996  1
  O2-  O443  1  0.19198660  0.83860124  0.85312701  1
  O2-  O444  1  0.40784238  0.07955312  0.17943659  1
  O2-  O445  1  0.40992771  0.08466969  0.52054363  1
  O2-  O446  1  0.42025971  0.08441969  0.86207651  1
  O2-  O447  1  0.41831785  0.33268087  0.18667933  1
  O2-  O448  1  0.42237089  0.33053555  0.51790439  1
  O2-  O449  1  0.42068052  0.31080684  0.88111661  1
  O2-  O450  1  0.42086720  0.58508831  0.18261352  1
  O2-  O451  1  0.41242216  0.58091403  0.46666240  1
  O2-  O452  1  0.42861729  0.59706422  0.85195433  1
  O2-  O453  1  0.42169565  0.84883692  0.16359369  1
  O2-  O454  1  0.44031418  0.79919015  0.53605553  1
  O2-  O455  1  0.41909338  0.82997861  0.85148224  1
  O2-  O456  1  0.66948632  0.07901492  0.15930704  1
  O2-  O457  1  0.67512105  0.09678693  0.51082697  1
  O2-  O458  1  0.66549652  0.09398460  0.85535281  1
  O2-  O459  1  0.65514105  0.32053751  0.17763050  1
  O2-  O460  1  0.67662907  0.33778214  0.50715080  1
  O2-  O461  1  0.67402528  0.35454962  0.84287562  1
  O2-  O462  1  0.68295419  0.57968751  0.17071725  1
  O2-  O463  1  0.66981469  0.58811098  0.51332877  1
  O2-  O464  1  0.66681311  0.59556872  0.85704865  1
  O2-  O465  1  0.66744442  0.83140251  0.18319924  1
  O2-  O466  1  0.67745006  0.82346232  0.54906031  1
  O2-  O467  1  0.73586768  0.84539952  0.84835175  1
  O2-  O468  1  0.91305273  0.08299514  0.18557698  1
  O2-  O469  1  0.91702056  0.07703879  0.52970847  1
  O2-  O470  1  0.91821476  0.10775350  0.89870027  1
  O2-  O471  1  0.91070185  0.32510385  0.18209224  1
  O2-  O472  1  0.93895913  0.35056004  0.52791479  1
  O2-  O473  1  0.90985414  0.33179799  0.85055238  1
  O2-  O474  1  0.86569694  0.47148727  0.18408659  1
  O2-  O475  1  0.90907909  0.58585483  0.49318168  1
  O2-  O476  1  0.91434161  0.59271999  0.85556819  1
  O2-  O477  1  0.92233468  0.83762258  0.18226591  1
  O2-  O478  1  0.91086094  0.82980651  0.51479799  1
  O2-  O479  1  0.93624128  0.84725118  0.86350400  1
  O2-  O480  1  0.16340616  0.07313764  0.30586730  1
  O2-  O481  1  0.16224461  0.08608845  0.64614842  1
  O2-  O482  1  0.14792487  0.07383545  0.97965756  1
  O2-  O483  1  0.18709278  0.32784142  0.31075669  1
  O2-  O484  1  0.11279662  0.35490969  0.61564014  1
  O2-  O485  1  0.18726478  0.33288118  0.99345212  1
  O2-  O486  1  0.16647912  0.58977553  0.31576973  1
  O2-  O487  1  0.17302481  0.61447286  0.64445123  1
  O2-  O488  1  0.16185116  0.57880638  0.97381923  1
  O2-  O489  1  0.16462691  0.82832027  0.30172407  1
  O2-  O490  1  0.16215666  0.82922123  0.63700530  1
  O2-  O491  1  0.17525877  0.82173463  0.97892044  1
  O2-  O492  1  0.41511225  0.07898714  0.30612439  1
  O2-  O493  1  0.40900723  0.08293567  0.64921766  1
  O2-  O494  1  0.39117365  0.03649785  0.98943154  1
  O2-  O495  1  0.40672482  0.30559104  0.30921400  1
  O2-  O496  1  0.43056590  0.32763520  0.64263499  1
  O2-  O497  1  0.41815097  0.29765847  1.00033403  1
  O2-  O498  1  0.41469585  0.58962861  0.32446145  1
  O2-  O499  1  0.48254841  0.70066794  0.70719087  1
  O2-  O500  1  0.42582433  0.59811631  0.97826099  1
  O2-  O501  1  0.41072287  0.82587062  0.32593185  1
  O2-  O502  1  0.40667163  0.84981587  0.64516586  1
  O2-  O503  1  0.42406304  0.83576300  0.97012040  1
  O2-  O504  1  0.66667561  0.09464167  0.33705278  1
  O2-  O505  1  0.66426141  0.06902484  0.67230220  1
  O2-  O506  1  0.66416555  0.08012545  0.97277968  1
  O2-  O507  1  0.69171422  0.38977900  0.28662514  1
  O2-  O508  1  0.65326028  0.30475155  0.63068373  1
  O2-  O509  1  0.66856347  0.35007137  0.96537197  1
  O2-  O510  1  0.67255966  0.55864710  0.29722754  1
  O2-  O511  1  0.67069302  0.59367739  0.63665046  1
  O2-  O512  1  0.66157773  0.59056880  0.98158676  1
  O2-  O513  1  0.66534344  0.85328700  0.30997432  1
  O2-  O514  1  0.70760973  0.80250210  0.65783542  1
  O2-  O515  1  0.68147833  0.84101676  0.97175491  1
  O2-  O516  1  0.91101699  0.08363394  0.30997473  1
  O2-  O517  1  0.91746206  0.07201464  0.64330008  1
  O2-  O518  1  0.94855261  0.15100708  0.95757839  1
  O2-  O519  1  0.90639484  0.33291532  0.30725195  1
  O2-  O520  1  0.95066229  0.43696626  0.63015249  1
  O2-  O521  1  0.90287476  0.34124971  0.97499524  1
  O2-  O522  1  0.91855271  0.59883719  0.30215994  1
  O2-  O523  1  0.89854699  0.55904231  0.66296281  1
  O2-  O524  1  0.91325659  0.59111971  0.97439138  1
  O2-  O525  1  0.90977999  0.83475773  0.30764646  1
  O2-  O526  1  0.89838352  0.82418877  0.63965414  1
  O2-  O527  1  0.91960492  0.84294878  0.98700333  1
  O2-  O528  1  0.08605862  0.16327384  0.02832173  1
  O2-  O529  1  0.07555603  0.15068699  0.34887170  1
  O2-  O530  1  0.03038765  0.07040644  0.71449746  1
  O2-  O531  1  0.05915356  0.41358051  0.01399178  1
  O2-  O532  1  0.07263325  0.43310595  0.33725430  1
  O2-  O533  1  0.07033177  0.43619038  0.69276086  1
  O2-  O534  1  0.07781126  0.66204449  0.00842999  1
  O2-  O535  1  0.08198443  0.66760902  0.34465111  1
  O2-  O536  1  0.07788813  0.67296389  0.69166622  1
  O2-  O537  1  0.09420285  0.91769617  0.01109245  1
  O2-  O538  1  0.07714063  0.90641452  0.35057593  1
  O2-  O539  1  0.07673267  0.92023135  0.63249545  1
  O2-  O540  1  0.41598827  0.21778142  0.01791778  1
  O2-  O541  1  0.31475849  0.16265447  0.35532668  1
  O2-  O542  1  0.33554684  0.16739474  0.68885072  1
  O2-  O543  1  0.35630253  0.41640664  -0.02192586  1
  O2-  O544  1  0.34385627  0.42728973  0.35171013  1
  O2-  O545  1  0.40587745  0.40267825  0.75435946  1
  O2-  O546  1  0.32881834  0.66932039  0.01288443  1
  O2-  O547  1  0.32738828  0.66700315  0.35332897  1
  O2-  O548  1  0.31289248  0.72080996  0.71871666  1
  O2-  O549  1  0.40933105  0.97433912  0.01985432  1
  O2-  O550  1  0.32511788  0.91084473  0.35045121  1
  O2-  O551  1  0.31865219  0.92526322  0.66848633  1
  O2-  O552  1  0.62884451  0.19375455  0.02331297  1
  O2-  O553  1  0.56408951  0.17331807  0.36145593  1
  O2-  O554  1  0.57660977  0.14961111  0.69520076  1
  O2-  O555  1  0.58041226  0.42124785  0.01915009  1
  O2-  O556  1  0.57141245  0.39862950  0.35561133  1
  O2-  O557  1  0.57045875  0.43877423  0.68759724  1
  O2-  O558  1  0.58874698  0.68042148  0.02131850  1
  O2-  O559  1  0.58120307  0.69432599  0.36671169  1
  O2-  O560  1  0.63839262  0.71707101  0.67749699  1
  O2-  O561  1  0.59027318  0.91546599  0.00238002  1
  O2-  O562  1  0.58139861  0.92370965  0.36550783  1
  O2-  O563  1  0.56992973  0.91618738  0.68170729  1
  O2-  O564  1  0.82841213  0.17674709  0.00976114  1
  O2-  O565  1  0.83471815  0.17126244  0.35932186  1
  O2-  O566  1  0.80823302  0.08386742  0.71494267  1
  O2-  O567  1  0.82651381  0.42407173  0.01557774  1
  O2-  O568  1  0.83353441  0.42015513  0.34264519  1
  O2-  O569  1  0.79763528  0.37642742  0.69107610  1
  O2-  O570  1  0.83339934  0.67864567  0.02338944  1
  O2-  O571  1  0.82486812  0.66411585  0.34346177  1
  O2-  O572  1  0.82869310  0.66682716  0.68894608  1
  O2-  O573  1  0.84182937  0.92530967  0.03339086  1
  O2-  O574  1  0.82723664  0.91724545  0.35469301  1
  O2-  O575  1  0.78121369  0.93161677  0.74868133  1
