# generated using pymatgen
data_H2O
_symmetry_space_group_name_H-M   'P 1'
_cell_length_a   17.98254130
_cell_length_b   17.99121177
_cell_length_c   21.98991282
_cell_angle_alpha   90.01947083
_cell_angle_beta   89.98696235
_cell_angle_gamma   119.99065750
_symmetry_Int_Tables_number   1
_chemical_formula_structural   H2O
_chemical_formula_sum   'H384 O192'
_cell_volume   6161.78403037
_cell_formula_units_Z   192
loop_
 _symmetry_equiv_pos_site_id
 _symmetry_equiv_pos_as_xyz
  1  'x, y, z'
loop_
 _atom_type_symbol
 _atom_type_oxidation_number
  H+  1.0
  O2-  -2.0
loop_
 _atom_site_type_symbol
 _atom_site_label
 _atom_site_symmetry_multiplicity
 _atom_site_fract_x
 _atom_site_fract_y
 _atom_site_fract_z
 _atom_site_occupancy
  H+  H0  1  0.61387922  0.46576905  0.48186908  1
  H+  H1  1  0.64066122  0.78720899  0.47240184  1
  H+  H2  1  0.99555678  0.13936132  0.15521580  1
  H+  H3  1  0.11533272  0.13252326  0.82823597  1
  H+  H4  1  0.89792602  0.28361853  0.16940794  1
  H+  H5  1  0.27096144  -0.00803089  0.71524315  1
  H+  H6  1  0.86352993  0.72127518  0.82839821  1
  H+  H7  1  0.31331258  0.64144697  0.15776997  1
  H+  H8  1  0.98304947  0.85536217  0.49923888  1
  H+  H9  1  0.62293494  0.72481544  0.82756447  1
  H+  H10  1  0.22777279  0.61722613  0.66043267  1
  H+  H11  1  0.89290020  0.76518118  0.49727446  1
  H+  H12  1  0.59451304  0.11289771  0.33994254  1
  H+  H13  1  1.02995517  0.38515299  0.67249383  1
  H+  H14  1  0.48853692  0.86882809  -0.01066241  1
  H+  H15  1  0.36867057  0.32448173  -0.00003293  1
  H+  H16  1  0.87655235  0.81977458  0.99658706  1
  H+  H17  1  0.23491302  0.36557659  0.33979953  1
  H+  H18  1  0.89095954  0.85915888  0.17004411  1
  H+  H19  1  0.61324428  0.97971291  0.15528251  1
  H+  H20  1  0.76450772  0.87127123  0.16085682  1
  H+  H21  1  0.37940193  0.78844424  0.16916496  1
  H+  H22  1  0.38302781  0.33373230  0.66279626  1
  H+  H23  1  0.61230285  0.87876161  0.67174527  1
  H+  H24  1  1.01416797  0.66534034  0.56675684  1
  H+  H25  1  0.64780474  0.48368751  0.68064771  1
  H+  H26  1  0.13395415  0.36480447  0.98545115  1
  H+  H27  1  0.36140105  0.89811620  0.15541511  1
  H+  H28  1  0.23948328  0.61660824  0.83157362  1
  H+  H29  1  0.61295615  0.72112354  0.15899183  1
  H+  H30  1  0.02454205  0.39723118  0.33659323  1
  H+  H31  1  0.45699521  0.33564034  0.33328676  1
  H+  H32  1  0.12489449  0.61708097  0.99474103  1
  H+  H33  1  0.11677627  0.90414320  0.15551581  1
  H+  H34  1  0.87622330  0.87138050  0.49414468  1
  H+  H35  1  0.17565915  0.84387144  0.56897724  1
  H+  H36  1  0.13619420  0.36510990  0.50753658  1
  H+  H37  1  0.62070746  0.63299056  0.83275967  1
  H+  H38  1  0.63205701  0.86083285  0.17090067  1
  H+  H39  1  0.08177126  0.91605025  0.09261577  1
  H+  H40  1  0.62405352  0.27055981  -0.00532253  1
  H+  H41  1  0.48721883  0.61891895  0.83680936  1
  H+  H42  1  0.78662118  0.65247895  0.33528929  1
  H+  H43  1  0.36604764  0.47054085  0.33581645  1
  H+  H44  1  0.11618147  0.64090461  0.67562469  1
  H+  H45  1  0.02492359  0.38029345  0.82336774  1
  H+  H46  1  0.52365387  0.89164028  0.15727435  1
  H+  H47  1  0.47837094  0.36536989  0.84190237  1
  H+  H48  1  0.72821243  0.35423096  0.50108438  1
  H+  H49  1  0.38641521  0.86290998  0.83759775  1
  H+  H50  1  0.09071459  0.91766151  0.43239892  1
  H+  H51  1  0.85601185  0.18690376  0.08851205  1
  H+  H52  1  0.57879725  0.64419758  0.74131769  1
  H+  H53  1  0.13728713  0.87887111  0.84915136  1
  H+  H54  1  0.72605318  0.84684440  -0.00391324  1
  H+  H55  1  0.58779779  0.42391840  0.32100778  1
  H+  H56  1  0.17482945  0.58931419  0.56559594  1
  H+  H57  1  0.11711132  0.22215987  0.82627771  1
  H+  H58  1  0.11744590  0.52585982  0.16622221  1
  H+  H59  1  0.93655542  0.20216025  0.12751883  1
  H+  H60  1  0.97215200  0.12687929  0.98760749  1
  H+  H61  1  0.62401066  0.85799113  0.32687586  1
  H+  H62  1  0.21514533  0.86903810  0.66522565  1
  H+  H63  1  0.26595318  0.12748720  0.49656606  1
  H+  H64  1  0.84692232  0.60009286  0.00419282  1
  H+  H65  1  0.11365713  0.72920608  0.67428809  1
  H+  H66  1  0.36882939  0.47871130  0.82459250  1
  H+  H67  1  0.14283221  0.35831660  0.83471675  1
  H+  H68  1  0.77554131  0.88686825  0.83330740  1
  H+  H69  1  0.98554942  0.36811911  0.97847295  1
  H+  H70  1  0.36596672  0.22808855  0.82789552  1
  H+  H71  1  0.14042141  0.27701233  0.51041035  1
  H+  H72  1  0.88657778  0.61129055  0.30889801  1
  H+  H73  1  0.38307726  0.55231466  0.98561459  1
  H+  H74  1  0.72812806  0.34714258  0.33706520  1
  H+  H75  1  0.89316304  0.28414673  0.32514236  1
  H+  H76  1  -0.01103888  0.12249550  0.49373863  1
  H+  H77  1  0.00444815  0.70130564  0.56519873  1
  H+  H78  1  0.82700870  0.91964588  0.41221063  1
  H+  H79  1  0.38773111  0.01891081  0.99025273  1
  H+  H80  1  0.13541122  0.01418291  0.32702495  1
  H+  H81  1  0.51525340  0.13184649  0.00190184  1
  H+  H82  1  0.35824927  0.23838085  0.33734261  1
  H+  H83  1  0.72866143  0.61660300  0.17007487  1
  H+  H84  1  0.87524996  0.02943299  0.33838153  1
  H+  H85  1  0.86545170  0.13624787  0.80899275  1
  H+  H86  1  0.15143086  0.58474464  0.79873852  1
  H+  H87  1  0.88622412  0.27612826  0.98172201  1
  H+  H88  1  0.87582291  0.96193704  0.50149443  1
  H+  H89  1  0.72648878  0.10840845  0.66062095  1
  H+  H90  1  0.48152731  0.11324837  0.16523843  1
  H+  H91  1  0.89440359  0.27158339  0.66277794  1
  H+  H92  1  0.47703873  0.63108193  0.99389807  1
  H+  H93  1  0.08202516  0.71527406  0.01790359  1
  H+  H94  1  0.63679849  0.12373761  0.16285614  1
  H+  H95  1  1.00866267  0.82988405  0.99292158  1
  H+  H96  1  0.47919984  0.34464013  0.50859046  1
  H+  H97  1  0.39135779  0.86893344  0.50142575  1
  H+  H98  1  0.88718139  0.85904690  0.84104242  1
  H+  H99  1  0.39391947  0.78500327  0.99203219  1
  H+  H100  1  0.62263584  0.88879567  1.00569252  1
  H+  H101  1  0.61470993  0.47224398  0.83839849  1
  H+  H102  1  0.01368051  0.39140995  0.15467526  1
  H+  H103  1  0.36366799  0.63805819  0.33477815  1
  H+  H104  1  0.12575309  1.04665653  0.16576524  1
  H+  H105  1  0.02808383  0.89368264  0.82943725  1
  H+  H106  1  0.36708078  0.73579132  0.48692506  1
  H+  H107  1  0.64359606  0.39345350  0.68302768  1
  H+  H108  1  0.63680022  0.01693490  0.66185849  1
  H+  H109  1  0.88413406  0.35657434  0.83245959  1
  H+  H110  1  0.17768049  0.34705623  0.59642688  1
  H+  H111  1  0.26173716  0.12425856  0.33518663  1
  H+  H112  1  0.32729582  0.16596039  0.11657431  1
  H+  H113  1  0.38255114  1.02890128  0.32184973  1
  H+  H114  1  0.13276402  0.02588522  0.50305417  1
  H+  H115  1  0.47673258  0.85550622  0.65785403  1
  H+  H116  1  0.63192891  0.76334418  0.99680784  1
  H+  H117  1  0.89431485  0.28282858  0.50942498  1
  H+  H118  1  0.39049451  0.17424501  0.67280490  1
  H+  H119  1  0.07292294  0.41986359  0.05512186  1
  H+  H120  1  0.86647790  0.14695146  0.49091774  1
  H+  H121  1  0.38270516  0.77600304  0.32258819  1
  H+  H122  1  0.60970878  0.48376070  0.00387647  1
  H+  H123  1  0.58018242  0.15593642  0.43594971  1
  H+  H124  1  0.36304818  0.98651915  0.15128489  1
  H+  H125  1  0.64603522  1.03045596  -0.01060592  1
  H+  H126  1  0.88565198  0.86131793  0.67429666  1
  H+  H127  1  0.22468922  0.88373646  0.16563456  1
  H+  H128  1  0.87266834  0.47158863  0.15158237  1
  H+  H129  1  0.90046052  0.86662418  0.31462359  1
  H+  H130  1  0.38802137  1.11611277  0.83559026  1
  H+  H131  1  0.13322629  0.10275523  0.32944566  1
  H+  H132  1  0.36386430  0.73084946  0.66831384  1
  H+  H133  1  0.36128720  0.48366457  0.67049387  1
  H+  H134  1  0.72492815  0.35876405  0.16477996  1
  H+  H135  1  0.61483989  0.22396031  0.82838191  1
  H+  H136  1  0.52456492  0.88546647  0.82601667  1
  H+  H137  1  0.97257138  0.60901621  0.83876908  1
  H+  H138  1  0.76016322  0.37209497  0.01134626  1
  H+  H139  1  0.48845130  0.11849467  0.65920309  1
  H+  H140  1  0.61512506  0.21080239  0.34394429  1
  H+  H141  1  0.35726024  0.65357160  0.00667635  1
  H+  H142  1  0.86837944  0.47199328  0.68113363  1
  H+  H143  1  0.13716087  0.64918660  0.49318864  1
  H+  H144  1  0.47074355  0.86532123  0.32422348  1
  H+  H145  1  0.41479440  0.33243760  0.89943681  1
  H+  H146  1  0.23404513  0.88027186  0.32219711  1
  H+  H147  1  0.15559557  0.07983955  0.56617716  1
  H+  H148  1  0.36358443  0.97948621  0.83144515  1
  H+  H149  1  0.63130017  0.76373005  0.66446166  1
  H+  H150  1  0.63229635  0.33092375  0.33104975  1
  H+  H151  1  0.36311592  0.89416086  0.33638531  1
  H+  H152  1  0.97657193  0.61000719  0.66762343  1
  H+  H153  1  0.63701066  0.85989776  0.84115685  1
  H+  H154  1  0.63061534  0.60188789  0.50428859  1
  H+  H155  1  0.53551856  0.56027650  0.70255871  1
  H+  H156  1  0.11810012  0.66418179  0.83250088  1
  H+  H157  1  0.37365946  -0.01634144  0.49158064  1
  H+  H158  1  0.38916406  0.62683015  0.50128974  1
  H+  H159  1  0.82784021  0.17294416  0.61986935  1
  H+  H160  1  0.88581337  0.26704286  0.82586206  1
  H+  H161  1  0.75665282  0.94009543  0.39708914  1
  H+  H162  1  0.12263440  0.01618162  0.65320044  1
  H+  H163  1  0.38067746  0.62048896  0.65925830  1
  H+  H164  1  0.13898991  0.53382045  0.32341261  1
  H+  H165  1  0.12441015  0.89117372  0.33689482  1
  H+  H166  1  0.63687382  0.26741365  0.50378066  1
  H+  H167  1  0.91357542  0.07471138  0.44815775  1
  H+  H168  1  0.10508648  0.39678776  0.14973729  1
  H+  H169  1  0.35740786  0.13102343  0.33384902  1
  H+  H170  1  0.86224959  0.15528386  -0.00549963  1
  H+  H171  1  0.47465349  0.60986583  0.32997214  1
  H+  H172  1  0.40263054  0.37203733  0.17207408  1
  H+  H173  1  0.77213685  0.15336457  -0.00127176  1
  H+  H174  1  0.60541429  0.63134094  -0.00042416  1
  H+  H175  1  0.84427226  0.62006755  0.49368971  1
  H+  H176  1  0.77287871  0.37924903  0.83146718  1
  H+  H177  1  0.65886871  0.55476775  0.34334762  1
  H+  H178  1  0.60637500  0.70349900  0.53814741  1
  H+  H179  1  0.39317426  0.46120655  0.00042220  1
  H+  H180  1  0.12406295  0.89476942  0.49365735  1
  H+  H181  1  0.89094113  0.12439435  0.33265154  1
  H+  H182  1  0.15400553  0.32608313  0.38134729  1
  H+  H183  1  0.12059397  0.48270763  0.49362547  1
  H+  H184  1  0.61431738  -0.02612782  0.82546960  1
  H+  H185  1  0.63834202  0.11275235  0.83515686  1
  H+  H186  1  0.71285122  0.85861632  0.32822890  1
  H+  H187  1  0.13452513  0.66034090  0.33246750  1
  H+  H188  1  0.41068600  0.61652608  0.17178756  1
  H+  H189  1  0.26645457  0.65114860  0.00245583  1
  H+  H190  1  0.86172473  0.72184835  0.15367733  1
  H+  H191  1  0.42337212  0.08606291  0.56595803  1
  H+  H192  1  0.62991561  0.36332516  -0.00677383  1
  H+  H193  1  0.39036013  0.25824959  0.51112840  1
  H+  H194  1  0.78340022  0.14482848  0.33779040  1
  H+  H195  1  0.73464873  0.86513045  0.48416990  1
  H+  H196  1  0.37239584  0.64186174  0.82327149  1
  H+  H197  1  0.61924791  0.63404606  0.16011155  1
  H+  H198  1  0.14580772  0.37784158  0.65960374  1
  H+  H199  1  0.72784144  0.03316181  0.27740121  1
  H+  H200  1  0.87962958  0.73329773  0.33473434  1
  H+  H201  1  0.64284499  0.63140180  0.33223972  1
  H+  H202  1  0.37985143  0.44895012  0.96766342  1
  H+  H203  1  0.52292687  0.13372142  0.49607597  1
  H+  H204  1  0.06034484  0.61028102  0.17071761  1
  H+  H205  1  0.66106077  0.58663848  0.90840014  1
  H+  H206  1  0.14022939  0.11856011  0.99125083  1
  H+  H207  1  0.89434717  0.94240705  0.01622324  1
  H+  H208  1  0.71328611  0.66719060  0.97230770  1
  H+  H209  1  0.51752407  0.64310005  0.50559043  1
  H+  H210  1  0.36046063  0.20859597  0.01326987  1
  H+  H211  1  0.84822099  0.96770374  0.67822278  1
  H+  H212  1  0.27380046  0.89259435  0.83861266  1
  H+  H213  1  0.75901887  0.60676554  0.00586411  1
  H+  H214  1  0.48009771  0.86919698  0.50057577  1
  H+  H215  1  0.63740483  0.36054412  0.15970675  1
  H+  H216  1  0.08200153  0.22844967  0.15757396  1
  H+  H217  1  0.86712158  0.39341153  0.33824241  1
  H+  H218  1  0.63940221  0.36002479  0.84351904  1
  H+  H219  1  0.66646499  0.32802330  0.90238252  1
  H+  H220  1  0.66829979  0.08296998  0.56863874  1
  H+  H221  1  0.26292318  0.15323559  0.16925541  1
  H+  H222  1  0.11112676  0.21588693  0.34047888  1
  H+  H223  1  0.88808584  0.36848025  0.16933915  1
  H+  H224  1  0.61315838  0.97207562  0.33047411  1
  H+  H225  1  0.65745955  0.82821048  0.23103985  1
  H+  H226  1  0.27563800  0.63999172  0.33181589  1
  H+  H227  1  0.35683791  0.12018752  0.01284940  1
  H+  H228  1  0.05776888  0.17406075  0.05879193  1
  H+  H229  1  0.86975009  0.09421741  0.17749277  1
  H+  H230  1  0.37038238  0.34699188  0.33767066  1
  H+  H231  1  0.13125349  0.78838651  0.84930481  1
  H+  H232  1  0.46973763  0.35516168  0.99416031  1
  H+  H233  1  0.63978606  0.11649809  0.50969600  1
  H+  H234  1  0.88700103  0.60924039  0.67533169  1
  H+  H235  1  1.01981894  0.12975377  0.34186573  1
  H+  H236  1  0.61940362  0.13419693  0.67508954  1
  H+  H237  1  0.36924251  0.38969830  0.82458877  1
  H+  H238  1  0.72162025  0.60684251  0.49626743  1
  H+  H239  1  0.13965262  0.52683529  0.65955300  1
  H+  H240  1  0.88631741  0.51562219  0.83839838  1
  H+  H241  1  0.24377294  0.32668903  1.01699790  1
  H+  H242  1  1.03312942  0.88763966  0.33557477  1
  H+  H243  1  1.00875680  0.12425553  0.67730402  1
  H+  H244  1  0.11619085  0.46711809  0.82868851  1
  H+  H245  1  0.85235609  0.45419146  0.00744812  1
  H+  H246  1  0.87634701  0.55937823  0.58741295  1
  H+  H247  1  0.01951312  0.88311590  0.67962824  1
  H+  H248  1  0.27512470  0.37067083  0.17449692  1
  H+  H249  1  0.23087731  0.11667043  0.83823572  1
  H+  H250  1  0.72553084  0.12155748  0.15868489  1
  H+  H251  1  0.23563013  0.61899615  0.50548665  1
  H+  H252  1  0.11699794  0.98512796  0.83011747  1
  H+  H253  1  0.98071220  0.11504167  0.83095227  1
  H+  H254  1  0.71935423  0.85051042  0.66340644  1
  H+  H255  1  0.22497682  0.11159133  -0.00424785  1
  H+  H256  1  0.23395112  0.36207385  0.83588107  1
  H+  H257  1  0.47019913  0.11660429  0.32407933  1
  H+  H258  1  0.73803727  0.35693929  0.65818931  1
  H+  H259  1  0.09842266  0.22584358  0.99781934  1
  H+  H260  1  0.10688139  0.48242791  -0.00257997  1
  H+  H261  1  0.15756164  0.78926446  0.50786302  1
  H+  H262  1  0.87523372  0.04500261  0.98272881  1
  H+  H263  1  0.60732511  0.73064522  0.34411404  1
  H+  H264  1  0.87027022  0.39000932  0.49570844  1
  H+  H265  1  0.35476639  0.46716878  0.16402043  1
  H+  H266  1  0.36032339  0.48906004  0.48687273  1
  H+  H267  1  0.60777898  0.13750367  1.00052295  1
  H+  H268  1  0.86070266  0.63031379  0.83125058  1
  H+  H269  1  0.27405073  0.39799391  0.48992207  1
  H+  H270  1  0.72278253  0.60754045  0.84834507  1
  H+  H271  1  0.41558976  0.08285303  0.93208283  1
  H+  H272  1  0.61852420  0.23093095  0.15297440  1
  H+  H273  1  0.89034943  0.77485237  0.67423846  1
  H+  H274  1  0.96486923  0.59403885  0.99585484  1
  H+  H275  1  0.11478171  0.40007383  0.33767615  1
  H+  H276  1  0.38622180  0.10907451  0.50666743  1
  H+  H277  1  0.78229621  0.63476498  0.67489528  1
  H+  H278  1  0.61732478  -0.01206172  0.49063048  1
  H+  H279  1  0.19200618  0.62437383  0.16445677  1
  H+  H280  1  0.78299083  0.51427913  0.56104212  1
  H+  H281  1  0.59092904  0.92069121  0.06270523  1
  H+  H282  1  0.87383217  0.38507031  0.67875326  1
  H+  H283  1  0.12044590  0.13889472  0.49875790  1
  H+  H284  1  0.72660261  0.11143907  0.83012392  1
  H+  H285  1  0.83109274  0.40374078  0.09620557  1
  H+  H286  1  0.47646590  0.11344965  0.83614887  1
  H+  H287  1  0.84860076  0.46610141  0.50186930  1
  H+  H288  1  0.09178363  0.41619352  0.73084839  1
  H+  H289  1  0.05506222  0.65833626  0.48259833  1
  H+  H290  1  0.33772142  0.92625713  0.39685516  1
  H+  H291  1  0.42622024  0.59988762  0.89449635  1
  H+  H292  1  0.91697637  0.09521265  0.88684785  1
  H+  H293  1  0.83600503  0.65866519  0.42832433  1
  H+  H294  1  0.88065591  0.52081480  0.31105435  1
  H+  H295  1  0.12957233  0.83351151  0.94547802  1
  H+  H296  1  0.42043078  0.83567761  0.89600869  1
  H+  H297  1  0.46739815  0.61464772  0.66016336  1
  H+  H298  1  0.15678942  0.59472275  0.93275376  1
  H+  H299  1  0.33461270  0.67313288  0.42818658  1
  H+  H300  1  0.77575263  0.14467609  0.49709852  1
  H+  H301  1  0.92904558  0.83557339  0.25525339  1
  H+  H302  1  0.34164628  0.17543508  0.76533329  1
  H+  H303  1  0.67619695  0.32926306  0.59910443  1
  H+  H304  1  0.83471523  0.17896079  0.40153993  1
  H+  H305  1  0.08501806  0.67920337  0.76867196  1
  H+  H306  1  0.93433231  0.58681980  0.21756523  1
  H+  H307  1  0.31048003  0.94014758  0.74575021  1
  H+  H308  1  0.16896627  0.85596575  0.22643368  1
  H+  H309  1  0.58061668  0.92466910  0.39550105  1
  H+  H310  1  0.14851243  0.78825479  0.32282110  1
  H+  H311  1  0.59925763  0.41907315  0.77749633  1
  H+  H312  1  0.62313385  0.22526152  0.67339954  1
  H+  H313  1  0.28376108  0.89678051  0.49369274  1
  H+  H314  1  0.38954867  0.04462166  0.66293682  1
  H+  H315  1  0.66566695  0.82882955  0.90094567  1
  H+  H316  1  0.85180857  0.96069135  0.16358343  1
  H+  H317  1  0.30163346  0.35405389  0.07622454  1
  H+  H318  1  0.61906201  0.37922443  0.48395026  1
  H+  H319  1  0.33377003  0.42178103  0.72978512  1
  H+  H320  1  0.07632169  0.15579143  0.73077208  1
  H+  H321  1  0.68205073  0.07872190  0.24933661  1
  H+  H322  1  0.37418759  0.89616698  1.00199316  1
  H+  H323  1  0.92259803  0.32874442  0.91230228  1
  H+  H324  1  0.11897148  0.69465342  0.39453569  1
  H+  H325  1  0.52708053  0.38807747  0.15552534  1
  H+  H326  1  0.42239493  0.57964120  0.26770547  1
  H+  H327  1  0.82490447  0.65327345  0.09914362  1
  H+  H328  1  0.91154312  0.56606539  0.93303543  1
  H+  H329  1  0.11654736  0.10241661  0.65346722  1
  H+  H330  1  0.61662167  0.47725723  0.15590988  1
  H+  H331  1  0.05212973  0.64920591  0.07365206  1
  H+  H332  1  0.83475366  0.89538407  0.07264361  1
  H+  H333  1  0.41624606  0.84370484  0.22972867  1
  H+  H334  1  0.58465369  0.42504829  0.06335311  1
  H+  H335  1  0.90418132  0.06924169  0.60787053  1
  H+  H336  1  0.83264931  0.16579226  0.75111109  1
  H+  H337  1  0.64925042  0.61123098  0.65491244  1
  H+  H338  1  0.83182833  0.65920289  0.73963652  1
  H+  H339  1  0.91266253  0.81815242  0.89673415  1
  H+  H340  1  0.33592896  0.92182723  0.05869596  1
  H+  H341  1  0.16637519  0.33165498  0.92848216  1
  H+  H342  1  0.87213317  0.11171548  0.65893144  1
  H+  H343  1  0.08822005  0.91840392  0.73402879  1
  H+  H344  1  0.24613829  0.38330430  0.66081261  1
  H+  H345  1  0.98451624  0.37080736  0.50855759  1
  H+  H346  1  0.58694277  0.16646880  0.76754234  1
  H+  H347  1  0.33428917  0.67198282  0.72966648  1
  H+  H348  1  0.82367728  0.90974918  0.73800476  1
  H+  H349  1  0.67588340  0.58168821  0.59391646  1
  H+  H350  1  0.32287286  0.15236840  0.43609852  1
  H+  H351  1  0.08688302  0.42537639  0.43349058  1
  H+  H352  1  0.17316602  0.08969237  0.89978606  1
  H+  H353  1  0.49203366  0.60699205  0.17272169  1
  H+  H354  1  0.57423271  0.39373537  0.39243211  1
  H+  H355  1  0.58133336  0.67280627  0.40444514  1
  H+  H356  1  0.83892102  0.42316121  0.39798649  1
  H+  H357  1  0.41881361  0.82848414  0.59819558  1
  H+  H358  1  0.39547813  0.28185790  0.17650208  1
  H+  H359  1  0.90108723  0.07091324  0.23917251  1
  H+  H360  1  0.98416995  0.86728390  0.16482503  1
  H+  H361  1  0.67117608  0.08733005  0.92873087  1
  H+  H362  1  0.62003103  0.90129806  0.47833645  1
  H+  H363  1  0.09452036  0.17053709  0.43808692  1
  H+  H364  1  0.92837630  0.33942431  0.60751582  1
  H+  H365  1  0.57258474  0.65594128  0.06277702  1
  H+  H366  1  0.16215374  0.58774968  0.26159130  1
  H+  H367  1  0.87164946  0.72893447  0.98933579  1
  H+  H368  1  0.30963133  0.68153400  0.09446023  1
  H+  H369  1  0.58447597  0.16583346  0.09499189  1
  H+  H370  1  0.36793883  0.72955877  0.82605331  1
  H+  H371  1  0.66972193  0.58674186  0.23065803  1
  H+  H372  1  0.58427428  0.91010785  0.73130705  1
  H+  H373  1  0.17756419  0.21706208  0.20171542  1
  H+  H374  1  0.15296695  0.08198602  0.23289452  1
  H+  H375  1  0.42499180  0.31416749  0.60739666  1
  H+  H376  1  0.92181772  0.34230226  0.26456538  1
  H+  H377  1  0.41628937  0.08988128  0.22020653  1
  H+  H378  1  0.83084642  0.40805821  0.77030475  1
  H+  H379  1  0.33497393  0.42061869  0.40025309  1
  H+  H380  1  0.41113202  0.59271501  0.56307288  1
  H+  H381  1  0.86517670  0.97633930  0.82821275  1
  H+  H382  1  0.12376583  0.85706108  0.66024935  1
  H+  H383  1  0.16664935  0.28097388  0.24552659  1
  O2-  O384  1  0.03024115  0.19324440  0.13197628  1
  O2-  O385  1  0.09302545  0.17406459  0.48309365  1
  O2-  O386  1  0.08293701  0.16123966  0.81312708  1
  O2-  O387  1  0.07322125  0.42343912  0.13415040  1
  O2-  O388  1  0.08886802  0.42189673  0.47877405  1
  O2-  O389  1  0.08647016  0.40910087  0.81032528  1
  O2-  O390  1  0.02714769  0.63692432  0.15414466  1
  O2-  O391  1  0.11669049  0.68759020  0.47524220  1
  O2-  O392  1  0.07955173  0.68168619  0.81432781  1
  O2-  O393  1  0.08115075  0.92841547  0.13615625  1
  O2-  O394  1  0.08883162  0.91934496  0.47780191  1
  O2-  O395  1  0.08881592  0.92389611  0.81521482  1
  O2-  O396  1  0.32461113  0.18116133  0.15940438  1
  O2-  O397  1  0.32639398  0.15238582  0.48087263  1
  O2-  O398  1  0.33732792  0.16840985  0.81164826  1
  O2-  O399  1  0.32615634  0.40715814  0.14957084  1
  O2-  O400  1  0.32930181  0.43120559  0.46819859  1
  O2-  O401  1  0.33814941  0.41937573  0.80805232  1
  O2-  O402  1  0.30019353  0.68304177  0.13991977  1
  O2-  O403  1  0.33601819  0.67372061  0.47368919  1
  O2-  O404  1  0.33772179  0.66880763  0.81016895  1
  O2-  O405  1  0.32964020  0.92430196  0.13721828  1
  O2-  O406  1  0.34235429  0.92333107  0.47498190  1
  O2-  O407  1  0.33001463  0.91787773  0.81717566  1
  O2-  O408  1  0.59007203  0.16733880  0.14041593  1
  O2-  O409  1  0.58426416  0.16218146  0.48114557  1
  O2-  O410  1  0.58475898  0.16332245  0.81323636  1
  O2-  O411  1  0.58769054  0.41910308  0.13751705  1
  O2-  O412  1  0.58791063  0.40673523  0.46492810  1
  O2-  O413  1  0.58627446  0.41220185  0.82239769  1
  O2-  O414  1  0.58420192  0.66044186  0.14466030  1
  O2-  O415  1  0.58311752  0.67375283  0.49954613  1
  O2-  O416  1  0.59158670  0.66374344  0.81361480  1
  O2-  O417  1  0.58479146  0.91829121  0.14294857  1
  O2-  O418  1  0.58517954  0.92969761  0.47116372  1
  O2-  O419  1  0.58557828  0.91261279  0.81206965  1
  O2-  O420  1  0.87560448  0.18840337  0.13140022  1
  O2-  O421  1  0.83555219  0.17793431  0.47959343  1
  O2-  O422  1  0.83439456  0.16700267  0.79594401  1
  O2-  O423  1  0.83806152  0.40912204  0.14273494  1
  O2-  O424  1  0.83507142  0.41374701  0.47810258  1
  O2-  O425  1  0.83393491  0.40849594  0.81597816  1
  O2-  O426  1  0.82092122  0.66135507  0.14340221  1
  O2-  O427  1  0.82468252  0.65628290  0.47316882  1
  O2-  O428  1  0.82931921  0.65942657  0.81617444  1
  O2-  O429  1  0.82556714  0.90148685  0.14653370  1
  O2-  O430  1  0.84430337  0.90485711  0.48270148  1
  O2-  O431  1  0.83553710  0.91407714  0.81734000  1
  O2-  O432  1  0.15006963  0.09989169  0.19047180  1
  O2-  O433  1  0.16243540  0.08591690  0.51886961  1
  O2-  O434  1  0.17037876  0.08676602  0.85364472  1
  O2-  O435  1  0.17484564  0.27078657  0.20299450  1
  O2-  O436  1  0.16872694  0.33821675  0.52478368  1
  O2-  O437  1  0.17360683  0.32993129  0.85171515  1
  O2-  O438  1  0.13735397  0.58330919  0.18495178  1
  O2-  O439  1  0.17446969  0.58807054  0.52002579  1
  O2-  O440  1  0.17449489  0.58578004  0.83913543  1
  O2-  O441  1  0.16527433  0.85981955  0.18168668  1
  O2-  O442  1  0.18225941  0.84891720  0.52352886  1
  O2-  O443  1  0.16240243  0.84544841  0.86905885  1
  O2-  O444  1  0.41993615  0.08116018  0.17643806  1
  O2-  O445  1  0.42152660  0.08307462  0.52000305  1
  O2-  O446  1  0.41588958  0.08303463  0.85099693  1
  O2-  O447  1  0.43514026  0.34440470  0.18589144  1
  O2-  O448  1  0.42391097  0.31573284  0.53005340  1
  O2-  O449  1  0.41645171  0.33814446  0.85397867  1
  O2-  O450  1  0.43003224  0.57911313  0.18866386  1
  O2-  O451  1  0.41845321  0.59566319  0.51785278  1
  O2-  O452  1  0.42542363  0.59175613  0.84972632  1
  O2-  O453  1  0.42062863  0.84663056  0.18426351  1
  O2-  O454  1  0.41958985  0.83569581  0.51512696  1
  O2-  O455  1  0.41739087  0.83227849  0.85033084  1
  O2-  O456  1  0.66872363  0.09126928  0.17738101  1
  O2-  O457  1  0.67300624  0.08795729  0.52295406  1
  O2-  O458  1  0.66908077  0.08204493  0.84972715  1
  O2-  O459  1  0.66297760  0.32593630  0.17447406  1
  O2-  O460  1  0.66850278  0.32897769  0.51735306  1
  O2-  O461  1  0.66996868  0.32864129  0.85673957  1
  O2-  O462  1  0.66655114  0.58508477  0.18597744  1
  O2-  O463  1  0.66250108  0.57189276  0.51438062  1
  O2-  O464  1  0.66156519  0.57905075  0.86111247  1
  O2-  O465  1  0.66013901  0.82811819  0.18580898  1
  O2-  O466  1  0.67645792  0.84993586  0.46895492  1
  O2-  O467  1  0.66829471  0.83014571  0.85563234  1
  O2-  O468  1  0.89658312  0.06223813  0.19414156  1
  O2-  O469  1  0.92364050  0.08916079  0.49126975  1
  O2-  O470  1  0.91768436  0.08752704  0.84229454  1
  O2-  O471  1  0.92398166  0.34269825  0.18638473  1
  O2-  O472  1  0.92515320  0.34251903  0.52584575  1
  O2-  O473  1  0.91699397  0.32629940  0.84462481  1
  O2-  O474  1  0.93804637  0.57874904  0.17190004  1
  O2-  O475  1  0.84281638  0.54312265  0.54791264  1
  O2-  O476  1  0.91306564  0.57544754  0.85485192  1
  O2-  O477  1  0.92501110  0.83256016  0.18380247  1
  O2-  O478  1  0.92136604  0.82540068  0.51141489  1
  O2-  O479  1  0.91821987  0.82771129  0.85197039  1
  O2-  O480  1  0.16478618  0.07586453  0.31129355  1
  O2-  O481  1  0.14429842  0.07251365  0.63311061  1
  O2-  O482  1  0.16918649  0.08956797  0.97382411  1
  O2-  O483  1  0.16888557  0.33254559  0.33813916  1
  O2-  O484  1  0.18174892  0.35258120  0.64286198  1
  O2-  O485  1  0.15765795  0.32770948  0.97373334  1
  O2-  O486  1  0.17428915  0.59251961  0.30612890  1
  O2-  O487  1  0.16695704  0.58720361  0.64471844  1
  O2-  O488  1  0.15824683  0.59073180  0.97722358  1
  O2-  O489  1  0.17342130  0.84988148  0.30762554  1
  O2-  O490  1  0.15862260  0.82977521  0.64590307  1
  O2-  O491  1  0.11015140  0.81468233  0.98853079  1
  O2-  O492  1  0.41051062  0.09028831  0.30804850  1
  O2-  O493  1  0.43063032  0.09670166  0.64041230  1
  O2-  O494  1  0.41801176  0.08210738  0.97729323  1
  O2-  O495  1  0.39360253  0.30848501  0.32407134  1
  O2-  O496  1  0.42923759  0.32200338  0.65292263  1
  O2-  O497  1  0.41199746  0.31553532  0.97709753  1
  O2-  O498  1  0.41560997  0.57771306  0.31283551  1
  O2-  O499  1  0.40926268  0.58841093  0.64218726  1
  O2-  O500  1  0.41755519  0.61333075  0.97586474  1
  O2-  O501  1  0.41104508  0.83689618  0.30811494  1
  O2-  O502  1  0.41632018  0.82355710  0.64313290  1
  O2-  O503  1  0.42902301  0.84206569  0.97260989  1
  O2-  O504  1  0.69683636  0.06227274  0.28997624  1
  O2-  O505  1  0.66460158  0.07746266  0.64642103  1
  O2-  O506  1  0.67314636  0.09080516  0.97430011  1
  O2-  O507  1  0.66765785  0.30380315  0.32619272  1
  O2-  O508  1  0.67701276  0.32713070  0.64428497  1
  O2-  O509  1  0.65853987  0.33088440  0.97935370  1
  O2-  O510  1  0.67576188  0.60371752  0.31659202  1
  O2-  O511  1  0.68360182  0.58663026  0.63894721  1
  O2-  O512  1  0.66664345  0.60778263  0.97515381  1
  O2-  O513  1  0.65382410  0.82661713  0.31152833  1
  O2-  O514  1  0.65969564  0.82042151  0.64585110  1
  O2-  O515  1  0.66661698  0.82449167  0.98179796  1
  O2-  O516  1  0.91335647  0.08605005  0.31853440  1
  O2-  O517  1  0.89813826  0.07138932  0.65173846  1
  O2-  O518  1  0.91144731  0.10388108  0.96888422  1
  O2-  O519  1  0.92397321  0.34438403  0.31014611  1
  O2-  O520  1  0.92977507  0.33644950  0.65275702  1
  O2-  O521  1  0.92532994  0.33368644  0.95972455  1
  O2-  O522  1  0.90750526  0.57611734  0.28891594  1
  O2-  O523  1  0.91404176  0.57584694  0.65806868  1
  O2-  O524  1  0.90607384  0.55977704  0.97822582  1
  O2-  O525  1  0.92949648  0.83567660  0.30207728  1
  O2-  O526  1  0.92178192  0.83617243  0.66283234  1
  O2-  O527  1  0.90298312  0.79076173  0.97469786  1
  O2-  O528  1  0.06279557  0.16610209  0.01447484  1
  O2-  O529  1  0.08061182  0.15638923  0.35625218  1
  O2-  O530  1  0.07108028  0.15463836  0.68593746  1
  O2-  O531  1  0.07603804  0.42042323  0.00962873  1
  O2-  O532  1  0.08485366  0.42954360  0.35335214  1
  O2-  O533  1  0.09272203  0.41873789  0.68545924  1
  O2-  O534  1  0.06478220  0.65497163  0.02919888  1
  O2-  O535  1  0.11184116  0.69569709  0.35007719  1
  O2-  O536  1  0.08549779  0.66978227  0.69257957  1
  O2-  O537  1  0.06944538  0.86367556  0.00811960  1
  O2-  O538  1  0.09135510  0.91960263  0.35391017  1
  O2-  O539  1  0.08374360  0.91256398  0.68898706  1
  O2-  O540  1  0.32702040  0.14973640  0.03012943  1
  O2-  O541  1  0.32306761  0.15780110  0.35148542  1
  O2-  O542  1  0.34872128  0.18754572  0.69205731  1
  O2-  O543  1  0.28450197  0.31624896  0.04029527  1
  O2-  O544  1  0.33441932  0.41140912  0.35365080  1
  O2-  O545  1  0.33020793  0.42242575  0.68419095  1
  O2-  O546  1  0.32452631  0.68164984  0.02161257  1
  O2-  O547  1  0.33563504  0.67073400  0.34876984  1
  O2-  O548  1  0.33030027  0.66863738  0.68446068  1
  O2-  O549  1  0.34096266  0.92418334  0.01339753  1
  O2-  O550  1  0.33693198  0.92829498  0.35127082  1
  O2-  O551  1  0.29769881  0.95774848  0.70528217  1
  O2-  O552  1  0.57677697  0.16534790  0.01756697  1
  O2-  O553  1  0.57256653  0.14824350  0.35689333  1
  O2-  O554  1  0.59058195  0.16582201  0.69065850  1
  O2-  O555  1  0.58203667  0.42362400  0.01728998  1
  O2-  O556  1  0.55864565  0.37488288  0.34813404  1
  O2-  O557  1  0.63691494  0.43582298  0.70766666  1
  O2-  O558  1  0.56992258  0.65946908  0.01777995  1
  O2-  O559  1  0.58104394  0.66990174  0.35988273  1
  O2-  O560  1  0.56430147  0.62249048  0.69760580  1
  O2-  O561  1  0.59457147  0.92255523  0.01735948  1
  O2-  O562  1  0.57825905  0.91515661  0.34998068  1
  O2-  O563  1  0.58403273  0.91156022  0.68596515  1
  O2-  O564  1  0.83479383  0.18777205  0.01154656  1
  O2-  O565  1  0.84121235  0.17902132  0.35606962  1
  O2-  O566  1  0.83440317  0.16987110  0.66376682  1
  O2-  O567  1  0.82034721  0.39620645  0.02599939  1
  O2-  O568  1  0.83332516  0.41997698  0.35287587  1
  O2-  O569  1  0.83812369  0.41001548  0.69333951  1
  O2-  O570  1  0.81992079  0.63380205  0.01991662  1
  O2-  O571  1  0.84565198  0.67352171  0.35068138  1
  O2-  O572  1  0.84007009  0.66217233  0.69429040  1
  O2-  O573  1  0.83987024  0.89197687  0.02694461  1
  O2-  O574  1  0.80296728  0.93652075  0.37602749  1
  O2-  O575  1  0.82006931  0.90684998  0.69269697  1
