# generated using pymatgen
data_H2O
_symmetry_space_group_name_H-M   'P 1'
_cell_length_a   17.98401568
_cell_length_b   17.99212676
_cell_length_c   21.99654718
_cell_angle_alpha   89.96539506
_cell_angle_beta   90.01228706
_cell_angle_gamma   119.99287337
_symmetry_Int_Tables_number   1
_chemical_formula_structural   H2O
_chemical_formula_sum   'H384 O192'
_cell_volume   6164.32351121
_cell_formula_units_Z   192
loop_
 _symmetry_equiv_pos_site_id
 _symmetry_equiv_pos_as_xyz
  1  'x, y, z'
loop_
 _atom_type_symbol
 _atom_type_oxidation_number
  H+  1.0
  O2-  -2.0
loop_
 _atom_site_type_symbol
 _atom_site_label
 _atom_site_symmetry_multiplicity
 _atom_site_fract_x
 _atom_site_fract_y
 _atom_site_fract_z
 _atom_site_occupancy
  H+  H0  1  0.88948966  0.27787491  0.32536030  1
  H+  H1  1  0.91095900  0.29678592  0.48982520  1
  H+  H2  1  0.13243613  0.29705299  0.33337884  1
  H+  H3  1  0.55093455  0.97004748  0.45948130  1
  H+  H4  1  0.13001324  0.35860039  0.17497024  1
  H+  H5  1  0.72633757  0.62556138  0.50836926  1
  H+  H6  1  0.64708394  1.02362256  0.50473384  1
  H+  H7  1  0.61711429  0.47930143  0.67193362  1
  H+  H8  1  0.37258531  0.62562509  0.32799019  1
  H+  H9  1  0.36664871  0.23152329  0.67000312  1
  H+  H10  1  0.35731858  0.21859164  0.16152611  1
  H+  H11  1  0.87899765  0.26221790  0.85513048  1
  H+  H12  1  0.23761615  0.86939300  0.32082468  1
  H+  H13  1  1.02165122  0.87425001  0.33741442  1
  H+  H14  1  0.60896699  0.46348916  0.16211474  1
  H+  H15  1  0.10501905  0.72765119  0.81963357  1
  H+  H16  1  0.60562886  0.12282191  0.83387202  1
  H+  H17  1  0.87615210  0.27461435  0.17998429  1
  H+  H18  1  1.02232574  0.88888545  0.49271636  1
  H+  H19  1  0.66162407  0.59342519  0.56650377  1
  H+  H20  1  0.85669052  0.59645465  0.66322618  1
  H+  H21  1  0.32800293  0.92113094  0.76352330  1
  H+  H22  1  0.76867300  0.89799836  0.49348434  1
  H+  H23  1  0.21850679  0.35143529  1.00775495  1
  H+  H24  1  0.91096064  0.07979296  0.26457942  1
  H+  H25  1  0.76568955  0.88526383  0.15660925  1
  H+  H26  1  0.97291648  0.86409356  0.98706213  1
  H+  H27  1  0.63347112  0.79141209  0.50268199  1
  H+  H28  1  0.38720873  0.12234092  0.65871144  1
  H+  H29  1  0.96771084  0.11207098  0.17259189  1
  H+  H30  1  0.83880605  0.71520643  0.66812673  1
  H+  H31  1  0.32977383  0.69541391  0.44750931  1
  H+  H32  1  0.52129427  0.38626058  0.33775248  1
  H+  H33  1  0.36564540  0.12909582  -0.00719780  1
  H+  H34  1  0.84183276  0.42976787  0.06552310  1
  H+  H35  1  0.35129783  0.94918530  0.09366704  1
  H+  H36  1  0.72700544  0.10088675  0.86072800  1
  H+  H37  1  0.10601807  0.22313019  0.16637316  1
  H+  H38  1  0.86071304  0.88430116  -0.00088985  1
  H+  H39  1  0.02463581  0.64077683  0.00244291  1
  H+  H40  1  0.28829969  0.40503659  0.83318001  1
  H+  H41  1  0.65166520  0.07192850  0.94534536  1
  H+  H42  1  0.89210866  0.61900436  0.98924223  1
  H+  H43  1  0.63642903  0.01604456  0.84736770  1
  H+  H44  1  0.48335292  0.12439655  0.16968631  1
  H+  H45  1  0.99433608  0.62354915  0.17405297  1
  H+  H46  1  0.51760644  0.88326023  0.83192096  1
  H+  H47  1  0.87204307  0.48466925  0.00344508  1
  H+  H48  1  0.63816025  0.36062043  0.66642446  1
  H+  H49  1  0.11163926  0.13180570  0.01459605  1
  H+  H50  1  0.64770572  0.52949866  -0.00693063  1
  H+  H51  1  0.15149962  0.27366765  0.80495556  1
  H+  H52  1  0.26263143  0.64036782  0.50034297  1
  H+  H53  1  0.62961079  0.85484339  0.17188438  1
  H+  H54  1  0.61744926  0.13819819  0.33804966  1
  H+  H55  1  0.91499876  0.83654056  0.56929543  1
  H+  H56  1  0.12005294  0.72340954  0.00065272  1
  H+  H57  1  0.12793711  1.00970353  0.65535787  1
  H+  H58  1  0.61918620  0.63937613  0.34457914  1
  H+  H59  1  0.88691769  0.86068378  0.32762099  1
  H+  H60  1  0.65904439  0.80781749  0.93176165  1
  H+  H61  1  0.47919318  0.60181008  0.17472647  1
  H+  H62  1  0.62827060  0.35463959  0.32542057  1
  H+  H63  1  0.27430381  0.62311739  0.15200059  1
  H+  H64  1  -0.03047381  0.11509122  0.32484283  1
  H+  H65  1  0.13876682  0.86919163  0.50322386  1
  H+  H66  1  0.39812713  0.88760086  0.16987588  1
  H+  H67  1  0.09993320  0.09706579  0.80350644  1
  H+  H68  1  0.12934704  0.72876896  0.32583680  1
  H+  H69  1  0.85270988  0.37401441  0.83126413  1
  H+  H70  1  0.52261142  0.89005029  0.16226865  1
  H+  H71  1  0.49176565  0.58771889  0.65094394  1
  H+  H72  1  0.87641465  0.85390247  0.66289840  1
  H+  H73  1  0.66323348  0.07874294  0.56645600  1
  H+  H74  1  0.61521493  0.63347861  0.66867824  1
  H+  H75  1  0.38768007  0.51335440  0.17530510  1
  H+  H76  1  0.88157912  0.40795448  0.49679968  1
  H+  H77  1  0.13101903  0.53549053  0.85301742  1
  H+  H78  1  0.36563713  0.90364399  0.67186167  1
  H+  H79  1  0.57386938  0.53614548  0.62571072  1
  H+  H80  1  0.33560168  0.16514212  0.43137214  1
  H+  H81  1  0.02811247  0.13368917  0.48377982  1
  H+  H82  1  0.13660830  0.52817425  0.49554921  1
  H+  H83  1  0.14151373  0.61410038  0.99641360  1
  H+  H84  1  0.08086204  0.90581573  0.39754741  1
  H+  H85  1  0.48073229  0.36428471  0.99890321  1
  H+  H86  1  0.85080748  -0.03484232  0.68319630  1
  H+  H87  1  0.88022596  0.51934465  0.83664096  1
  H+  H88  1  0.78237902  0.63686891  1.00199675  1
  H+  H89  1  0.31708387  0.68253639  0.73705549  1
  H+  H90  1  0.58462693  0.89877979  0.06205591  1
  H+  H91  1  0.12279150  0.34406285  0.00402286  1
  H+  H92  1  0.13899097  0.60851826  0.16229322  1
  H+  H93  1  0.51961027  0.89157485  0.67721279  1
  H+  H94  1  0.63411856  0.61253758  0.83672762  1
  H+  H95  1  0.61075242  0.22359563  0.68110967  1
  H+  H96  1  0.87676885  0.60708002  0.83359508  1
  H+  H97  1  0.64559740  0.38139826  0.84725490  1
  H+  H98  1  0.09058432  -0.05179398  0.82445374  1
  H+  H99  1  0.10531340  0.97097028  0.00237028  1
  H+  H100  1  0.81963027  0.89875682  0.73872027  1
  H+  H101  1  0.61020846  0.72351268  0.66940752  1
  H+  H102  1  0.52004996  0.13724834  0.67610209  1
  H+  H103  1  0.35619822  0.37706001  0.16486868  1
  H+  H104  1  0.24394184  0.14183811  0.85251753  1
  H+  H105  1  0.88092376  0.27411388  0.63404332  1
  H+  H106  1  0.96929449  0.61915897  0.52090933  1
  H+  H107  1  0.99272009  0.61111906  0.67612700  1
  H+  H108  1  0.63241520  0.85564018  0.83891653  1
  H+  H109  1  0.88306852  0.76680165  0.17098580  1
  H+  H110  1  0.10920155  0.48137978  0.64722284  1
  H+  H111  1  0.00532713  0.38744507  0.49218753  1
  H+  H112  1  0.13987262  0.08101597  0.32841562  1
  H+  H113  1  0.76326330  0.13239153  0.18966426  1
  H+  H114  1  0.93054346  0.06501626  0.88701478  1
  H+  H115  1  0.85792096  0.13350159  0.33087674  1
  H+  H116  1  0.22492307  0.88202149  0.66092460  1
  H+  H117  1  0.62512269  0.11173333  0.66221449  1
  H+  H118  1  0.26804110  0.38047443  0.16570864  1
  H+  H119  1  0.65680878  0.32574930  0.22534243  1
  H+  H120  1  0.01702139  0.63661548  0.82606718  1
  H+  H121  1  0.71909535  0.35904518  0.31693173  1
  H+  H122  1  0.48246182  0.62769652  0.50248553  1
  H+  H123  1  0.60006320  0.49208421  0.49151382  1
  H+  H124  1  0.13702905  0.38677507  0.32949729  1
  H+  H125  1  0.73696576  0.37389132  0.84373706  1
  H+  H126  1  0.88565241  0.77438814  0.98924443  1
  H+  H127  1  0.72071884  0.85206213  0.83646403  1
  H+  H128  1  0.73940876  0.69279840  0.21216137  1
  H+  H129  1  0.62559146  1.02139716  0.66354965  1
  H+  H130  1  0.08016076  0.31713821  0.53132134  1
  H+  H131  1  0.51310749  0.61165100  0.01644297  1
  H+  H132  1  0.21164574  0.86820472  0.98545253  1
  H+  H133  1  0.39013396  0.77028972  0.32638421  1
  H+  H134  1  0.37409037  0.13602414  0.33597254  1
  H+  H135  1  0.36482551  0.39194435  0.48880581  1
  H+  H136  1  0.37165707  0.99437101  0.15821884  1
  H+  H137  1  0.12661660  0.10624032  0.17199851  1
  H+  H138  1  0.89779439  0.61943591  0.33321212  1
  H+  H139  1  0.48407036  0.11489653  0.32471298  1
  H+  H140  1  0.86197866  -0.02565468  0.33828606  1
  H+  H141  1  1.00290673  0.35265143  1.01021486  1
  H+  H142  1  0.07049441  0.90952850  0.05948924  1
  H+  H143  1  0.85740659  0.86676041  0.82428114  1
  H+  H144  1  0.39504261  0.52026428  0.32502798  1
  H+  H145  1  0.26141173  0.88230872  0.81939504  1
  H+  H146  1  0.36395364  0.13799927  0.49231405  1
  H+  H147  1  0.85840520  -0.04273973  0.82509548  1
  H+  H148  1  0.85692287  0.38820975  0.32428255  1
  H+  H149  1  0.92281099  0.34600092  0.58380391  1
  H+  H150  1  0.14244564  0.37924691  0.65225050  1
  H+  H151  1  0.73382059  0.36963298  -0.00412148  1
  H+  H152  1  0.52897086  0.63656419  0.33901026  1
  H+  H153  1  0.47775364  0.11335171  0.50569018  1
  H+  H154  1  0.86158856  0.63812148  0.50241664  1
  H+  H155  1  0.75672649  0.12736675  0.63881245  1
  H+  H156  1  0.11143894  0.97770405  0.48810397  1
  H+  H157  1  0.38840139  0.11498376  0.17583570  1
  H+  H158  1  0.16271056  0.33777721  0.23657449  1
  H+  H159  1  0.61574677  0.13181530  0.49262511  1
  H+  H160  1  0.91467637  0.33928413  0.23590153  1
  H+  H161  1  0.72420858  0.35476306  0.66945180  1
  H+  H162  1  0.39046446  0.78063104  0.51560965  1
  H+  H163  1  0.96545247  0.85331963  0.66434581  1
  H+  H164  1  0.97872355  0.36905709  0.32869313  1
  H+  H165  1  0.86946791  0.12003235  0.85087848  1
  H+  H166  1  0.12201811  0.26340115  0.50817654  1
  H+  H167  1  0.58867630  0.68106439  0.43473148  1
  H+  H168  1  0.36369979  0.62640601  0.15487442  1
  H+  H169  1  0.78924730  0.63474040  0.15891414  1
  H+  H170  1  0.62217352  0.48434890  0.83056062  1
  H+  H171  1  0.36581268  -0.00748171  0.67322156  1
  H+  H172  1  0.10490590  0.72861747  0.50599297  1
  H+  H173  1  0.63201679  0.87960253  0.50216460  1
  H+  H174  1  0.39990450  0.28019014  0.84984833  1
  H+  H175  1  0.01645422  0.15096654  0.66383065  1
  H+  H176  1  0.90425165  0.53421098  0.17611360  1
  H+  H177  1  0.82029488  0.66063881  0.76407213  1
  H+  H178  1  0.72210322  0.84297991  0.98818819  1
  H+  H179  1  0.37984068  0.79063879  0.66304664  1
  H+  H180  1  0.10967432  0.60437278  0.65535037  1
  H+  H181  1  0.93018365  0.59639614  0.27198837  1
  H+  H182  1  0.86030536  0.72271756  0.82296292  1
  H+  H183  1  0.10590518  0.46736044  0.15696667  1
  H+  H184  1  0.09997445  0.88401740  0.67419564  1
  H+  H185  1  0.43237012  0.63767355  0.71663896  1
  H+  H186  1  0.36915333  0.88889249  0.34012257  1
  H+  H187  1  0.61313785  0.86718523  0.00400418  1
  H+  H188  1  0.76832582  0.13220307  0.32868204  1
  H+  H189  1  0.35182283  0.78282887  -0.00913034  1
  H+  H190  1  0.52408685  0.15392569  0.00796885  1
  H+  H191  1  0.61650876  0.22762499  0.33796357  1
  H+  H192  1  0.88202404  0.52730779  0.51488252  1
  H+  H193  1  0.37936067  1.00833707  0.84204231  1
  H+  H194  1  0.27650100  0.39523557  0.33848126  1
  H+  H195  1  0.48292527  0.35569340  0.65968649  1
  H+  H196  1  0.86413763  0.72430877  0.34654833  1
  H+  H197  1  0.62789787  1.00133715  0.32573348  1
  H+  H198  1  0.02293541  0.38763436  0.64699107  1
  H+  H199  1  0.22570929  0.11121133  0.50103574  1
  H+  H200  1  0.63297904  0.28488231  0.99670362  1
  H+  H201  1  0.85978102  0.98415969  0.49023030  1
  H+  H202  1  0.85198898  0.14559090  0.91405469  1
  H+  H203  1  0.25239890  0.81491939  0.96070244  1
  H+  H204  1  0.86557776  0.09564988  0.63524511  1
  H+  H205  1  0.10179718  0.63944981  0.50012779  1
  H+  H206  1  0.88997246  0.13036617  0.48662686  1
  H+  H207  1  0.39019481  0.62040235  0.50980173  1
  H+  H208  1  0.26799518  0.64131612  0.82619421  1
  H+  H209  1  -0.02836258  0.07443110  0.81848676  1
  H+  H210  1  0.57790229  0.91464296  0.77313264  1
  H+  H211  1  0.62917590  0.00631701  0.99929847  1
  H+  H212  1  0.37935953  0.86243092  0.83153684  1
  H+  H213  1  0.38133181  0.50706674  0.99157940  1
  H+  H214  1  0.48125396  0.86858411  0.50517051  1
  H+  H215  1  0.47835883  0.85962601  0.32924110  1
  H+  H216  1  0.38403442  0.27728056  0.50528747  1
  H+  H217  1  0.10595910  0.40451674  0.86932919  1
  H+  H218  1  0.26172659  0.39115044  0.67072625  1
  H+  H219  1  0.73132451  0.61238003  0.33833689  1
  H+  H220  1  0.11913333  0.25571808  0.83029074  1
  H+  H221  1  0.28055437  0.65816102  1.00690502  1
  H+  H222  1  0.23288968  0.87671215  0.16097175  1
  H+  H223  1  0.60755342  0.88856821  0.67593411  1
  H+  H224  1  0.36691508  0.89164918  0.49441706  1
  H+  H225  1  0.39610684  0.36736648  0.83833300  1
  H+  H226  1  0.85981731  0.25921621  1.00179430  1
  H+  H227  1  0.20642917  0.62234910  0.65733190  1
  H+  H228  1  0.14468193  0.86078020  0.32130437  1
  H+  H229  1  0.63727053  0.77347809  0.32754327  1
  H+  H230  1  0.85173935  0.46824662  0.67576184  1
  H+  H231  1  0.74681114  0.62869960  0.66833977  1
  H+  H232  1  0.38664515  0.61716763  0.83527385  1
  H+  H233  1  0.38265280  0.35850852  0.32602284  1
  H+  H234  1  0.14006440  -0.00448873  0.32224787  1
  H+  H235  1  0.47398137  0.09478333  0.84598967  1
  H+  H236  1  0.00998871  0.38889710  0.85959901  1
  H+  H237  1  0.86527143  0.72952777  0.49851539  1
  H+  H238  1  0.64850200  0.26950167  0.51263635  1
  H+  H239  1  0.28129145  0.12558413  0.33433337  1
  H+  H240  1  0.10972019  0.48429910  0.33369529  1
  H+  H241  1  0.57810223  0.65059591  0.10393514  1
  H+  H242  1  0.86057591  0.38397383  0.66948097  1
  H+  H243  1  0.65086680  0.63734596  0.17942429  1
  H+  H244  1  0.72538948  0.61513216  0.83563426  1
  H+  H245  1  0.33927516  0.65592879  0.67454727  1
  H+  H246  1  0.66099265  0.84188582  0.60071032  1
  H+  H247  1  0.77786768  0.14676240  0.48211522  1
  H+  H248  1  0.60994509  0.72230297  0.82311711  1
  H+  H249  1  0.60756946  0.71883364  0.16085916  1
  H+  H250  1  0.10597341  0.23868480  0.67284396  1
  H+  H251  1  0.22492285  0.10854836  0.98862568  1
  H+  H252  1  0.61194578  0.47400031  0.33958619  1
  H+  H253  1  0.88590464  0.86763698  0.50999549  1
  H+  H254  1  0.62543061  0.26688904  0.16374552  1
  H+  H255  1  0.96611888  0.85786449  0.17275404  1
  H+  H256  1  0.12016802  0.18049471  0.33119513  1
  H+  H257  1  0.37673894  0.88485026  0.98203571  1
  H+  H258  1  0.22865411  0.60831852  0.31066471  1
  H+  H259  1  0.21869709  0.09687883  0.65261740  1
  H+  H260  1  0.61882764  0.96816052  0.15962819  1
  H+  H261  1  0.60914874  0.07402192  0.23201221  1
  H+  H262  1  0.24194915  0.46466140  0.90043445  1
  H+  H263  1  0.37564644  0.46905462  0.66476041  1
  H+  H264  1  0.22770382  0.86899359  0.50460081  1
  H+  H265  1  0.86681493  0.39462061  0.16194619  1
  H+  H266  1  0.19485973  0.19244163  0.86385510  1
  H+  H267  1  0.87854222  0.35751547  0.99863252  1
  H+  H268  1  0.11032474  0.21982526  0.01195524  1
  H+  H269  1  0.35690674  0.37398409  0.01329238  1
  H+  H270  1  0.13082682  0.41763416  0.47723740  1
  H+  H271  1  0.01574782  0.37954517  0.16469236  1
  H+  H272  1  0.71742619  0.86167516  0.66165081  1
  H+  H273  1  0.80528953  0.14999474  0.57798365  1
  H+  H274  1  0.39107411  0.59566758  0.71776317  1
  H+  H275  1  0.12565857  0.73377989  0.15490700  1
  H+  H276  1  0.47685709  0.61786858  0.83408266  1
  H+  H277  1  0.60660429  0.69256086  1.01416043  1
  H+  H278  1  0.37572277  0.48710723  0.82160880  1
  H+  H279  1  0.61914516  0.65700621  0.49639465  1
  H+  H280  1  0.13639530  0.62528563  0.83825909  1
  H+  H281  1  0.34364760  0.16690762  0.90446129  1
  H+  H282  1  0.74632112  0.12795846  0.01599904  1
  H+  H283  1  0.87842041  0.02230434  0.17042943  1
  H+  H284  1  0.10318699  0.88184904  0.15535024  1
  H+  H285  1  0.47055605  0.35582867  0.17218882  1
  H+  H286  1  0.61735092  0.39306290  0.00636512  1
  H+  H287  1  0.85388769  0.88530426  0.15693020  1
  H+  H288  1  0.42428948  0.34193652  0.93879928  1
  H+  H289  1  0.33882425  0.92060546  0.43332945  1
  H+  H290  1  0.59394732  0.42297995  0.73373736  1
  H+  H291  1  0.85804455  0.47711733  0.32700975  1
  H+  H292  1  0.61013447  0.37491480  0.15965623  1
  H+  H293  1  0.53533932  0.39229668  0.83161384  1
  H+  H294  1  0.61631130  0.88772433  0.34028859  1
  H+  H295  1  0.08613568  0.43415166  0.40030681  1
  H+  H296  1  0.34266054  0.69160714  0.06435724  1
  H+  H297  1  0.42540079  0.57734456  0.26346519  1
  H+  H298  1  0.09841934  0.96785693  0.15554726  1
  H+  H299  1  0.80588580  0.16488825  0.07522485  1
  H+  H300  1  0.42555085  0.08673526  0.26357761  1
  H+  H301  1  0.67764741  0.59378338  0.27712436  1
  H+  H302  1  0.19257501  0.36863054  0.92321566  1
  H+  H303  1  0.33019890  0.42298071  0.73519512  1
  H+  H304  1  0.93548763  0.12712715  0.54681275  1
  H+  H305  1  0.16746237  0.84948606  0.60150538  1
  H+  H306  1  0.32909105  0.16935517  0.72847387  1
  H+  H307  1  0.16375767  0.07489100  0.56015340  1
  H+  H308  1  0.11806646  0.13287179  0.48864812  1
  H+  H309  1  0.17341108  0.33652198  0.60271467  1
  H+  H310  1  0.89062199  0.02087264  0.98137556  1
  H+  H311  1  0.42122447  0.84827188  0.60297888  1
  H+  H312  1  0.41877951  0.09222897  0.59971905  1
  H+  H313  1  0.15972682  0.09064855  0.93651960  1
  H+  H314  1  0.33943506  0.42041613  0.39677455  1
  H+  H315  1  0.72630979  0.86238084  0.32651671  1
  H+  H316  1  0.57235623  0.14960487  0.77517340  1
  H+  H317  1  0.17832565  0.84313392  0.22232102  1
  H+  H318  1  0.27056516  0.12931061  0.15769436  1
  H+  H319  1  0.43469707  0.55613281  0.58977604  1
  H+  H320  1  0.66330650  0.82918521  0.23115748  1
  H+  H321  1  0.14976626  0.45825004  0.75925097  1
  H+  H322  1  0.83087832  0.17279916  0.41944597  1
  H+  H323  1  0.06335888  0.38649157  0.06936890  1
  H+  H324  1  0.89693924  0.03527639  0.60432820  1
  H+  H325  1  0.89612251  0.32345798  0.90997927  1
  H+  H326  1  0.16374504  0.82742705  0.88507149  1
  H+  H327  1  0.83228808  0.91688959  0.39860237  1
  H+  H328  1  0.37102677  0.12951691  0.85142434  1
  H+  H329  1  0.78698448  0.39300850  0.50453170  1
  H+  H330  1  0.82900640  0.91620785  0.05661511  1
  H+  H331  1  0.91254978  0.82302990  0.89116662  1
  H+  H332  1  0.37203197  0.22278340  -0.00997454  1
  H+  H333  1  0.16001085  0.58519159  0.55934577  1
  H+  H334  1  0.58557693  0.92276076  0.40229552  1
  H+  H335  1  0.08494043  0.17470885  0.39942910  1
  H+  H336  1  0.37162367  0.48356139  0.48473067  1
  H+  H337  1  0.58332345  0.41579377  0.06645883  1
  H+  H338  1  0.46948909  0.37063661  0.50587582  1
  H+  H339  1  0.06096659  0.64590329  0.73118925  1
  H+  H340  1  0.15920661  0.06884405  0.22562624  1
  H+  H341  1  0.77992271  0.39732855  0.16152806  1
  H+  H342  1  0.58633455  0.16341616  0.43408322  1
  H+  H343  1  0.42113412  0.85172197  0.23002495  1
  H+  H344  1  0.89427172  0.57363617  0.60426825  1
  H+  H345  1  0.08827956  0.67161283  0.09712403  1
  H+  H346  1  0.37264435  0.98006012  0.33730609  1
  H+  H347  1  0.82717224  0.40473113  0.76899870  1
  H+  H348  1  0.67396769  0.32295153  0.57408566  1
  H+  H349  1  0.38773012  0.02578056  0.50642012  1
  H+  H350  1  0.42049514  0.32990822  0.60163572  1
  H+  H351  1  0.16440241  0.57574259  0.22159206  1
  H+  H352  1  -0.02252010  0.84992670  0.83085914  1
  H+  H353  1  0.59999440  0.14726122  0.13713968  1
  H+  H354  1  -0.01957930  0.10735558  -0.01387496  1
  H+  H355  1  0.77580069  0.16102289  0.75012904  1
  H+  H356  1  0.58186494  0.66310605  0.76303221  1
  H+  H357  1  0.57323258  0.42727132  0.43530952  1
  H+  H358  1  0.32835534  0.40653042  0.07215997  1
  H+  H359  1  0.06416015  0.90219806  0.73641711  1
  H+  H360  1  0.56388725  0.19687832  0.07317546  1
  H+  H361  1  0.91085930  0.82639817  0.26774629  1
  H+  H362  1  0.38528026  0.26985224  0.32619097  1
  H+  H363  1  0.84923089  0.13354358  0.17224268  1
  H+  H364  1  0.31543770  0.61940791  0.38332602  1
  H+  H365  1  0.88033422  0.63738218  0.15972857  1
  H+  H366  1  0.84403562  0.66778118  0.06148769  1
  H+  H367  1  0.40994330  0.05104395  0.93739947  1
  H+  H368  1  0.91795489  0.58649971  0.92896311  1
  H+  H369  1  0.83715729  0.66701209  0.40752797  1
  H+  H370  1  0.12614170  0.41038657  0.76110627  1
  H+  H371  1  0.11886822  0.85580630  0.82935622  1
  H+  H372  1  0.67754956  0.58453866  0.93189696  1
  H+  H373  1  0.06496099  0.12119652  0.74407888  1
  H+  H374  1  0.35776195  0.73064164  0.82596526  1
  H+  H375  1  0.04061657  0.64185933  0.33542789  1
  H+  H376  1  0.41768682  0.57105302  0.93474524  1
  H+  H377  1  0.39387430  0.83118992  0.89451572  1
  H+  H378  1  0.76531732  0.11504817  0.75006347  1
  H+  H379  1  0.67862677  0.34905628  0.91306411  1
  H+  H380  1  0.17808780  0.60026449  0.93524739  1
  H+  H381  1  0.41355472  0.32814606  0.23282390  1
  H+  H382  1  0.07685339  0.16439927  0.10589359  1
  H+  H383  1  0.14372796  0.61776899  0.31406572  1
  O2-  O384  1  0.07420628  0.16228079  0.15167302  1
  O2-  O385  1  0.08947778  0.16516790  0.47153029  1
  O2-  O386  1  0.04804902  0.08085102  0.77940242  1
  O2-  O387  1  0.07509034  0.40402998  0.14796165  1
  O2-  O388  1  0.09327709  0.44050727  0.46714194  1
  O2-  O389  1  0.07195755  0.43242574  0.86193584  1
  O2-  O390  1  0.09278022  0.67205311  0.14276606  1
  O2-  O391  1  0.06671925  0.66738926  0.49556899  1
  O2-  O392  1  0.07622835  0.66456098  0.80912352  1
  O2-  O393  1  0.06630444  0.90620828  0.14279463  1
  O2-  O394  1  0.08062736  0.91651319  0.47371229  1
  O2-  O395  1  0.06361062  0.88951306  0.80951710  1
  O2-  O396  1  0.33227038  0.15838018  0.14750031  1
  O2-  O397  1  0.33180137  0.16603423  0.47657133  1
  O2-  O398  1  0.34639532  0.16852553  0.85850668  1
  O2-  O399  1  0.32815736  0.40982262  0.14979891  1
  O2-  O400  1  0.34110802  0.42485242  0.46777221  1
  O2-  O401  1  0.34204038  0.42448377  0.80891955  1
  O2-  O402  1  0.33506352  0.65704551  0.13914493  1
  O2-  O403  1  0.32829694  0.67574666  0.48898463  1
  O2-  O404  1  0.32814923  0.67075782  0.80858364  1
  O2-  O405  1  0.34077189  0.93606771  0.13762478  1
  O2-  O406  1  0.33689147  0.92175651  0.47882268  1
  O2-  O407  1  0.32456831  0.91314068  0.80889069  1
  O2-  O408  1  0.56944087  0.17897535  0.13968718  1
  O2-  O409  1  0.58229313  0.15910057  0.47939750  1
  O2-  O410  1  0.56812130  0.14552203  0.82011373  1
  O2-  O411  1  0.57756014  0.40582851  0.14524651  1
  O2-  O412  1  0.56472220  0.43114732  0.47937700  1
  O2-  O413  1  0.59647533  0.42179613  0.81778846  1
  O2-  O414  1  0.58325238  0.65669725  0.15128338  1
  O2-  O415  1  0.58802333  0.68666533  0.47991705  1
  O2-  O416  1  0.57890697  0.66091127  0.80878089  1
  O2-  O417  1  0.58370804  0.90861046  0.14705167  1
  O2-  O418  1  0.57561949  0.93321573  0.46657675  1
  O2-  O419  1  0.57898832  0.91113456  0.81836893  1
  O2-  O420  1  0.81545249  0.16305757  0.16484851  1
  O2-  O421  1  0.83708247  0.17643616  0.46515411  1
  O2-  O422  1  0.84162519  0.15029885  0.87082168  1
  O2-  O423  1  0.84018530  0.42857922  0.14663827  1
  O2-  O424  1  0.84586526  0.43453861  0.48946013  1
  O2-  O425  1  0.82524296  0.40692445  0.81468118  1
  O2-  O426  1  0.84789363  0.66472348  0.14175499  1
  O2-  O427  1  0.83307078  0.66933805  0.48352284  1
  O2-  O428  1  0.82558752  0.66007567  0.80917096  1
  O2-  O429  1  0.82649690  0.91786070  0.14164693  1
  O2-  O430  1  0.82943228  0.92285877  0.47885818  1
  O2-  O431  1  0.82384432  0.89555402  0.81099075  1
  O2-  O432  1  0.15534115  0.07200920  0.18090951  1
  O2-  O433  1  0.16398041  0.08106051  0.51383667  1
  O2-  O434  1  0.18519885  0.13432793  0.85989831  1
  O2-  O435  1  0.16121824  0.32939879  0.19158163  1
  O2-  O436  1  0.13443312  0.31733260  0.52944883  1
  O2-  O437  1  0.21416640  0.40598355  0.88510139  1
  O2-  O438  1  0.16247636  0.57152910  0.17604874  1
  O2-  O439  1  0.16872004  0.59019048  0.51431822  1
  O2-  O440  1  0.17073999  0.59945892  0.85430293  1
  O2-  O441  1  0.17294788  0.84228486  0.17707003  1
  O2-  O442  1  0.16842043  0.84022641  0.52120835  1
  O2-  O443  1  0.15842948  0.82927804  0.84040831  1
  O2-  O444  1  0.42289865  0.08812167  0.19016765  1
  O2-  O445  1  0.41742153  0.08658059  0.52116259  1
  O2-  O446  1  0.41275082  0.06547693  0.86328072  1
  O2-  O447  1  0.41029574  0.32749083  0.18731222  1
  O2-  O448  1  0.40906414  0.33566585  0.52287803  1
  O2-  O449  1  0.43004527  0.34345071  0.85708281  1
  O2-  O450  1  0.41925340  0.57349619  0.19122927  1
  O2-  O451  1  0.42274854  0.59070654  0.51860895  1
  O2-  O452  1  0.41576968  0.58528891  0.84885887  1
  O2-  O453  1  0.43368622  0.86430025  0.18647374  1
  O2-  O454  1  0.42333265  0.84303843  0.52579982  1
  O2-  O455  1  0.40906282  0.83321364  0.85009258  1
  O2-  O456  1  0.65542162  0.06155336  0.24055566  1
  O2-  O457  1  0.67883104  0.08381342  0.52219539  1
  O2-  O458  1  0.66377752  0.07599984  0.86303569  1
  O2-  O459  1  0.66094717  0.33064080  0.18021963  1
  O2-  O460  1  0.68539058  0.32708777  0.52979136  1
  O2-  O461  1  0.67784057  0.35178278  0.86435901  1
  O2-  O462  1  0.69966389  0.63318204  0.20129834  1
  O2-  O463  1  0.66508254  0.60189828  0.52048411  1
  O2-  O464  1  0.66496136  0.58272683  0.85192506  1
  O2-  O465  1  0.66265063  0.82621698  0.18586521  1
  O2-  O466  1  0.66352713  0.85206479  0.51843238  1
  O2-  O467  1  0.65972533  0.82127552  0.85106889  1
  O2-  O468  1  0.90715075  0.08151837  0.18828630  1
  O2-  O469  1  0.92154383  0.10235996  0.50601984  1
  O2-  O470  1  0.91703869  0.05935403  0.84222607  1
  O2-  O471  1  0.91114827  0.33676984  0.19007793  1
  O2-  O472  1  0.94287408  0.35239758  0.51059187  1
  O2-  O473  1  0.89878499  0.32348884  0.86372921  1
  O2-  O474  1  0.93402942  0.59478287  0.19085181  1
  O2-  O475  1  0.90629204  0.58780032  0.53265510  1
  O2-  O476  1  0.90932659  0.57986233  0.85065965  1
  O2-  O477  1  0.90526595  0.82571126  0.18821123  1
  O2-  O478  1  0.91830183  0.83945060  0.52353022  1
  O2-  O479  1  0.91136126  0.81949969  0.84594167  1
  O2-  O480  1  0.17089928  0.05751907  0.30716307  1
  O2-  O481  1  0.16345878  0.06322713  0.63147332  1
  O2-  O482  1  0.16208484  0.08168345  0.98084418  1
  O2-  O483  1  0.16769350  0.35451288  0.31540198  1
  O2-  O484  1  0.17799503  0.34835085  0.64742227  1
  O2-  O485  1  0.16107524  0.32113553  0.98720729  1
  O2-  O486  1  0.16799642  0.58051553  0.29779566  1
  O2-  O487  1  0.15077410  0.58599993  0.63701204  1
  O2-  O488  1  0.17986043  0.59437657  0.97997643  1
  O2-  O489  1  0.17948155  0.83854917  0.30165838  1
  O2-  O490  1  0.16490796  0.85295452  0.64636087  1
  O2-  O491  1  0.19646134  0.81586210  0.96289228  1
  O2-  O492  1  0.42344739  0.08399748  0.30991788  1
  O2-  O493  1  0.41966486  0.09334245  0.64522294  1
  O2-  O494  1  0.41246436  0.05850263  0.98375070  1
  O2-  O495  1  0.41459533  0.32995118  0.31046365  1
  O2-  O496  1  0.42204677  0.32349771  0.64660116  1
  O2-  O497  1  0.41975185  0.33200409  0.98350250  1
  O2-  O498  1  0.42696545  0.58127843  0.30976102  1
  O2-  O499  1  0.44758111  0.53581526  0.62850355  1
  O2-  O500  1  0.41921891  0.56748911  0.97932762  1
  O2-  O501  1  0.41753248  0.83148991  0.31510915  1
  O2-  O502  1  0.41902962  0.85046986  0.64847216  1
  O2-  O503  1  0.35074210  0.82819529  0.96190512  1
  O2-  O504  1  0.66018280  0.06793845  0.30793186  1
  O2-  O505  1  0.65254698  0.07948477  0.64383584  1
  O2-  O506  1  0.65203932  0.06861477  0.99020915  1
  O2-  O507  1  0.65524144  0.32257661  0.30787533  1
  O2-  O508  1  0.66325627  0.32369776  0.65502879  1
  O2-  O509  1  0.67526888  0.34452084  0.97725560  1
  O2-  O510  1  0.67099981  0.58480507  0.32185785  1
  O2-  O511  1  0.63432962  0.56908496  0.63800639  1
  O2-  O512  1  0.68906159  0.58626569  0.97606787  1
  O2-  O513  1  0.66559007  0.83404638  0.31194602  1
  O2-  O514  1  0.65724847  0.83552257  0.64571587  1
  O2-  O515  1  0.66076458  0.80453882  0.97684198  1
  O2-  O516  1  0.90942328  0.07953284  0.31046515  1
  O2-  O517  1  0.90339183  0.06949232  0.64029213  1
  O2-  O518  1  0.92697248  0.07759459  0.96165869  1
  O2-  O519  1  0.91903206  0.33810569  0.31095974  1
  O2-  O520  1  0.91238931  0.33702415  0.62918384  1
  O2-  O521  1  0.89816973  0.31831658  0.98285073  1
  O2-  O522  1  0.92954701  0.59150042  0.31707545  1
  O2-  O523  1  0.88727299  0.56588803  0.65025412  1
  O2-  O524  1  0.92153645  0.58709873  0.97435911  1
  O2-  O525  1  0.91576378  0.82874440  0.31316987  1
  O2-  O526  1  0.90519449  0.82346486  0.64594420  1
  O2-  O527  1  0.91148018  0.83372462  0.97220096  1
  O2-  O528  1  0.07905342  0.15989339  0.02914659  1
  O2-  O529  1  0.07476903  0.18137919  0.35462939  1
  O2-  O530  1  0.07428165  0.17637144  0.68117015  1
  O2-  O531  1  0.06260172  0.37557952  0.02508630  1
  O2-  O532  1  0.08089204  0.42579668  0.35255604  1
  O2-  O533  1  0.08621822  0.41812467  0.65157156  1
  O2-  O534  1  0.08285010  0.66766325  0.02152279  1
  O2-  O535  1  0.10377235  0.66901971  0.34086290  1
  O2-  O536  1  0.05420086  0.63537014  0.68662239  1
  O2-  O537  1  0.07212607  0.90975277  0.01444571  1
  O2-  O538  1  0.08256804  0.90248375  0.35187506  1
  O2-  O539  1  0.06328136  0.90775922  0.69008360  1
  O2-  O540  1  0.33621847  0.16038625  -0.02037542  1
  O2-  O541  1  0.33968576  0.16275382  0.35086388  1
  O2-  O542  1  0.33070711  0.16831166  0.68429313  1
  O2-  O543  1  0.32374467  0.40182836  0.02677237  1
  O2-  O544  1  0.33772525  0.41830479  0.35009726  1
  O2-  O545  1  0.32535306  0.41904500  0.68912271  1
  O2-  O546  1  0.33955571  0.70278817  0.02025255  1
  O2-  O547  1  0.33683835  0.65072309  0.34522008  1
  O2-  O548  1  0.31369737  0.68830152  0.69092040  1
  O2-  O549  1  0.36867103  0.97686250  0.01064021  1
  O2-  O550  1  0.33986521  0.92046955  0.35446329  1
  O2-  O551  1  0.33426051  0.93183144  0.68828727  1
  O2-  O552  1  0.56153277  0.20942281  0.02724154  1
  O2-  O553  1  0.58752102  0.16685138  0.35504371  1
  O2-  O554  1  0.57921697  0.16118591  0.69330113  1
  O2-  O555  1  0.58356520  0.41960265  0.02116965  1
  O2-  O556  1  0.58104900  0.41332908  0.35383983  1
  O2-  O557  1  0.59254098  0.41870261  0.68883825  1
  O2-  O558  1  0.57078977  0.63882235  0.03675988  1
  O2-  O559  1  0.58858708  0.67113167  0.35583260  1
  O2-  O560  1  0.58407493  0.66478485  0.68667736  1
  O2-  O561  1  0.58700153  0.90176541  0.01732036  1
  O2-  O562  1  0.58732104  0.92040300  0.35323118  1
  O2-  O563  1  0.58007419  0.92064885  0.69303563  1
  O2-  O564  1  0.80774596  0.16646978  0.03065066  1
  O2-  O565  1  0.82817351  0.16521216  0.34453056  1
  O2-  O566  1  0.81707013  0.15289750  0.62157361  1
  O2-  O567  1  0.83940248  0.42477902  0.02031297  1
  O2-  O568  1  0.81982216  0.41403119  0.32822667  1
  O2-  O569  1  0.82914840  0.40799402  0.69192782  1
  O2-  O570  1  0.84468055  0.67069774  0.01636252  1
  O2-  O571  1  0.83546402  0.66410313  0.36165962  1
  O2-  O572  1  0.80574696  0.65537843  0.68461251  1
  O2-  O573  1  0.82873733  0.91453364  0.01160419  1
  O2-  O574  1  0.83297488  0.91380946  0.35328227  1
  O2-  O575  1  0.81844357  0.90324134  0.69245922  1
