# generated using pymatgen
data_H2O
_symmetry_space_group_name_H-M   'P 1'
_cell_length_a   17.96195777
_cell_length_b   17.97254405
_cell_length_c   21.96789725
_cell_angle_alpha   90.01370826
_cell_angle_beta   89.95497778
_cell_angle_gamma   120.02767222
_symmetry_Int_Tables_number   1
_chemical_formula_structural   H2O
_chemical_formula_sum   'H384 O192'
_cell_volume   6139.89634480
_cell_formula_units_Z   192
loop_
 _symmetry_equiv_pos_site_id
 _symmetry_equiv_pos_as_xyz
  1  'x, y, z'
loop_
 _atom_type_symbol
 _atom_type_oxidation_number
  H+  1.0
  O2-  -2.0
loop_
 _atom_site_type_symbol
 _atom_site_label
 _atom_site_symmetry_multiplicity
 _atom_site_fract_x
 _atom_site_fract_y
 _atom_site_fract_z
 _atom_site_occupancy
  H+  H0  1  0.78426156  0.89172118  1.00527510  1
  H+  H1  1  0.05221575  0.65995612  0.29097228  1
  H+  H2  1  0.47943585  0.12261199  0.99191695  1
  H+  H3  1  0.16822065  0.88166607  0.33331863  1
  H+  H4  1  0.60671678  0.22963679  0.66706879  1
  H+  H5  1  -0.00227037  0.65630305  0.48416057  1
  H+  H6  1  0.48592719  0.61065794  0.83129119  1
  H+  H7  1  0.60875784  0.37469609  0.84731145  1
  H+  H8  1  0.74276284  0.36129024  0.17267579  1
  H+  H9  1  0.83455438  0.69316943  0.41815922  1
  H+  H10  1  0.64184923  0.78109809  0.32575374  1
  H+  H11  1  0.96170069  0.86550149  0.68272360  1
  H+  H12  1  0.76526724  0.63392710  0.67644541  1
  H+  H13  1  0.10432221  0.93010620  0.73828979  1
  H+  H14  1  0.86395200  0.38073235  0.49274539  1
  H+  H15  1  0.16891480  0.08588461  1.08698519  1
  H+  H16  1  0.58412266  0.12104962  0.33556526  1
  H+  H17  1  0.87723576  0.78961722  0.25494310  1
  H+  H18  1  0.16283089  0.80220471  0.84152969  1
  H+  H19  1  0.12524961  0.10375474  0.66417734  1
  H+  H20  1  0.64395976  0.02433503  0.16584341  1
  H+  H21  1  0.02677844  0.14908769  0.01634492  1
  H+  H22  1  0.74116207  0.64248234  0.33258217  1
  H+  H23  1  0.91472754  0.48002902  0.79884498  1
  H+  H24  1  0.33846166  0.30771591  0.81382358  1
  H+  H25  1  0.04117279  0.64322663  0.15752788  1
  H+  H26  1  0.62299273  0.89579394  1.00369992  1
  H+  H27  1  0.74923805  0.88420311  0.84057883  1
  H+  H28  1  0.97749597  0.09815814  0.33079341  1
  H+  H29  1  0.35709067  0.72694473  0.49221268  1
  H+  H30  1  0.12901475  0.74079903  0.00657951  1
  H+  H31  1  0.86249946  0.51879450  0.86373295  1
  H+  H32  1  0.65963363  0.12874552  0.82772543  1
  H+  H33  1  0.85857798  -0.02976811  0.49767740  1
  H+  H34  1  0.40988806  0.31128078  0.92598419  1
  H+  H35  1  0.66022253  1.03836057  0.82838457  1
  H+  H36  1  0.38289419  0.65478397  0.82271878  1
  H+  H37  1  0.38357907  0.27291416  0.49848511  1
  H+  H38  1  0.60708394  0.63840491  0.48507497  1
  H+  H39  1  0.70450466  0.00684651  0.54524770  1
  H+  H40  1  0.98195413  0.35925349  0.49804815  1
  H+  H41  1  0.87174370  0.13156833  0.83208490  1
  H+  H42  1  0.36997659  0.39178708  0.48439460  1
  H+  H43  1  0.75995185  0.62589742  0.83515481  1
  H+  H44  1  0.79282702  0.89069575  0.14846064  1
  H+  H45  1  0.60207804  0.14037089  0.49403378  1
  H+  H46  1  0.28729662  0.15559622  0.15902269  1
  H+  H47  1  0.87861813  0.63894842  0.14800086  1
  H+  H48  1  0.59823646  0.47388163  0.67163764  1
  H+  H49  1  0.38584260  0.27117011  0.99129421  1
  H+  H50  1  0.14669894  0.03766457  0.31228886  1
  H+  H51  1  0.12564848  1.02276198  0.51187947  1
  H+  H52  1  0.40334108  1.05931193  0.83202430  1
  H+  H53  1  0.51364383  0.86270363  0.32993255  1
  H+  H54  1  0.64281518  0.35598998  0.31663222  1
  H+  H55  1  0.12518578  -0.01331588  0.67225229  1
  H+  H56  1  0.84070573  0.16022888  0.43369652  1
  H+  H57  1  0.26467308  0.12598575  0.68989533  1
  H+  H58  1  0.60850615  0.98029191  0.66834827  1
  H+  H59  1  0.87759805  0.51252256  0.50470820  1
  H+  H60  1  0.35219800  0.98153185  0.50090941  1
  H+  H61  1  0.53388211  0.63916456  0.16116223  1
  H+  H62  1  0.15090054  0.32514352  0.75047853  1
  H+  H63  1  0.08697293  0.40784621  0.39633182  1
  H+  H64  1  0.50621541  0.13564591  0.34541636  1
  H+  H65  1  0.90043896  0.26752806  0.17016230  1
  H+  H66  1  0.61794182  0.64651259  0.33451809  1
  H+  H67  1  0.17707029  0.09582968  0.21500066  1
  H+  H68  1  0.58123717  0.80473782  0.87923265  1
  H+  H69  1  0.40982843  0.88970670  0.83018829  1
  H+  H70  1  0.09207880  0.61039667  0.82267330  1
  H+  H71  1  0.14485536  0.52607422  0.18678357  1
  H+  H72  1  0.33787462  0.41650641  0.09159660  1
  H+  H73  1  0.36604488  0.14158784  0.00473892  1
  H+  H74  1  0.21442603  0.87201469  0.51389431  1
  H+  H75  1  0.23861350  0.60821648  0.51359956  1
  H+  H76  1  0.36825327  0.98869696  0.00762549  1
  H+  H77  1  0.76663617  0.35830585  0.33692374  1
  H+  H78  1  0.50378764  0.09240947  0.18425720  1
  H+  H79  1  0.68374406  0.33666168  0.93325185  1
  H+  H80  1  0.36756322  0.62655696  0.33778315  1
  H+  H81  1  0.16403777  0.54230026  0.83791036  1
  H+  H82  1  0.63618377  0.51879820  0.99655931  1
  H+  H83  1  0.62751429  0.74918360  0.83576405  1
  H+  H84  1  0.59918911  0.95794663  0.48516126  1
  H+  H85  1  0.88404346  0.37602331  0.98201544  1
  H+  H86  1  0.23536037  0.87245093  0.17553637  1
  H+  H87  1  0.67967779  0.32208031  0.23016019  1
  H+  H88  1  0.14387836  0.62172406  0.99051915  1
  H+  H89  1  0.36055688  0.38291096  -0.00679096  1
  H+  H90  1  0.12733699  0.49172446  0.33233393  1
  H+  H91  1  0.58767499  0.16541275  0.09657507  1
  H+  H92  1  1.01190989  0.12718343  0.67672102  1
  H+  H93  1  0.38917049  0.52654221  0.49980426  1
  H+  H94  1  0.37176667  0.62720396  0.14673452  1
  H+  H95  1  0.40345374  0.28644346  0.17042625  1
  H+  H96  1  0.92269045  0.07809426  0.56343319  1
  H+  H97  1  0.42234945  0.58470883  0.22473752  1
  H+  H98  1  0.88193370  0.56146268  0.41219380  1
  H+  H99  1  0.36347848  0.23429605  0.33620942  1
  H+  H100  1  0.35936535  0.88793137  0.66979468  1
  H+  H101  1  0.86933492  0.60942400  0.85141299  1
  H+  H102  1  0.88140859  0.38979320  0.16113953  1
  H+  H103  1  0.13650652  0.27794082  0.98652025  1
  H+  H104  1  0.22101307  0.38209931  0.82666974  1
  H+  H105  1  0.65023549  0.11622479  0.16432110  1
  H+  H106  1  0.91334495  0.84067795  0.78214505  1
  H+  H107  1  0.75849893  0.88694070  0.67368854  1
  H+  H108  1  0.38307092  0.83420170  0.30913707  1
  H+  H109  1  0.59600960  0.17518624  0.76133887  1
  H+  H110  1  0.14853430  0.60284560  0.51904936  1
  H+  H111  1  0.62851142  0.86443733  0.65482458  1
  H+  H112  1  0.89205712  0.10382834  0.18211718  1
  H+  H113  1  0.42360591  0.09781756  0.93145436  1
  H+  H114  1  0.11943960  0.38091278  0.49050546  1
  H+  H115  1  1.00447580  0.61430475  0.82885687  1
  H+  H116  1  0.09483529  0.21815090  0.32283738  1
  H+  H117  1  0.12140535  0.68362791  0.56383966  1
  H+  H118  1  0.15470079  0.14721322  0.16757247  1
  H+  H119  1  0.16001395  0.05332850  0.83625589  1
  H+  H120  1  0.15175813  0.87426691  0.99363191  1
  H+  H121  1  0.59076342  0.92853498  0.06005631  1
  H+  H122  1  0.12383621  0.24946573  0.17476120  1
  H+  H123  1  0.49951887  0.03324801  0.23788330  1
  H+  H124  1  0.36089474  0.02333407  0.33346638  1
  H+  H125  1  0.33256828  0.18500038  0.73901565  1
  H+  H126  1  0.58567758  0.99671135  0.31090492  1
  H+  H127  1  0.88816354  0.12337474  -0.00054674  1
  H+  H128  1  0.37678231  0.39370111  0.15069660  1
  H+  H129  1  0.86166573  0.23374931  0.64161763  1
  H+  H130  1  0.03211254  0.89554809  0.00190108  1
  H+  H131  1  0.47758689  0.61097078  0.98994579  1
  H+  H132  1  0.71299674  0.36153623  0.65633964  1
  H+  H133  1  0.62437674  0.85483586  0.49774879  1
  H+  H134  1  0.38671604  0.61435645  0.50334115  1
  H+  H135  1  0.14226105  0.26921595  0.50229669  1
  H+  H136  1  0.22812554  0.86753799  0.66487410  1
  H+  H137  1  0.07809233  0.64395187  0.56185413  1
  H+  H138  1  0.11032206  0.71903507  0.67628101  1
  H+  H139  1  0.90523106  0.57685135  0.56180504  1
  H+  H140  1  0.58858430  0.45057441  0.84735227  1
  H+  H141  1  0.90077476  0.86733347  0.16518101  1
  H+  H142  1  0.37670997  0.11608405  0.50870046  1
  H+  H143  1  0.46399538  0.60642583  0.65841312  1
  H+  H144  1  0.92418032  0.59864098  0.94220182  1
  H+  H145  1  0.76682598  0.14523397  1.00121873  1
  H+  H146  1  0.25349577  0.37979891  0.17998224  1
  H+  H147  1  0.51816228  0.13917716  0.67335961  1
  H+  H148  1  0.35950369  -0.02182709  0.67058293  1
  H+  H149  1  0.40937063  0.79956316  0.83174561  1
  H+  H150  1  0.91292085  0.36353629  0.81702290  1
  H+  H151  1  -0.00909800  0.35617053  0.17510974  1
  H+  H152  1  0.03868528  0.90320202  0.82431818  1
  H+  H153  1  0.89376247  0.87244279  0.98899567  1
  H+  H154  1  0.85710058  0.44464220  0.34046164  1
  H+  H155  1  -0.06133400  0.80623193  0.37728612  1
  H+  H156  1  0.34941519  0.38055990  0.66645227  1
  H+  H157  1  0.72634412  0.60775957  -0.00217655  1
  H+  H158  1  0.27366933  0.61665975  0.34052265  1
  H+  H159  1  0.52304023  0.88130392  0.15241860  1
  H+  H160  1  0.11139633  0.12905072  0.83123683  1
  H+  H161  1  0.87044007  0.01551912  0.85134482  1
  H+  H162  1  0.88233290  -0.02136602  0.16137050  1
  H+  H163  1  0.37802274  0.10796220  0.67334143  1
  H+  H164  1  0.39805062  0.52534217  0.16445482  1
  H+  H165  1  0.76408817  0.88342522  0.49223993  1
  H+  H166  1  0.11894429  0.98502539  0.02078398  1
  H+  H167  1  1.02549543  0.37563609  0.33657811  1
  H+  H168  1  0.46477738  0.11492924  0.51027240  1
  H+  H169  1  0.91195473  0.08358527  0.90815198  1
  H+  H170  1  0.23421166  0.12690791  0.31756143  1
  H+  H171  1  0.88196195  0.28908027  -0.03541662  1
  H+  H172  1  0.28796526  0.87878404  0.35021665  1
  H+  H173  1  0.88579203  0.97318025  0.34929853  1
  H+  H174  1  0.68082231  0.84219234  0.09259846  1
  H+  H175  1  0.88585517  0.22898581  0.81425790  1
  H+  H176  1  0.84762850  0.63136060  0.50157125  1
  H+  H177  1  0.62835828  0.27933852  0.50280365  1
  H+  H178  1  0.88933930  0.03416046  0.99943519  1
  H+  H179  1  0.84827740  0.72122590  0.51330687  1
  H+  H180  1  0.51853149  0.37969127  -0.00865160  1
  H+  H181  1  0.04011945  0.90111150  0.45394847  1
  H+  H182  1  0.54505564  0.15207886  0.82438632  1
  H+  H183  1  0.86342545  0.12104495  0.34700448  1
  H+  H184  1  0.62982302  0.61769964  0.65940838  1
  H+  H185  1  0.85392758  0.38670780  0.66132682  1
  H+  H186  1  0.78074228  0.14115558  0.82407136  1
  H+  H187  1  0.81919895  0.65007166  0.77508385  1
  H+  H188  1  0.40555294  0.33553371  0.59950440  1
  H+  H189  1  0.77978692  0.12533678  0.49320293  1
  H+  H190  1  -0.01399019  0.11696083  0.18446119  1
  H+  H191  1  0.62386434  0.22522426  0.15602025  1
  H+  H192  1  0.60144867  0.42408920  0.23372037  1
  H+  H193  1  0.14108093  0.61932276  0.18617920  1
  H+  H194  1  0.13091820  0.88875680  0.67453291  1
  H+  H195  1  0.86656790  0.48702822  1.01347537  1
  H+  H196  1  0.61251219  0.63534798  0.00728245  1
  H+  H197  1  0.88784331  0.34143341  0.32544840  1
  H+  H198  1  0.64317717  0.02964068  0.98512809  1
  H+  H199  1  -0.07986541  0.90423109  0.37092240  1
  H+  H200  1  0.38209638  0.84422580  0.16065277  1
  H+  H201  1  0.22882695  0.11852696  1.02924525  1
  H+  H202  1  0.14123144  0.59073760  0.34220411  1
  H+  H203  1  0.01123431  0.39233943  -0.02668449  1
  H+  H204  1  0.12951218  0.90719383  0.83109192  1
  H+  H205  1  0.26558531  0.13647760  0.49242934  1
  H+  H206  1  0.89195323  0.26951840  0.49960686  1
  H+  H207  1  0.36357006  0.64405680  0.66613180  1
  H+  H208  1  -0.03302383  0.61086302  0.65604057  1
  H+  H209  1  0.74326158  0.62283274  0.16875516  1
  H+  H210  1  0.36139652  0.62038626  0.99799689  1
  H+  H211  1  0.02588827  0.87769460  0.15414895  1
  H+  H212  1  0.38992916  0.51937145  0.98463233  1
  H+  H213  1  0.65692076  0.53452254  0.18301311  1
  H+  H214  1  0.35745558  0.14229406  0.33516087  1
  H+  H215  1  0.82760188  0.16575898  0.59016997  1
  H+  H216  1  0.62780450  0.90039024  0.82467120  1
  H+  H217  1  0.61557391  0.88808354  0.14770942  1
  H+  H218  1  0.26965546  0.62313726  0.00148571  1
  H+  H219  1  0.83645497  0.88172376  0.83140505  1
  H+  H220  1  0.09518115  0.88997255  0.50715528  1
  H+  H221  1  0.13230792  0.52738759  0.98128904  1
  H+  H222  1  0.14658159  0.40287485  0.18623640  1
  H+  H223  1  0.62657476  0.48523070  0.32160380  1
  H+  H224  1  0.87110074  0.21284580  0.34272152  1
  H+  H225  1  0.61156389  0.88527648  0.33439937  1
  H+  H226  1  0.87674616  1.02201791  0.66142711  1
  H+  H227  1  0.89259322  0.10891077  0.50427790  1
  H+  H228  1  0.29755550  0.66069202  0.82524218  1
  H+  H229  1  1.00541814  0.11492686  0.83413718  1
  H+  H230  1  0.71660567  0.11955217  0.64857784  1
  H+  H231  1  0.38064068  0.96146662  0.16745374  1
  H+  H232  1  0.46034722  0.30930476  0.83891881  1
  H+  H233  1  0.45967092  0.85884237  0.49908088  1
  H+  H234  1  0.96460266  0.63652409  0.32133280  1
  H+  H235  1  0.38446913  0.77719933  0.65511822  1
  H+  H236  1  0.85252366  0.47490550  0.66583757  1
  H+  H237  1  0.48534909  0.88511677  0.98720958  1
  H+  H238  1  0.60012603  0.72722136  0.66948139  1
  H+  H239  1  0.37035760  0.14550895  0.16658094  1
  H+  H240  1  0.63178778  0.39182137  0.17799314  1
  H+  H241  1  0.64893614  0.77559082  0.14561256  1
  H+  H242  1  0.24289836  0.87669133  0.99568683  1
  H+  H243  1  0.02493286  0.13654588  0.48913130  1
  H+  H244  1  0.37849450  0.74422264  0.31734034  1
  H+  H245  1  0.39518821  0.52671471  0.31876977  1
  H+  H246  1  0.61972553  0.52114716  0.49779334  1
  H+  H247  1  0.13495650  0.36396555  0.97406532  1
  H+  H248  1  0.66011610  0.27902681  0.83624579  1
  H+  H249  1  0.64409737  0.77481386  -0.00188376  1
  H+  H250  1  0.27984695  0.38881939  0.48493020  1
  H+  H251  1  0.33093845  0.66248130  0.43442438  1
  H+  H252  1  0.90390838  0.52863450  0.17001794  1
  H+  H253  1  0.12129056  0.46989127  0.49315397  1
  H+  H254  1  0.62556318  0.11743773  0.65442740  1
  H+  H255  1  0.71921317  0.36378105  0.50486331  1
  H+  H256  1  0.61874103  0.23034432  0.00355179  1
  H+  H257  1  0.27309261  0.38622499  0.99320619  1
  H+  H258  1  0.95440370  0.84995602  0.53273003  1
  H+  H259  1  0.49235954  0.37523868  0.17972987  1
  H+  H260  1  0.29841475  0.91866593  0.82747389  1
  H+  H261  1  0.13529808  0.11562252  0.50792227  1
  H+  H262  1  0.64185145  0.36312381  -0.01261857  1
  H+  H263  1  0.47160732  0.86811751  0.65460976  1
  H+  H264  1  0.10098201  0.21533423  0.69275824  1
  H+  H265  1  0.59544069  0.38486483  0.66891335  1
  H+  H266  1  0.87956163  0.77062644  0.83191382  1
  H+  H267  1  0.78033447  0.12951743  0.16407072  1
  H+  H268  1  0.37422742  0.90285675  0.00358435  1
  H+  H269  1  0.36577436  0.46445428  0.82065923  1
  H+  H270  1  0.46174728  0.36495666  0.65961088  1
  H+  H271  1  0.97016387  0.36547091  0.65237368  1
  H+  H272  1  0.48300162  0.61798985  0.31891307  1
  H+  H273  1  0.87689687  0.74030174  0.00118702  1
  H+  H274  1  0.10246676  0.38089146  0.68741839  1
  H+  H275  1  0.62935021  0.26081216  0.32623856  1
  H+  H276  1  0.87152813  0.67079190  0.36141877  1
  H+  H277  1  0.89134478  0.64769125  0.00314548  1
  H+  H278  1  0.74688229  0.36905215  0.83683445  1
  H+  H279  1  0.34851877  0.88984193  0.49457345  1
  H+  H280  1  0.12265787  0.88025312  0.15444122  1
  H+  H281  1  0.11737033  0.50419460  0.66731647  1
  H+  H282  1  0.08309573  0.79878802  0.31005178  1
  H+  H283  1  0.63121515  0.60885167  0.84583638  1
  H+  H284  1  0.86590578  0.84605302  0.52719291  1
  H+  H285  1  0.87829653  0.61207672  0.65951646  1
  H+  H286  1  -0.00705578  0.63559304  0.00036865  1
  H+  H287  1  0.02703188  0.87619272  0.34733342  1
  H+  H288  1  0.29348876  0.92432853  0.41212361  1
  H+  H289  1  0.23246728  0.15477789  0.83705003  1
  H+  H290  1  0.91876285  0.34246963  0.58886938  1
  H+  H291  1  0.56958837  0.40022982  0.05329558  1
  H+  H292  1  0.94411274  0.60787403  0.21887811  1
  H+  H293  1  0.05965389  0.40752878  0.03465992  1
  H+  H294  1  0.58827392  0.92283943  0.72768457  1
  H+  H295  1  0.42026657  0.33801076  0.26369110  1
  H+  H296  1  0.87384374  0.86669734  0.69264612  1
  H+  H297  1  0.08639398  0.17007448  0.42999577  1
  H+  H298  1  0.61349989  0.13932368  -0.00035091  1
  H+  H299  1  0.41840220  0.15563205  0.84287100  1
  H+  H300  1  0.84843468  0.42118405  0.10398395  1
  H+  H301  1  0.12207186  0.60376255  0.66298351  1
  H+  H302  1  0.91481722  0.06136115  0.27384346  1
  H+  H303  1  0.41575857  0.06994557  0.27375347  1
  H+  H304  1  0.16205806  0.57749748  0.25477141  1
  H+  H305  1  0.15412568  0.33397070  0.87830155  1
  H+  H306  1  0.10199910  0.67982824  0.06584905  1
  H+  H307  1  0.42744185  0.58369511  0.89031897  1
  H+  H308  1  0.57099654  0.16287222  0.43272155  1
  H+  H309  1  0.58101311  0.67201613  0.39225373  1
  H+  H310  1  0.69216570  0.60931320  0.26851260  1
  H+  H311  1  0.16146499  0.83811470  0.60721181  1
  H+  H312  1  0.92332345  0.31865252  0.26565590  1
  H+  H313  1  0.85051696  0.67893259  0.06515587  1
  H+  H314  1  0.34664048  0.93852663  0.76399864  1
  H+  H315  1  0.16523959  0.57124925  0.60626730  1
  H+  H316  1  0.51963874  0.64047595  0.48640327  1
  H+  H317  1  0.56547772  0.90217740  0.42382036  1
  H+  H318  1  0.41033962  0.57902488  0.59680260  1
  H+  H319  1  0.85274568  0.72109036  0.69087149  1
  H+  H320  1  0.18622506  0.85407829  0.90364278  1
  H+  H321  1  0.06112552  0.14294799  0.76720530  1
  H+  H322  1  0.32379970  0.16656237  0.43147935  1
  H+  H323  1  0.33970278  0.91977910  0.10183551  1
  H+  H324  1  0.63239138  0.77106010  0.50028676  1
  H+  H325  1  0.65798806  0.58627325  0.60055382  1
  H+  H326  1  0.40673190  0.08890583  0.60761245  1
  H+  H327  1  0.63113461  0.06476523  0.25655655  1
  H+  H328  1  0.21972826  0.36540855  0.24887731  1
  H+  H329  1  0.84897426  0.91355459  0.41640647  1
  H+  H330  1  0.53540653  0.39566522  0.31876978  1
  H+  H331  1  0.80692745  0.92163556  0.73766910  1
  H+  H332  1  0.07749897  0.68150940  0.44169464  1
  H+  H333  1  0.16007645  0.08097251  0.60263541  1
  H+  H334  1  0.68808253  0.85001343  0.27383541  1
  H+  H335  1  0.81160874  0.53559639  0.36222466  1
  H+  H336  1  0.16553205  0.85386178  0.23054534  1
  H+  H337  1  0.21406691  0.35551417  0.69363773  1
  H+  H338  1  0.77805903  0.39661896  0.00987657  1
  H+  H339  1  0.42970737  0.86201403  0.92739309  1
  H+  H340  1  0.82378745  0.22371943  0.04497069  1
  H+  H341  1  0.85114716  0.92448649  0.06188527  1
  H+  H342  1  0.65828288  0.83173460  0.59637276  1
  H+  H343  1  0.34728879  0.68264542  0.72617120  1
  H+  H344  1  0.34655512  0.46973685  0.66707711  1
  H+  H345  1  0.34133113  0.42481282  0.39489380  1
  H+  H346  1  0.36589741  0.71439930  0.14267900  1
  H+  H347  1  0.06792873  0.64710563  0.72977635  1
  H+  H348  1  0.71263833  0.60660877  0.50205233  1
  H+  H349  1  0.84024879  0.14996182  0.10609769  1
  H+  H350  1  0.40553525  0.83409586  0.56126142  1
  H+  H351  1  0.35157067  0.17833538  0.06749273  1
  H+  H352  1  0.12712171  0.43140443  0.12370760  1
  H+  H353  1  0.33390676  0.64859695  0.07147958  1
  H+  H354  1  0.18125390  0.33103604  0.55979709  1
  H+  H355  1  0.41123983  0.80720300  0.21630668  1
  H+  H356  1  0.82807502  0.39892410  0.43265933  1
  H+  H357  1  0.65896579  0.57835839  0.90553841  1
  H+  H358  1  0.66491603  0.06117158  0.56916453  1
  H+  H359  1  0.92310949  0.84185656  0.92978867  1
  H+  H360  1  0.88428981  0.11372465  0.64767508  1
  H+  H361  1  0.12955087  0.73285058  0.16530775  1
  H+  H362  1  0.05178511  0.40802367  0.73234406  1
  H+  H363  1  0.54462321  0.91026989  0.82176371  1
  H+  H364  1  0.18032163  0.59947577  0.89600322  1
  H+  H365  1  0.39499431  0.36849628  0.32449143  1
  H+  H366  1  0.57409559  0.67212842  0.73035987  1
  H+  H367  1  0.08588257  0.90675749  0.08901029  1
  H+  H368  1  0.87908998  0.72899851  0.15133192  1
  H+  H369  1  0.65541485  0.33389036  0.59614219  1
  H+  H370  1  0.22731658  0.32686231  0.35188565  1
  H+  H371  1  0.32790808  0.41212332  0.75928085  1
  H+  H372  1  0.67002813  0.83400450  0.93920295  1
  H+  H373  1  0.84384287  0.41612692  0.75400544  1
  H+  H374  1  0.11916961  0.78950951  0.50910951  1
  H+  H375  1  0.08790411  0.19560805  0.11206517  1
  H+  H376  1  0.62547045  0.64144455  0.16169067  1
  H+  H377  1  0.06966834  0.37047081  0.82319448  1
  H+  H378  1  0.11441501  0.14853510  0.02923630  1
  H+  H379  1  0.53144415  0.35549226  0.51885237  1
  H+  H380  1  0.67559955  0.09160905  0.92579394  1
  H+  H381  1  0.58276765  0.66389651  0.06641851  1
  H+  H382  1  0.12127315  0.14522029  0.32733323  1
  H+  H383  1  0.67181762  0.71000861  0.78945630  1
  O2-  O384  1  0.09023456  0.19073962  0.15746803  1
  O2-  O385  1  0.08639685  0.17000071  0.47511254  1
  O2-  O386  1  0.06431478  0.14540425  0.81413871  1
  O2-  O387  1  0.11299002  0.42890354  0.16683066  1
  O2-  O388  1  0.08957692  0.41140900  0.47512091  1
  O2-  O389  1  0.03273938  0.39326273  0.80666695  1
  O2-  O390  1  0.10490653  0.67276208  0.14985314  1
  O2-  O391  1  0.04596806  0.70531888  0.46214981  1
  O2-  O392  1  0.04319852  0.60841158  0.79992578  1
  O2-  O393  1  0.08704148  0.90604525  0.13643848  1
  O2-  O394  1  0.05893394  0.91605908  0.49681586  1
  O2-  O395  1  0.09980451  0.93582449  0.81150979  1
  O2-  O396  1  0.35018456  0.18096898  0.14723565  1
  O2-  O397  1  0.32612089  0.16810059  0.47685627  1
  O2-  O398  1  0.33636547  0.25079312  0.81155545  1
  O2-  O399  1  0.34316413  0.42142316  0.13693159  1
  O2-  O400  1  0.33949400  0.42186773  0.46854888  1
  O2-  O401  1  0.32572844  0.40605911  0.80502047  1
  O2-  O402  1  0.33795893  0.65283327  0.12830403  1
  O2-  O403  1  0.33025757  0.66469440  0.47986382  1
  O2-  O404  1  0.35746574  0.69036511  0.80987071  1
  O2-  O405  1  0.33547939  0.90826727  0.14694781  1
  O2-  O406  1  0.31727029  0.92140839  0.48438699  1
  O2-  O407  1  0.35635304  0.94902549  0.80884130  1
  O2-  O408  1  0.59305229  0.16409743  0.14188298  1
  O2-  O409  1  0.57017661  0.16704709  0.47854492  1
  O2-  O410  1  0.60403083  0.17611360  0.80676463  1
  O2-  O411  1  0.60242818  0.42524435  0.18789093  1
  O2-  O412  1  0.50240496  0.37246450  0.48853488  1
  O2-  O413  1  0.56167833  0.38765975  0.85072630  1
  O2-  O414  1  0.59399054  0.66949310  0.14459761  1
  O2-  O415  1  0.57989158  0.67168232  0.46981420  1
  O2-  O416  1  0.61707595  0.69184173  0.80990390  1
  O2-  O417  1  0.58412030  0.91936916  0.13940887  1
  O2-  O418  1  0.56295690  0.89874551  0.46965990  1
  O2-  O419  1  0.60576973  0.93695965  0.80651352  1
  O2-  O420  1  0.84275492  0.15705296  0.15061133  1
  O2-  O421  1  0.84081617  0.16182818  0.48077577  1
  O2-  O422  1  0.84633760  0.16442027  0.81002088  1
  O2-  O423  1  0.85245239  0.42275250  0.14947351  1
  O2-  O424  1  0.83275254  0.41001429  0.47733221  1
  O2-  O425  1  0.86273912  0.42304131  0.79838485  1
  O2-  O426  1  0.84833838  0.66993548  0.13309269  1
  O2-  O427  1  0.81975646  0.66499489  0.48915294  1
  O2-  O428  1  0.82165381  0.65611911  0.82060228  1
  O2-  O429  1  0.85636047  0.92062159  0.14119140  1
  O2-  O430  1  0.82700555  0.90997341  0.48154497  1
  O2-  O431  1  0.80834068  0.91628727  0.82339869  1
  O2-  O432  1  0.18494956  0.11330601  0.17156024  1
  O2-  O433  1  0.16299136  0.08407651  0.52516316  1
  O2-  O434  1  0.17360778  0.11111362  0.85039184  1
  O2-  O435  1  0.20004169  0.35690011  0.20597535  1
  O2-  O436  1  0.17590544  0.33143698  0.51561228  1
  O2-  O437  1  0.15793225  0.35325439  0.83557578  1
  O2-  O438  1  0.16629576  0.58504892  0.20607733  1
  O2-  O439  1  0.17852176  0.57276380  0.53208957  1
  O2-  O440  1  0.18229764  0.60115836  0.85023632  1
  O2-  O441  1  0.17220008  0.84304453  0.18687950  1
  O2-  O442  1  0.15498726  0.84445748  0.53167680  1
  O2-  O443  1  0.18650924  0.86029144  0.85768579  1
  O2-  O444  1  0.46159407  0.04546791  0.21159050  1
  O2-  O445  1  0.40487415  0.08498393  0.52635666  1
  O2-  O446  1  0.43973815  0.11584746  0.85251042  1
  O2-  O447  1  0.42854203  0.34668116  0.18541966  1
  O2-  O448  1  0.41415876  0.33464522  0.51369012  1
  O2-  O449  1  0.40402159  0.25807114  0.85341154  1
  O2-  O450  1  0.42633876  0.58633582  0.17913089  1
  O2-  O451  1  0.41907935  0.58569046  0.51719447  1
  O2-  O452  1  0.42593218  0.58345136  0.84486864  1
  O2-  O453  1  0.41403479  0.81346473  0.17111129  1
  O2-  O454  1  0.39971517  0.83113667  0.51557252  1
  O2-  O455  1  0.44128477  0.86085671  0.84537619  1
  O2-  O456  1  0.67769895  0.08424092  0.18201461  1
  O2-  O457  1  0.68377823  0.04454044  0.53043636  1
  O2-  O458  1  0.69265059  0.10032125  0.84309933  1
  O2-  O459  1  0.68096760  0.32874806  0.18488197  1
  O2-  O460  1  0.65912269  0.33857852  0.51920277  1
  O2-  O461  1  0.68941082  0.33753503  0.85541914  1
  O2-  O462  1  0.68657303  0.59841513  0.18922168  1
  O2-  O463  1  0.65048478  0.57956034  0.51426416  1
  O2-  O464  1  0.65701157  0.57424725  0.86025250  1
  O2-  O465  1  0.68190224  0.83959277  0.13709442  1
  O2-  O466  1  0.66049483  0.83221079  0.51543395  1
  O2-  O467  1  0.64028764  0.82222105  0.86753508  1
  O2-  O468  1  0.92523238  0.07608211  0.19658731  1
  O2-  O469  1  0.92232050  0.07690845  0.51787932  1
  O2-  O470  1  0.90930158  0.07807976  0.86226467  1
  O2-  O471  1  0.92911365  0.32803997  0.18545052  1
  O2-  O472  1  0.92132464  0.33100660  0.51312684  1
  O2-  O473  1  0.94383693  0.33144494  0.82744447  1
  O2-  O474  1  0.93418146  0.59315572  0.17510671  1
  O2-  O475  1  0.90208783  0.57461528  0.51612282  1
  O2-  O476  1  0.89997958  0.58048447  0.87093415  1
  O2-  O477  1  0.92985885  0.83200768  0.17594060  1
  O2-  O478  1  0.89302093  0.81475130  0.54465595  1
  O2-  O479  1  0.91143066  0.83469701  0.82768985  1
  O2-  O480  1  0.17396766  0.09731960  0.29876738  1
  O2-  O481  1  0.15660478  0.07487670  0.64836618  1
  O2-  O482  1  0.16648868  0.08694468  1.04206098  1
  O2-  O483  1  0.25116406  0.38234542  0.33076453  1
  O2-  O484  1  0.15061275  0.32316469  0.70544489  1
  O2-  O485  1  0.16640009  0.33341774  0.96381782  1
  O2-  O486  1  0.16381401  0.56117656  0.31765791  1
  O2-  O487  1  0.14982755  0.56743741  0.65119821  1
  O2-  O488  1  0.17163866  0.59021365  0.97326585  1
  O2-  O489  1  0.11906713  0.86149509  0.30476323  1
  O2-  O490  1  0.16438439  0.83873279  0.65330832  1
  O2-  O491  1  0.18174296  0.84383870  0.97882574  1
  O2-  O492  1  0.40126235  0.08052809  0.31561181  1
  O2-  O493  1  0.41092609  0.08357184  0.65249650  1
  O2-  O494  1  0.41874384  0.09358742  0.97682104  1
  O2-  O495  1  0.42365752  0.33687215  0.30922599  1
  O2-  O496  1  0.40073450  0.33587836  0.64402610  1
  O2-  O497  1  0.41527044  0.32817470  0.96958229  1
  O2-  O498  1  0.42205368  0.58692900  0.30321845  1
  O2-  O499  1  0.40419369  0.57638291  0.64203508  1
  O2-  O500  1  0.41909283  0.58104093  0.97102212  1
  O2-  O501  1  0.41055238  0.80209476  0.29577089  1
  O2-  O502  1  0.41140658  0.83880641  0.63932002  1
  O2-  O503  1  0.42576822  0.86164831  0.97242238  1
  O2-  O504  1  0.58657884  0.04609182  0.28899365  1
  O2-  O505  1  0.65410940  0.08411294  0.63994949  1
  O2-  O506  1  0.67198766  0.09130947  0.97093621  1
  O2-  O507  1  0.66932560  0.31952164  0.30913373  1
  O2-  O508  1  0.65256283  0.32991116  0.64185432  1
  O2-  O509  1  0.67863252  0.33736436  0.97878166  1
  O2-  O510  1  0.68451812  0.60411408  0.31375236  1
  O2-  O511  1  0.66349229  0.59047157  0.64541051  1
  O2-  O512  1  0.66616710  0.58097422  0.98454331  1
  O2-  O513  1  0.67355652  0.84422363  0.31691496  1
  O2-  O514  1  0.65861618  0.83255780  0.64185155  1
  O2-  O515  1  0.67780960  0.83665299  0.98560198  1
  O2-  O516  1  0.91587121  0.05998324  0.31960224  1
  O2-  O517  1  0.91485920  0.08033574  0.64343901  1
  O2-  O518  1  0.91944147  0.09495300  0.98426582  1
  O2-  O519  1  0.92445385  0.31765834  0.31102403  1
  O2-  O520  1  0.91147120  0.33939000  0.63438643  1
  O2-  O521  1  0.91223628  0.35108774  0.95673686  1
  O2-  O522  1  0.87394751  0.56409327  0.36818040  1
  O2-  O523  1  0.90693041  0.58190718  0.64074258  1
  O2-  O524  1  0.92970657  0.60660922  0.98826782  1
  O2-  O525  1  0.93464534  0.83656606  0.24338252  1
  O2-  O526  1  0.90626463  0.83647123  0.70378837  1
  O2-  O527  1  0.92338422  0.83988466  0.97448694  1
  O2-  O528  1  0.08595972  0.18382450  0.03301279  1
  O2-  O529  1  0.08543133  0.16810124  0.34632830  1
  O2-  O530  1  0.06977527  0.15088245  0.69701785  1
  O2-  O531  1  0.07187633  0.41818796  -0.00868511  1
  O2-  O532  1  0.08703339  0.40971199  0.35080453  1
  O2-  O533  1  0.06975802  0.41310987  0.68824291  1
  O2-  O534  1  0.09470726  0.67935593  0.02095262  1
  O2-  O535  1  0.00531155  0.67255057  0.28912530  1
  O2-  O536  1  0.07785725  0.65636801  0.68450844  1
  O2-  O537  1  0.08993906  0.91990110  0.02106349  1
  O2-  O538  1  -0.01477454  0.86838040  0.37941747  1
  O2-  O539  1  0.10122832  0.92522257  0.69177500  1
  O2-  O540  1  0.33797553  0.17289873  0.02323134  1
  O2-  O541  1  0.32728437  0.17296847  0.34997754  1
  O2-  O542  1  0.31261962  0.13207007  0.71518066  1
  O2-  O543  1  0.33289478  0.41487000  0.01002626  1
  O2-  O544  1  0.34326660  0.42344802  0.34804063  1
  O2-  O545  1  0.31735456  0.40988091  0.68363689  1
  O2-  O546  1  0.32974651  0.64756424  0.01807302  1
  O2-  O547  1  0.33406497  0.65381582  0.35416578  1
  O2-  O548  1  0.34076610  0.68091158  0.68137004  1
  O2-  O549  1  0.34022679  0.92839759  0.02321802  1
  O2-  O550  1  0.27989132  0.92431414  0.36724616  1
  O2-  O551  1  0.32795210  0.91713086  0.68607456  1
  O2-  O552  1  0.58481574  0.16937642  0.01777597  1
  O2-  O553  1  0.56807377  0.16066789  0.35669688  1
  O2-  O554  1  0.58079656  0.16940158  0.68414578  1
  O2-  O555  1  0.57856617  0.40956790  0.00952888  1
  O2-  O556  1  0.59868224  0.42333549  0.31104089  1
  O2-  O557  1  0.56340364  0.41298774  0.68348676  1
  O2-  O558  1  0.58257695  0.66653198  0.02087570  1
  O2-  O559  1  0.58347110  0.67376438  0.34649846  1
  O2-  O560  1  0.57049575  0.66692494  0.68540375  1
  O2-  O561  1  0.59593001  0.93062500  0.01471523  1
  O2-  O562  1  0.57034223  0.90526729  0.34719395  1
  O2-  O563  1  0.58127415  0.91943842  0.68247868  1
  O2-  O564  1  0.82667334  0.18049178  0.01969233  1
  O2-  O565  1  0.83932585  0.15586785  0.36305749  1
  O2-  O566  1  0.82986262  0.16937292  0.63461287  1
  O2-  O567  1  0.83896862  0.42615002  0.02566898  1
  O2-  O568  1  0.82734528  0.38451443  0.35352837  1
  O2-  O569  1  0.82379486  0.41438507  0.68116093  1
  O2-  O570  1  0.85169192  0.67931283  0.01760881  1
  O2-  O571  1  0.84870217  0.70817083  0.37331121  1
  O2-  O572  1  0.82379962  0.65766512  0.69534157  1
  O2-  O573  1  0.84714245  0.92526631  0.01642447  1
  O2-  O574  1  0.86996045  0.91590386  0.37126002  1
  O2-  O575  1  0.81688448  0.92027066  0.69334797  1
