# generated using pymatgen
data_H2O
_symmetry_space_group_name_H-M   'P 1'
_cell_length_a   17.99108525
_cell_length_b   17.99059905
_cell_length_c   22.00426366
_cell_angle_alpha   89.99149787
_cell_angle_beta   89.98681272
_cell_angle_gamma   120.03065013
_symmetry_Int_Tables_number   1
_chemical_formula_structural   H2O
_chemical_formula_sum   'H384 O192'
_cell_volume   6166.03820051
_cell_formula_units_Z   192
loop_
 _symmetry_equiv_pos_site_id
 _symmetry_equiv_pos_as_xyz
  1  'x, y, z'
loop_
 _atom_type_symbol
 _atom_type_oxidation_number
  H+  1.0
  O2-  -2.0
loop_
 _atom_site_type_symbol
 _atom_site_label
 _atom_site_symmetry_multiplicity
 _atom_site_fract_x
 _atom_site_fract_y
 _atom_site_fract_z
 _atom_site_occupancy
  H+  H0  1  0.74558425  0.12249025  0.01380692  1
  H+  H1  1  0.23483034  0.86807273  0.99417156  1
  H+  H2  1  0.32361811  0.65358996  0.10455290  1
  H+  H3  1  0.86167048  0.72078938  -0.00260374  1
  H+  H4  1  0.66026605  0.65961472  0.33877412  1
  H+  H5  1  0.46537221  0.60739042  0.17263915  1
  H+  H6  1  0.64196480  0.37440312  0.99143471  1
  H+  H7  1  0.63202200  0.98318871  0.66477051  1
  H+  H8  1  0.46744195  0.84916328  0.17449115  1
  H+  H9  1  0.15665333  0.75401975  0.82478419  1
  H+  H10  1  0.39105204  0.75839619  0.84604874  1
  H+  H11  1  0.36126964  0.03404026  0.63952322  1
  H+  H12  1  0.22418890  0.11460149  0.84668877  1
  H+  H13  1  0.39230416  0.02417946  0.31610100  1
  H+  H14  1  0.74842802  0.60941032  0.50889766  1
  H+  H15  1  0.73098166  0.85749377  0.49023194  1
  H+  H16  1  0.55265231  0.88830348  0.66527768  1
  H+  H17  1  0.06572132  0.35568494  0.50038478  1
  H+  H18  1  0.16383008  0.62422264  0.84158746  1
  H+  H19  1  0.36701209  0.88656450  0.15914684  1
  H+  H20  1  0.13226446  0.09364069  0.33052366  1
  H+  H21  1  0.88516430  0.14312578  0.34530900  1
  H+  H22  1  0.90360599  0.38705895  0.17418748  1
  H+  H23  1  0.14476476  0.86754440  0.99150431  1
  H+  H24  1  0.60035029  0.63304676  0.17008062  1
  H+  H25  1  0.93060706  0.35075980  0.23252340  1
  H+  H26  1  0.62013730  0.96850406  0.01925337  1
  H+  H27  1  0.14024806  0.11531694  0.50283581  1
  H+  H28  1  0.89677217  0.83093669  0.22923626  1
  H+  H29  1  0.12086518  0.98020881  0.00232337  1
  H+  H30  1  0.37004110  0.14206946  0.31635704  1
  H+  H31  1  0.10054375  0.35422165  0.15085237  1
  H+  H32  1  0.73799058  0.85594495  0.85334704  1
  H+  H33  1  0.48289903  0.61518405  0.99759143  1
  H+  H34  1  0.88302138  0.85262064  0.50424089  1
  H+  H35  1  0.90819576  0.02759112  -0.01255607  1
  H+  H36  1  0.64332502  0.07504992  0.19665645  1
  H+  H37  1  0.62701162  0.14253484  0.33189714  1
  H+  H38  1  0.64481807  0.77367077  0.85057485  1
  H+  H39  1  0.61123953  0.11364975  -0.00518519  1
  H+  H40  1  0.87568795  0.71431918  0.67148893  1
  H+  H41  1  0.88774115  0.38622674  0.67121696  1
  H+  H42  1  0.09761924  0.43374223  0.73642380  1
  H+  H43  1  0.12524509  0.26109887  0.49780108  1
  H+  H44  1  0.64648456  0.27919726  0.48885687  1
  H+  H45  1  0.21501577  0.36023719  0.35144428  1
  H+  H46  1  0.03530076  0.12930339  0.48621093  1
  H+  H47  1  0.22634702  0.61434882  0.50517067  1
  H+  H48  1  0.77062538  0.89940713  0.16291545  1
  H+  H49  1  0.14878524  0.87092071  0.16907363  1
  H+  H50  1  0.83699349  0.58915205  0.85123496  1
  H+  H51  1  0.24175758  0.88721860  0.48367898  1
  H+  H52  1  0.77758564  0.14193549  0.65762155  1
  H+  H53  1  0.71249757  0.10555804  0.47685731  1
  H+  H54  1  0.98336670  0.61317735  0.66191758  1
  H+  H55  1  0.86928791  0.47101844  0.00933237  1
  H+  H56  1  0.96628903  0.09080809  0.82878336  1
  H+  H57  1  0.35110092  0.62799991  0.33308016  1
  H+  H58  1  0.39142700  0.53769271  0.66152892  1
  H+  H59  1  0.88751003  0.39217055  0.48746550  1
  H+  H60  1  0.88145544  0.99634012  0.83055595  1
  H+  H61  1  0.83600005  0.66261590  0.73411153  1
  H+  H62  1  0.12530683  0.28566397  0.37507729  1
  H+  H63  1  0.11337409  0.73104402  0.15678910  1
  H+  H64  1  0.59290810  0.26527821  0.14810186  1
  H+  H65  1  0.80221241  0.84802828  0.78443734  1
  H+  H66  1  0.47995072  0.11899389  0.84003230  1
  H+  H67  1  0.64926830  0.78148298  0.00212823  1
  H+  H68  1  0.89719618  0.51995468  0.50474888  1
  H+  H69  1  0.35520867  0.38181789  0.15797137  1
  H+  H70  1  -0.04765828  0.83591470  0.32314031  1
  H+  H71  1  0.22634557  0.89639661  0.66119637  1
  H+  H72  1  0.63277511  0.88738234  0.48115430  1
  H+  H73  1  0.37848358  0.83911669  0.83642540  1
  H+  H74  1  0.67659153  0.58091219  0.24465955  1
  H+  H75  1  0.12237456  0.76852834  0.49648793  1
  H+  H76  1  0.10379601  0.88709053  0.48424530  1
  H+  H77  1  0.18370402  0.84341942  0.90602106  1
  H+  H78  1  0.76495776  0.63867146  0.82603953  1
  H+  H79  1  0.77611250  0.12729442  0.81233214  1
  H+  H80  1  0.13516439  0.36057783  0.99010788  1
  H+  H81  1  0.10914419  0.91210662  0.68487856  1
  H+  H82  1  0.96095571  0.10132733  0.65516837  1
  H+  H83  1  0.20657405  0.33814930  0.15842236  1
  H+  H84  1  0.84189823  0.19737063  0.01053377  1
  H+  H85  1  0.52473076  0.38988324  0.00949560  1
  H+  H86  1  0.87060721  0.96995566  0.48789184  1
  H+  H87  1  0.11897440  0.72697542  0.00616244  1
  H+  H88  1  0.10919545  0.63817314  0.34090013  1
  H+  H89  1  0.63398013  0.85147520  0.32274005  1
  H+  H90  1  0.58484051  0.42332616  0.06860362  1
  H+  H91  1  0.30086905  0.88312444  0.64154750  1
  H+  H92  1  0.13365150  0.27073340  0.83762185  1
  H+  H93  1  0.36742938  0.21811894  0.53126228  1
  H+  H94  1  0.52701583  0.13973685  0.67009180  1
  H+  H95  1  0.63829389  0.28441123  0.98819267  1
  H+  H96  1  0.64252723  0.16714709  0.16574633  1
  H+  H97  1  0.22517835  0.10796593  0.52143791  1
  H+  H98  1  0.88392699  0.47317869  0.67336090  1
  H+  H99  1  0.90756307  0.25339299  0.49512517  1
  H+  H100  1  0.39323253  1.03059626  0.83484640  1
  H+  H101  1  0.36378768  0.38475990  0.82872238  1
  H+  H102  1  0.86522270  0.62671801  0.49992677  1
  H+  H103  1  0.86127307  0.38176099  0.33746632  1
  H+  H104  1  0.43138032  0.88005720  0.64630080  1
  H+  H105  1  0.37106840  0.76327777  0.32587081  1
  H+  H106  1  0.33367818  0.43502057  0.73863146  1
  H+  H107  1  0.10075091  0.96118554  0.32826169  1
  H+  H108  1  0.57248076  0.94149671  0.75700845  1
  H+  H109  1  0.38729422  0.27567428  0.84576310  1
  H+  H110  1  0.22517131  0.12207741  0.17449782  1
  H+  H111  1  0.85899167  0.72212423  0.83287037  1
  H+  H112  1  0.73277415  0.08070141  0.18508725  1
  H+  H113  1  0.52585878  0.13645217  0.47586459  1
  H+  H114  1  0.37557454  0.62332483  0.83602680  1
  H+  H115  1  0.98625858  0.12009983  0.17628706  1
  H+  H116  1  0.36458480  0.13873909  0.68695773  1
  H+  H117  1  0.09826303  0.46284706  0.00638860  1
  H+  H118  1  0.59138265  0.49174175  0.68054579  1
  H+  H119  1  0.12232764  0.52310503  0.33465309  1
  H+  H120  1  0.86460324  0.47317285  0.33674855  1
  H+  H121  1  0.62423601  0.38963972  0.48695977  1
  H+  H122  1  0.27502322  0.38915861  1.00300574  1
  H+  H123  1  0.03023224  0.07564041  0.11738641  1
  H+  H124  1  0.26706958  0.61978854  0.01361557  1
  H+  H125  1  0.54143642  0.88024712  0.48770063  1
  H+  H126  1  0.76460953  0.93354759  0.01295115  1
  H+  H127  1  0.52598521  0.63314325  0.82626329  1
  H+  H128  1  0.96951987  0.85198770  0.85196328  1
  H+  H129  1  0.58778936  0.16923038  0.38609444  1
  H+  H130  1  0.12849674  0.85732695  0.31961231  1
  H+  H131  1  0.08914008  0.16721065  0.06292090  1
  H+  H132  1  0.85651353  0.73197041  0.16282098  1
  H+  H133  1  0.37905981  0.50685810  0.50485999  1
  H+  H134  1  0.34892488  0.46696268  0.15863890  1
  H+  H135  1  0.48672952  0.36658351  0.66089291  1
  H+  H136  1  0.07837250  0.21321810  0.67173988  1
  H+  H137  1  0.61708047  0.64078928  0.00977102  1
  H+  H138  1  0.71679390  0.35254342  0.83238071  1
  H+  H139  1  0.24145063  0.60736243  0.84925965  1
  H+  H140  1  0.87827459  0.34395615  0.00066427  1
  H+  H141  1  0.90739807  0.11493273  0.49827614  1
  H+  H142  1  0.12193048  0.47922843  0.83017362  1
  H+  H143  1  0.61202581  0.13301824  0.47923759  1
  H+  H144  1  0.69009986  0.53402111  0.33010308  1
  H+  H145  1  0.04117137  0.40699327  0.67552277  1
  H+  H146  1  0.63035490  0.85040124  0.17349652  1
  H+  H147  1  0.39452716  0.52378569  0.99613315  1
  H+  H148  1  0.38334199  0.12057935  -0.00561081  1
  H+  H149  1  0.10558838  0.97656377  0.48799458  1
  H+  H150  1  0.63277870  0.52515976  0.99409257  1
  H+  H151  1  0.14600580  0.12040988  0.99810786  1
  H+  H152  1  0.62873936  1.03878533  0.83423743  1
  H+  H153  1  0.86527620  0.13236901  0.16980989  1
  H+  H154  1  0.10723219  0.76908437  0.65183467  1
  H+  H155  1  0.11261189  0.35647655  0.65815412  1
  H+  H156  1  0.87214084  0.97341929  0.66947222  1
  H+  H157  1  0.82665871  -0.04673580  0.10620757  1
  H+  H158  1  0.36410412  0.13027278  0.51523999  1
  H+  H159  1  0.87480310  0.85389041  0.32677058  1
  H+  H160  1  0.87660779  0.86976643  0.17090235  1
  H+  H161  1  0.37570959  0.85533091  0.32347147  1
  H+  H162  1  0.10963434  0.72763572  0.33688546  1
  H+  H163  1  0.97150726  0.60455898  0.32562623  1
  H+  H164  1  0.73644851  0.36539582  0.49421774  1
  H+  H165  1  0.82344316  0.16534977  0.51607157  1
  H+  H166  1  0.35393308  0.46816993  0.34182891  1
  H+  H167  1  0.15056322  0.53970133  0.65834016  1
  H+  H168  1  0.26514092  0.65697509  0.67428856  1
  H+  H169  1  0.35891278  0.62700641  1.01225096  1
  H+  H170  1  0.98330182  0.61153640  0.99386360  1
  H+  H171  1  0.64814223  0.28257772  0.67573453  1
  H+  H172  1  0.35985456  0.38302539  0.34132863  1
  H+  H173  1  0.38884372  0.02813100  0.16617935  1
  H+  H174  1  0.13259527  -0.01364939  0.15775937  1
  H+  H175  1  0.35961063  0.14047390  0.16072292  1
  H+  H176  1  0.07299405  0.66363105  0.81864858  1
  H+  H177  1  1.04347487  0.13594337  0.99644702  1
  H+  H178  1  0.36494861  0.70428198  0.48702789  1
  H+  H179  1  0.86055867  0.63141331  1.00004914  1
  H+  H180  1  0.87454962  0.10329335  0.64681453  1
  H+  H181  1  0.60839086  0.72446949  0.16360017  1
  H+  H182  1  0.38539597  0.27648330  0.17259576  1
  H+  H183  1  0.27516458  0.14186245  0.00715524  1
  H+  H184  1  0.90234089  0.27168510  0.64839260  1
  H+  H185  1  0.61340159  0.51876366  0.19199810  1
  H+  H186  1  0.10293300  0.39203914  0.35867929  1
  H+  H187  1  0.12981815  0.11068041  0.16822622  1
  H+  H188  1  0.48298805  0.37300977  0.32414280  1
  H+  H189  1  0.26973375  0.12086462  0.68680158  1
  H+  H190  1  0.48536980  0.11188466  0.31668171  1
  H+  H191  1  0.14245721  0.27562854  0.99130847  1
  H+  H192  1  0.09280225  0.13205981  0.67056522  1
  H+  H193  1  0.39424021  0.78069411  0.66005157  1
  H+  H194  1  0.61018957  0.47615392  0.83189483  1
  H+  H195  1  0.13181171  0.60502249  0.99864938  1
  H+  H196  1  0.41964160  0.08721806  0.22557130  1
  H+  H197  1  0.08304120  0.92434753  0.78384739  1
  H+  H198  1  0.50446141  0.17399578  0.14539645  1
  H+  H199  1  0.43571642  0.33138173  0.56734424  1
  H+  H200  1  1.01021294  0.36933564  1.00566139  1
  H+  H201  1  0.47713012  0.36544848  0.84186688  1
  H+  H202  1  0.13647464  0.31553097  0.55790600  1
  H+  H203  1  0.63694576  0.77346929  0.48336938  1
  H+  H204  1  0.46449685  0.60477783  0.32139557  1
  H+  H205  1  0.24645558  0.88748561  0.84855519  1
  H+  H206  1  0.77115036  0.64190355  0.16448261  1
  H+  H207  1  0.37959105  0.01549854  0.48833408  1
  H+  H208  1  0.60866271  0.38584930  0.82508284  1
  H+  H209  1  0.39005460  0.35376477  0.51156182  1
  H+  H210  1  0.66395936  0.86766475  0.67255267  1
  H+  H211  1  0.73148320  0.37981429  0.17393087  1
  H+  H212  1  0.97683915  0.55944986  0.83326953  1
  H+  H213  1  0.36229430  0.13832072  0.83836857  1
  H+  H214  1  0.03277954  0.28987809  0.62571624  1
  H+  H215  1  0.86588213  0.48770000  0.16006897  1
  H+  H216  1  0.86106718  0.71484712  0.49780898  1
  H+  H217  1  0.96517363  0.85840366  0.65568188  1
  H+  H218  1  0.21422623  0.61164778  0.17614407  1
  H+  H219  1  0.89488347  0.86323913  0.99805653  1
  H+  H220  1  0.60934015  0.95119415  0.16998473  1
  H+  H221  1  0.11935681  0.24773407  0.15396935  1
  H+  H222  1  0.88497698  0.62036842  0.17438245  1
  H+  H223  1  0.52050995  0.39121772  0.16116703  1
  H+  H224  1  0.53833278  0.64456967  0.66926254  1
  H+  H225  1  0.23293036  0.86242518  0.17228070  1
  H+  H226  1  0.17001398  0.08873967  0.93736862  1
  H+  H227  1  0.21114241  0.16657331  0.64096304  1
  H+  H228  1  0.51338716  0.63209098  0.47609777  1
  H+  H229  1  0.58570970  0.66753603  0.07049680  1
  H+  H230  1  0.64085321  0.27658654  0.32255473  1
  H+  H231  1  0.62582474  0.39601197  0.33804598  1
  H+  H232  1  0.14332681  0.62630178  0.50756874  1
  H+  H233  1  -0.03378587  0.59048194  0.81763482  1
  H+  H234  1  0.10966960  0.13529135  0.82809391  1
  H+  H235  1  0.26547490  0.88652846  0.32388001  1
  H+  H236  1  0.61477052  0.40141599  0.16464513  1
  H+  H237  1  0.74658234  0.12561671  0.33793275  1
  H+  H238  1  0.73764733  0.36442457  0.67847418  1
  H+  H239  1  1.01587453  0.37983231  0.16030250  1
  H+  H240  1  0.36497367  0.23200554  0.00730085  1
  H+  H241  1  0.61333817  0.14236746  0.82710589  1
  H+  H242  1  0.11457942  0.00191264  0.68874911  1
  H+  H243  1  0.21448717  0.60778536  0.32877709  1
  H+  H244  1  0.56632206  0.02006111  0.96706858  1
  H+  H245  1  0.11805708  0.89194152  0.83866026  1
  H+  H246  1  0.41322370  0.84511013  0.49785523  1
  H+  H247  1  0.39545278  0.28092089  0.31787603  1
  H+  H248  1  0.13447152  0.02454720  0.84932029  1
  H+  H249  1  0.88771873  0.36261632  0.84691592  1
  H+  H250  1  0.38830313  0.36565565  0.99525331  1
  H+  H251  1  0.72362539  0.61264358  0.98709126  1
  H+  H252  1  0.35252922  0.61113598  0.48706472  1
  H+  H253  1  0.97439503  0.36716324  0.32899118  1
  H+  H254  1  0.89245357  0.27403987  0.32483289  1
  H+  H255  1  0.12478093  0.19822976  0.33535995  1
  H+  H256  1  0.87213394  0.98114461  0.33850414  1
  H+  H257  1  0.62033313  0.87969328  1.01095422  1
  H+  H258  1  0.64900204  0.77069438  0.31570182  1
  H+  H259  1  0.88999142  0.60329633  0.66374515  1
  H+  H260  1  0.59457988  0.62368916  0.28644488  1
  H+  H261  1  0.35354278  0.71610079  0.16258032  1
  H+  H262  1  0.63266188  0.61128718  0.83810681  1
  H+  H263  1  0.63564276  1.01268924  0.49140959  1
  H+  H264  1  0.80691873  0.70770140  0.33125029  1
  H+  H265  1  0.83603580  0.45683612  0.82810920  1
  H+  H266  1  0.12563202  0.64936399  0.66479428  1
  H+  H267  1  0.27867873  0.13643959  0.31838664  1
  H+  H268  1  0.26735441  0.42768464  0.68911471  1
  H+  H269  1  0.49842791  0.89187329  -0.01080075  1
  H+  H270  1  0.40436163  0.63033856  0.65094233  1
  H+  H271  1  -0.02742170  0.85660463  0.49812154  1
  H+  H272  1  0.51282392  0.86272222  0.33552514  1
  H+  H273  1  0.77632126  0.38771334  0.00643786  1
  H+  H274  1  0.51404961  0.90090507  0.81671843  1
  H+  H275  1  0.64764960  0.62249565  0.65660220  1
  H+  H276  1  0.29621948  0.72612217  0.72660170  1
  H+  H277  1  0.85266469  0.10719917  0.80889739  1
  H+  H278  1  0.26198708  0.37508572  0.49554574  1
  H+  H279  1  0.36258008  -0.01342992  1.00772383  1
  H+  H280  1  0.97913303  0.36914268  0.84756620  1
  H+  H281  1  0.41723693  0.57667402  0.55876126  1
  H+  H282  1  0.90915452  0.31863694  0.94046021  1
  H+  H283  1  1.03236017  0.88937928  1.00408256  1
  H+  H284  1  0.63273177  0.17268576  0.19833001  1
  H+  H285  1  0.31980287  0.87405787  0.47233445  1
  H+  H286  1  0.60603893  0.22733976  0.82383901  1
  H+  H287  1  0.67629325  0.57818712  0.57113969  1
  H+  H288  1  0.60004461  0.43175711  0.39600818  1
  H+  H289  1  0.33960961  0.91868772  0.09939451  1
  H+  H290  1  0.11731026  0.38803463  0.82619856  1
  H+  H291  1  0.32332963  0.65240162  0.39525134  1
  H+  H292  1  0.67964286  0.06768051  0.28805908  1
  H+  H293  1  0.93501735  0.09338941  0.27676299  1
  H+  H294  1  0.07602919  0.16158061  0.76820577  1
  H+  H295  1  0.89401627  0.03695821  0.18464502  1
  H+  H296  1  0.57310831  0.19621164  0.05935000  1
  H+  H297  1  0.84158565  0.91191770  0.42833067  1
  H+  H298  1  0.92328442  0.57703597  0.56589118  1
  H+  H299  1  0.67141354  0.83081520  0.23198704  1
  H+  H300  1  0.93938721  0.06010449  0.92044877  1
  H+  H301  1  0.66389466  0.09084815  0.89622116  1
  H+  H302  1  0.55787235  0.43406738  0.74001205  1
  H+  H303  1  0.91456674  0.57518997  0.26556296  1
  H+  H304  1  0.58013694  0.15742714  0.73151520  1
  H+  H305  1  0.87593565  0.85134280  0.84531641  1
  H+  H306  1  0.10746972  0.92762387  0.09761940  1
  H+  H307  1  0.30513702  0.21881357  0.40989430  1
  H+  H308  1  0.67205190  0.34843350  0.23389067  1
  H+  H309  1  0.31909689  0.92103103  0.38391048  1
  H+  H310  1  0.97489859  0.62093981  0.16970186  1
  H+  H311  1  0.33238901  0.17316954  0.10219337  1
  H+  H312  1  0.85846661  0.17871450  0.40300923  1
  H+  H313  1  0.86562293  0.92925268  0.73301072  1
  H+  H314  1  0.66666366  0.08503240  0.58791063  1
  H+  H315  1  0.05426861  0.81441029  0.63008199  1
  H+  H316  1  0.44790244  0.87394332  0.92626808  1
  H+  H317  1  0.83551510  0.42156267  0.10343486  1
  H+  H318  1  0.32915980  0.16622704  0.78081231  1
  H+  H319  1  0.15978755  0.09006802  0.59521248  1
  H+  H320  1  0.40143647  0.27459822  0.65831993  1
  H+  H321  1  0.10964877  0.68654595  0.72636400  1
  H+  H322  1  0.58684681  0.66572218  0.76669700  1
  H+  H323  1  0.34457329  0.93036600  0.74610825  1
  H+  H324  1  0.08566867  0.66937982  0.06669291  1
  H+  H325  1  0.27970615  0.22676285  0.43353535  1
  H+  H326  1  0.80587983  0.03408628  0.02940832  1
  H+  H327  1  0.27339142  0.38360266  0.82906323  1
  H+  H328  1  0.41180287  0.08770218  0.93482462  1
  H+  H329  1  0.90878184  0.57250049  0.94130529  1
  H+  H330  1  0.43253406  0.95049877  0.77786023  1
  H+  H331  1  0.37481319  0.60572520  0.17361542  1
  H+  H332  1  0.43151307  0.06774588  0.54645161  1
  H+  H333  1  0.64600541  0.51416419  0.50803365  1
  H+  H334  1  0.66316898  0.33402433  0.89448418  1
  H+  H335  1  0.34290222  0.65494482  0.77763372  1
  H+  H336  1  0.83422687  0.15889636  0.71783467  1
  H+  H337  1  0.53399162  0.38897530  0.49139953  1
  H+  H338  1  0.14255580  0.82938375  0.55590166  1
  H+  H339  1  0.38105437  0.11969730  0.60253327  1
  H+  H340  1  0.10892094  0.63977227  0.15978882  1
  H+  H341  1  0.56840432  0.65582356  0.41589342  1
  H+  H342  1  0.52001857  0.15189604  0.00001808  1
  H+  H343  1  0.06988256  0.90666103  0.38874609  1
  H+  H344  1  0.40529309  0.82331210  0.23220698  1
  H+  H345  1  0.05527333  0.41529035  0.41005422  1
  H+  H346  1  0.16298685  0.57489416  0.94037501  1
  H+  H347  1  0.92159549  0.07442175  0.55777644  1
  H+  H348  1  0.32480390  0.40362697  0.43840071  1
  H+  H349  1  0.62958327  0.73276653  0.67689380  1
  H+  H350  1  0.15824401  0.07256548  0.26501426  1
  H+  H351  1  0.94550572  0.33778040  0.59034864  1
  H+  H352  1  0.42019704  0.33744834  0.93627088  1
  H+  H353  1  0.33010844  0.41420549  0.06452134  1
  H+  H354  1  0.16306590  0.83022806  0.26040949  1
  H+  H355  1  0.17749312  0.59829442  0.59551418  1
  H+  H356  1  0.07146936  0.39602207  0.09184051  1
  H+  H357  1  0.93640997  0.81605997  0.58963410  1
  H+  H358  1  0.67513523  0.83566872  0.93902895  1
  H+  H359  1  0.16610758  0.33141762  0.89668056  1
  H+  H360  1  0.83459348  0.40663956  0.76695616  1
  H+  H361  1  0.84940505  0.41841572  0.43033708  1
  H+  H362  1  0.66071332  0.58337084  0.89984706  1
  H+  H363  1  0.40541869  0.57384818  0.26236402  1
  H+  H364  1  0.74774212  0.85888221  0.67153636  1
  H+  H365  1  0.78050042  0.51369570  0.89618643  1
  H+  H366  1  0.58029128  0.89878402  0.39058615  1
  H+  H367  1  0.39020717  0.51560715  0.84499831  1
  H+  H368  1  0.77925868  0.89314544  0.33547002  1
  H+  H369  1  0.57708836  0.89863652  0.10660414  1
  H+  H370  1  0.15257064  0.58532941  0.23345514  1
  H+  H371  1  0.37899014  0.90971182  0.00064402  1
  H+  H372  1  0.41724742  0.34054028  0.23020780  1
  H+  H373  1  0.09514183  0.15835934  0.42325172  1
  H+  H374  1  0.08281609  0.67140174  0.43020351  1
  H+  H375  1  0.81786931  0.14351338  0.11125879  1
  H+  H376  1  0.73092415  0.36510968  0.32821524  1
  H+  H377  1  0.42471105  0.57808190  0.90450807  1
  H+  H378  1  0.63742878  0.11100780  0.65011862  1
  H+  H379  1  0.43377573  0.81565602  0.56011341  1
  H+  H380  1  0.91644524  0.83029246  0.93615843  1
  H+  H381  1  0.02499706  0.63826764  0.49146679  1
  H+  H382  1  0.73183199  0.61245930  0.65987977  1
  H+  H383  1  -0.00546274  0.11202785  0.33706221  1
  O2-  O384  1  0.06684198  0.13420389  0.13197001  1
  O2-  O385  1  0.09638178  0.16364676  0.47272518  1
  O2-  O386  1  0.07807439  0.16441036  0.81336260  1
  O2-  O387  1  0.07474296  0.39296716  0.13806030  1
  O2-  O388  1  0.03746883  0.38966421  0.48987175  1
  O2-  O389  1  0.08991078  0.42133056  0.81111881  1
  O2-  O390  1  0.08031704  0.67082723  0.14098877  1
  O2-  O391  1  0.08553981  0.67432671  0.47637653  1
  O2-  O392  1  0.13290985  0.69578960  0.80492909  1
  O2-  O393  1  0.11449682  0.92771086  0.14214258  1
  O2-  O394  1  0.07373783  0.91787372  0.47008077  1
  O2-  O395  1  0.08307789  0.91885348  0.82888987  1
  O2-  O396  1  0.33191416  0.17429880  0.14757921  1
  O2-  O397  1  0.33606369  0.15463244  0.54076569  1
  O2-  O398  1  0.33001344  0.16790743  0.82617366  1
  O2-  O399  1  0.32135476  0.40777999  0.14139140  1
  O2-  O400  1  0.32358237  0.40257909  0.48386882  1
  O2-  O401  1  0.33442540  0.41682219  0.81472791  1
  O2-  O402  1  0.32356749  0.65426254  0.15063951  1
  O2-  O403  1  0.32555521  0.64540920  0.47215682  1
  O2-  O404  1  0.34401510  0.65498888  0.82226735  1
  O2-  O405  1  0.33978774  0.92027758  0.14468339  1
  O2-  O406  1  0.30251461  0.91664259  0.46565102  1
  O2-  O407  1  0.37191724  0.93409991  0.78572995  1
  O2-  O408  1  0.54812656  0.22235288  0.12069307  1
  O2-  O409  1  0.58718387  0.16786276  0.46362173  1
  O2-  O410  1  0.57680263  0.16548773  0.81041531  1
  O2-  O411  1  0.58190377  0.42893374  0.14874868  1
  O2-  O412  1  0.59431495  0.42347455  0.47646408  1
  O2-  O413  1  0.57623240  0.41616373  0.81584117  1
  O2-  O414  1  0.57378517  0.66316825  0.14931552  1
  O2-  O415  1  0.57175136  0.66845458  0.45922201  1
  O2-  O416  1  0.58676122  0.66510944  0.81225753  1
  O2-  O417  1  0.57140276  0.89258648  0.15184056  1
  O2-  O418  1  0.59845818  0.91859612  0.47002228  1
  O2-  O419  1  0.54632563  0.95433821  0.79280209  1
  O2-  O420  1  0.81853149  0.14337758  0.15608479  1
  O2-  O421  1  0.86846323  0.18594808  0.48532718  1
  O2-  O422  1  0.82730630  0.13888734  0.78869114  1
  O2-  O423  1  0.83621755  0.42495174  0.14867909  1
  O2-  O424  1  0.85353517  0.41992205  0.47606021  1
  O2-  O425  1  0.82123811  0.39984737  0.81147267  1
  O2-  O426  1  0.83130598  0.66920065  0.15271819  1
  O2-  O427  1  0.82919130  0.65233365  0.48760165  1
  O2-  O428  1  0.82645031  0.66357922  0.81301720  1
  O2-  O429  1  0.83114888  0.93848828  0.14913387  1
  O2-  O430  1  0.84051493  0.90895270  0.47394981  1
  O2-  O431  1  0.83232469  0.88665951  0.81815319  1
  O2-  O432  1  0.16472030  0.08673018  0.18858143  1
  O2-  O433  1  0.16138983  0.07886141  0.52489275  1
  O2-  O434  1  0.16286351  0.08698186  0.86011392  1
  O2-  O435  1  0.14463436  0.30712634  0.16914316  1
  O2-  O436  1  0.14494990  0.32123229  0.51333516  1
  O2-  O437  1  0.16657479  0.33221833  0.85101179  1
  O2-  O438  1  0.15363149  0.58920341  0.18855590  1
  O2-  O439  1  0.17198606  0.59764316  0.52732677  1
  O2-  O440  1  0.17971059  0.58405083  0.86034049  1
  O2-  O441  1  0.17194953  0.83333921  0.18596819  1
  O2-  O442  1  0.15026766  0.83142648  0.51110162  1
  O2-  O443  1  0.18680325  0.84722708  0.85909225  1
  O2-  O444  1  0.41399114  0.08878731  0.18027795  1
  O2-  O445  1  0.42230876  0.07407204  0.50322489  1
  O2-  O446  1  0.41830674  0.08696287  0.85504743  1
  O2-  O447  1  0.41538336  0.33879500  0.18476479  1
  O2-  O448  1  0.42548735  0.32741955  0.52138293  1
  O2-  O449  1  0.41659390  0.33720932  0.85841501  1
  O2-  O450  1  0.40511531  0.57416874  0.18822942  1
  O2-  O451  1  0.40979381  0.57008469  0.51394234  1
  O2-  O452  1  0.42327543  0.57724377  0.85856664  1
  O2-  O453  1  0.40574519  0.82351597  0.18665011  1
  O2-  O454  1  0.43411070  0.80917413  0.51490430  1
  O2-  O455  1  0.41623433  0.82108653  0.85531651  1
  O2-  O456  1  0.67254021  0.04267253  0.20450026  1
  O2-  O457  1  0.66265826  0.07648000  0.50354680  1
  O2-  O458  1  0.67013600  0.09624370  0.85146534  1
  O2-  O459  1  0.67079379  0.35418657  0.18868384  1
  O2-  O460  1  0.67449613  0.33926562  0.50323875  1
  O2-  O461  1  0.65715834  0.32861265  0.84921174  1
  O2-  O462  1  0.63374445  0.57499160  0.21344543  1
  O2-  O463  1  0.68100500  0.57553304  0.52473680  1
  O2-  O464  1  0.66329994  0.58124485  0.85419962  1
  O2-  O465  1  0.66856167  0.82712777  0.18613623  1
  O2-  O466  1  0.66902732  0.83302096  0.49975002  1
  O2-  O467  1  0.67724824  0.83140965  0.86895526  1
  O2-  O468  1  0.92953774  0.09762999  0.19894564  1
  O2-  O469  1  0.92882951  0.07645178  0.51244924  1
  O2-  O470  1  0.90600761  0.05763891  0.84341575  1
  O2-  O471  1  0.93893356  0.36152286  0.18784163  1
  O2-  O472  1  0.94907080  0.34102776  0.51479368  1
  O2-  O473  1  0.92254495  0.34157940  0.86767210  1
  O2-  O474  1  0.91520139  0.58800888  0.18609083  1
  O2-  O475  1  0.92399703  0.58056976  0.52064975  1
  O2-  O476  1  0.83532769  0.54004251  0.87486739  1
  O2-  O477  1  0.89936411  0.83269436  0.18434080  1
  O2-  O478  1  0.91481544  0.82259610  0.51789419  1
  O2-  O479  1  0.90915812  0.81941162  0.86578305  1
  O2-  O480  1  0.16188979  0.06475225  0.30988693  1
  O2-  O481  1  0.16833076  0.10541779  0.64101141  1
  O2-  O482  1  0.17399316  0.08724939  0.98271098  1
  O2-  O483  1  0.15161316  0.33434444  0.34703819  1
  O2-  O484  1  0.09153498  0.30191561  0.63448205  1
  O2-  O485  1  0.17034615  0.33602074  0.97437272  1
  O2-  O486  1  0.15322451  0.58158420  0.31603889  1
  O2-  O487  1  0.17894553  0.60017229  0.64285102  1
  O2-  O488  1  0.15653342  0.56862766  0.98526345  1
  O2-  O489  1  0.16322641  0.83038203  0.30644025  1
  O2-  O490  1  0.11458299  0.82451662  0.63463265  1
  O2-  O491  1  0.17523801  0.83657380  0.97654829  1
  O2-  O492  1  0.42484325  0.08454052  0.30131708  1
  O2-  O493  1  0.40545889  0.09436154  0.63137031  1
  O2-  O494  1  0.41357470  0.08924975  0.98000264  1
  O2-  O495  1  0.42296328  0.34466618  0.30936825  1
  O2-  O496  1  0.45151251  0.31380940  0.63436138  1
  O2-  O497  1  0.42013401  0.33594691  0.98186758  1
  O2-  O498  1  0.40436225  0.57385702  0.30865147  1
  O2-  O499  1  0.42771182  0.59391809  0.63927942  1
  O2-  O500  1  0.42361733  0.58383866  0.97993629  1
  O2-  O501  1  0.40483135  0.82331509  0.31010668  1
  O2-  O502  1  0.43875409  0.83148589  0.63588018  1
  O2-  O503  1  0.46477556  0.91013123  0.96339618  1
  O2-  O504  1  0.68438680  0.09539161  0.32768378  1
  O2-  O505  1  0.66972287  0.08384629  0.63282950  1
  O2-  O506  1  0.62395582  0.06917864  0.97696738  1
  O2-  O507  1  0.67077861  0.33909704  0.31166826  1
  O2-  O508  1  0.67602247  0.34506049  0.68015681  1
  O2-  O509  1  0.67198768  0.34541588  0.97340469  1
  O2-  O510  1  0.73628280  0.58630284  0.30775710  1
  O2-  O511  1  0.67359365  0.58759836  0.64142113  1
  O2-  O512  1  0.66012018  0.58448613  0.97673696  1
  O2-  O513  1  0.67543200  0.83281403  0.30666357  1
  O2-  O514  1  0.68612382  0.82988722  0.65971502  1
  O2-  O515  1  0.67499230  0.84113437  0.98569823  1
  O2-  O516  1  0.93196220  0.08768431  0.32210077  1
  O2-  O517  1  0.90440062  0.07117543  0.63385314  1
  O2-  O518  1  0.96011329  0.05590053  0.96149433  1
  O2-  O519  1  0.91641978  0.33414264  0.30953971  1
  O2-  O520  1  0.94473506  0.33244016  0.63639810  1
  O2-  O521  1  0.90531607  0.31040084  0.98612598  1
  O2-  O522  1  0.91229896  0.56764788  0.31048085  1
  O2-  O523  1  0.92388725  0.57786684  0.64648238  1
  O2-  O524  1  0.92024057  0.57586109  0.98544846  1
  O2-  O525  1  0.89080415  0.81092167  0.31196642  1
  O2-  O526  1  0.95609511  0.80884831  0.63134590  1
  O2-  O527  1  0.92450059  0.83420319  0.98268335  1
  O2-  O528  1  0.09956256  0.17689342  0.01692588  1
  O2-  O529  1  0.08868211  0.14727994  0.35959705  1
  O2-  O530  1  0.05894455  0.15529929  0.68993188  1
  O2-  O531  1  0.07171998  0.40158464  0.02007052  1
  O2-  O532  1  0.06924462  0.42198600  0.36595114  1
  O2-  O533  1  0.10149365  0.43843100  0.69049305  1
  O2-  O534  1  0.08696029  0.66656570  0.02057752  1
  O2-  O535  1  0.07973616  0.66953165  0.35636768  1
  O2-  O536  1  0.09573018  0.67940199  0.68222544  1
  O2-  O537  1  0.09446877  0.91875411  0.01529971  1
  O2-  O538  1  0.06806225  0.90002344  0.34387990  1
  O2-  O539  1  0.08594830  0.94397159  0.70636379  1
  O2-  O540  1  0.33588346  0.17156957  0.02291560  1
  O2-  O541  1  0.34119927  0.17565077  0.32474053  1
  O2-  O542  1  0.32667459  0.15859497  0.70438650  1
  O2-  O543  1  0.33521407  0.41747008  0.01895603  1
  O2-  O544  1  0.32723827  0.40937915  0.35935835  1
  O2-  O545  1  0.32755859  0.44523967  0.69459055  1
  O2-  O546  1  0.32606450  0.65230857  0.03024682  1
  O2-  O547  1  0.32152117  0.65779650  0.34998053  1
  O2-  O548  1  0.31877412  0.69924248  0.69937935  1
  O2-  O549  1  0.33763010  0.92465419  0.01951214  1
  O2-  O550  1  0.32667172  0.91699039  0.33986766  1
  O2-  O551  1  0.28896730  0.92036729  0.66702110  1
  O2-  O552  1  0.58060845  0.18263896  0.01528692  1
  O2-  O553  1  0.58988724  0.16907457  0.34068779  1
  O2-  O554  1  0.58376208  0.15536181  0.68611009  1
  O2-  O555  1  0.58599990  0.42171558  0.02314481  1
  O2-  O556  1  0.60432509  0.43571865  0.35073337  1
  O2-  O557  1  0.53906630  0.44790933  0.70138562  1
  O2-  O558  1  0.58854798  0.67285664  0.02518937  1
  O2-  O559  1  0.60546188  0.65627060  0.32448517  1
  O2-  O560  1  0.59569004  0.66904320  0.68831506  1
  O2-  O561  1  0.58808479  0.90731125  0.03018733  1
  O2-  O562  1  0.57359953  0.88459301  0.34667003  1
  O2-  O563  1  0.60649692  0.92684856  0.68666155  1
  O2-  O564  1  0.80365638  0.13849215  0.02713577  1
  O2-  O565  1  0.85464602  0.17488411  0.35820984  1
  O2-  O566  1  0.83807913  0.16818028  0.67183204  1
  O2-  O567  1  0.83493569  0.41018551  0.02384542  1
  O2-  O568  1  0.83274821  0.41263248  0.35482685  1
  O2-  O569  1  0.85896870  0.41442800  0.69092292  1
  O2-  O570  1  0.82385721  0.65770327  -0.00180168  1
  O2-  O571  1  0.75252062  0.65754952  0.34804676  1
  O2-  O572  1  0.83737535  0.65643440  0.68888018  1
  O2-  O573  1  0.81469773  0.98415880  0.03219401  1
  O2-  O574  1  0.83901555  0.91921692  0.35170151  1
  O2-  O575  1  0.85939705  0.91817626  0.68893803  1
