# generated using pymatgen
data_H2O
_symmetry_space_group_name_H-M   'P 1'
_cell_length_a   17.99231295
_cell_length_b   17.99058789
_cell_length_c   21.99638244
_cell_angle_alpha   89.98730206
_cell_angle_beta   90.04447663
_cell_angle_gamma   120.00405881
_symmetry_Int_Tables_number   1
_chemical_formula_structural   H2O
_chemical_formula_sum   'H384 O192'
_cell_volume   6165.89809459
_cell_formula_units_Z   192
loop_
 _symmetry_equiv_pos_site_id
 _symmetry_equiv_pos_as_xyz
  1  'x, y, z'
loop_
 _atom_type_symbol
 _atom_type_oxidation_number
  H+  1.0
  O2-  -2.0
loop_
 _atom_site_type_symbol
 _atom_site_label
 _atom_site_symmetry_multiplicity
 _atom_site_fract_x
 _atom_site_fract_y
 _atom_site_fract_z
 _atom_site_occupancy
  H+  H0  1  0.89723101  0.56826705  0.28462102  1
  H+  H1  1  0.89395236  0.60957306  0.82758199  1
  H+  H2  1  0.89106119  0.86848477  0.16399633  1
  H+  H3  1  0.88073229  0.85614338  0.52612862  1
  H+  H4  1  0.34576508  0.88332932  0.46623423  1
  H+  H5  1  0.76775171  0.14068579  0.67702516  1
  H+  H6  1  0.65168344  0.62358708  0.84583531  1
  H+  H7  1  0.97577020  0.85595530  0.82644773  1
  H+  H8  1  0.86864646  0.47935153  0.67382782  1
  H+  H9  1  0.26987931  0.38344870  0.33252405  1
  H+  H10  1  0.38502219  0.76899365  0.67774144  1
  H+  H11  1  0.72845505  0.36739684  0.51560458  1
  H+  H12  1  0.26661099  0.38189037  0.66676669  1
  H+  H13  1  0.37204941  0.97054319  0.88914555  1
  H+  H14  1  0.65539626  0.48408207  0.00831279  1
  H+  H15  1  0.96200937  0.85429690  0.99517529  1
  H+  H16  1  0.24769907  0.53667809  0.23004722  1
  H+  H17  1  0.98208925  0.12092125  0.50986697  1
  H+  H18  1  0.40609251  0.07120106  0.60763651  1
  H+  H19  1  0.91234147  0.33259876  0.27287978  1
  H+  H20  1  0.63241742  0.39308929  0.80927702  1
  H+  H21  1  0.83521880  0.92036389  0.58885113  1
  H+  H22  1  0.12111718  0.47338092  0.82112288  1
  H+  H23  1  0.71949869  0.61827023  0.16401712  1
  H+  H24  1  0.23336820  0.10054366  0.32544618  1
  H+  H25  1  0.22997392  0.86600732  0.68508889  1
  H+  H26  1  0.57772478  0.81818290  0.00273889  1
  H+  H27  1  0.13409268  0.59581983  0.98456560  1
  H+  H28  1  -0.02198487  0.36595141  0.65871573  1
  H+  H29  1  0.14372770  0.77701236  0.67292838  1
  H+  H30  1  0.86108602  0.22816306  0.34361773  1
  H+  H31  1  0.14036886  0.61281822  0.65903206  1
  H+  H32  1  0.49129527  0.37357769  0.82552111  1
  H+  H33  1  0.65414993  0.05006715  1.00489784  1
  H+  H34  1  0.77287155  0.62251853  0.67266785  1
  H+  H35  1  0.11948743  0.07419433  0.18451141  1
  H+  H36  1  0.10449440  0.22967812  0.98929570  1
  H+  H37  1  0.37906225  0.23951991  0.82487632  1
  H+  H38  1  0.86084827  0.36324764  0.34798063  1
  H+  H39  1  0.11278473  0.72362582  0.49483943  1
  H+  H40  1  0.39436840  0.77226141  0.17218895  1
  H+  H41  1  -0.02583000  0.36547579  0.33406329  1
  H+  H42  1  0.89428202  0.27695827  0.99492794  1
  H+  H43  1  0.07838143  0.65240728  0.04778243  1
  H+  H44  1  0.62153287  0.87691613  0.85286166  1
  H+  H45  1  0.83589354  0.40138105  0.41831396  1
  H+  H46  1  0.38738195  0.60113598  0.49903255  1
  H+  H47  1  0.88977205  0.77680186  0.31278887  1
  H+  H48  1  0.63209047  0.88293405  0.47656028  1
  H+  H49  1  0.64805965  0.60814686  0.68044501  1
  H+  H50  1  0.86704145  0.98118004  0.53186014  1
  H+  H51  1  -0.02827535  0.12198924  -0.00882735  1
  H+  H52  1  0.37040545  0.89039803  0.70005801  1
  H+  H53  1  0.78929204  0.89282901  0.30941676  1
  H+  H54  1  0.36307995  0.22010005  0.34072806  1
  H+  H55  1  0.52575153  0.13505467  0.65533280  1
  H+  H56  1  0.86227120  0.88517704  -0.00178513  1
  H+  H57  1  0.86984643  0.72189591  0.48771847  1
  H+  H58  1  0.42746119  0.58222057  0.89729300  1
  H+  H59  1  0.52874557  0.63854543  0.14031885  1
  H+  H60  1  0.76317933  0.87028996  0.84403750  1
  H+  H61  1  0.10184010  0.87623712  0.00163418  1
  H+  H62  1  0.37161660  0.72765228  0.82798733  1
  H+  H63  1  0.53440202  0.38410916  0.15469211  1
  H+  H64  1  0.36042796  0.20748625  0.49650628  1
  H+  H65  1  0.37757143  1.02010216  0.31317392  1
  H+  H66  1  0.11451668  0.38456443  0.49662511  1
  H+  H67  1  0.38769781  0.85868349  0.17204838  1
  H+  H68  1  0.16967522  0.83406694  0.93056169  1
  H+  H69  1  0.63715944  0.25548534  0.98985830  1
  H+  H70  1  0.32078683  0.18950087  0.09156439  1
  H+  H71  1  0.20109709  0.86695654  0.48809469  1
  H+  H72  1  0.07132540  0.17813819  0.40214611  1
  H+  H73  1  0.62941257  0.96971957  0.47670695  1
  H+  H74  1  0.12285401  0.63559257  0.82629681  1
  H+  H75  1  0.59411718  0.70920803  0.04643405  1
  H+  H76  1  0.27357359  0.63685031  0.67521398  1
  H+  H77  1  0.88931248  0.11926956  0.16628193  1
  H+  H78  1  0.14268513  0.17702864  0.13696019  1
  H+  H79  1  0.62560632  0.71647372  0.34911551  1
  H+  H80  1  0.64945798  0.53404454  0.83469697  1
  H+  H81  1  0.11579600  0.95925168  0.15687462  1
  H+  H82  1  0.16175752  0.34335219  0.26893586  1
  H+  H83  1  0.14160765  0.77155262  0.98734563  1
  H+  H84  1  0.28369153  1.02584544  0.45908563  1
  H+  H85  1  0.63319479  0.10074813  0.64606149  1
  H+  H86  1  0.55832886  0.16464290  0.80015536  1
  H+  H87  1  0.92461473  0.08155121  0.60721110  1
  H+  H88  1  0.35529916  0.71393306  0.00267190  1
  H+  H89  1  0.37814702  0.48452463  0.81680706  1
  H+  H90  1  0.86367722  0.88057281  0.67310440  1
  H+  H91  1  0.63249455  0.74151976  0.84904770  1
  H+  H92  1  0.86499115  0.38407023  0.50191198  1
  H+  H93  1  0.86526851  0.98268541  0.15658668  1
  H+  H94  1  0.48641630  0.85967563  0.84780847  1
  H+  H95  1  0.60868093  0.50317956  0.52624090  1
  H+  H96  1  0.11907093  0.72978711  0.34332536  1
  H+  H97  1  0.13515466  0.37298588  0.33033524  1
  H+  H98  1  0.62276700  0.22351091  0.51234446  1
  H+  H99  1  0.11788065  0.14917887  0.49690139  1
  H+  H100  1  0.17926403  0.09260074  0.77282373  1
  H+  H101  1  0.63366177  0.51725154  0.32145992  1
  H+  H102  1  0.41543382  0.37928479  0.17703256  1
  H+  H103  1  0.77575477  0.13169710  0.49720480  1
  H+  H104  1  0.50478229  0.36134877  0.50205322  1
  H+  H105  1  0.22295749  0.10575708  0.50516222  1
  H+  H106  1  0.85381265  0.23133799  0.67659199  1
  H+  H107  1  0.76606720  0.39243747  0.02612734  1
  H+  H108  1  0.98116723  0.36361599  0.83815594  1
  H+  H109  1  0.63651671  0.52526857  0.16719758  1
  H+  H110  1  0.11040441  0.84939755  0.50232930  1
  H+  H111  1  0.62275376  0.59758330  0.52742111  1
  H+  H112  1  0.89095775  0.61057868  0.65691228  1
  H+  H113  1  0.23049103  0.11211403  0.66023902  1
  H+  H114  1  0.12025090  0.34944615  0.95065540  1
  H+  H115  1  0.39814765  0.02343657  0.50842573  1
  H+  H116  1  0.61210293  0.22223441  0.15824919  1
  H+  H117  1  0.86142720  0.22419500  0.16348770  1
  H+  H118  1  0.83103789  0.62482457  0.98397899  1
  H+  H119  1  0.63941326  0.76785912  0.51114507  1
  H+  H120  1  0.96792763  0.36082203  0.18485207  1
  H+  H121  1  0.91886140  0.10184100  0.26341128  1
  H+  H122  1  0.38540484  1.02429517  0.67296895  1
  H+  H123  1  0.27419175  0.12600708  1.01212751  1
  H+  H124  1  0.02074924  0.88185683  0.33586804  1
  H+  H125  1  0.89105605  0.11712327  0.50989522  1
  H+  H126  1  0.26708240  0.62167888  1.00256318  1
  H+  H127  1  0.13117323  0.35638899  0.65521853  1
  H+  H128  1  0.11848913  0.88478353  0.82485926  1
  H+  H129  1  0.38010638  0.60697749  0.99853927  1
  H+  H130  1  0.12273108  0.38525022  0.81911519  1
  H+  H131  1  0.98838187  0.60989109  0.35939373  1
  H+  H132  1  0.84981709  0.73093920  0.14109861  1
  H+  H133  1  0.38435544  0.56346250  0.24015302  1
  H+  H134  1  0.14082648  0.52099020  0.50639841  1
  H+  H135  1  0.21853597  0.86012153  0.32182783  1
  H+  H136  1  0.70736165  0.59917030  0.93141802  1
  H+  H137  1  0.12560490  0.23682077  0.81231737  1
  H+  H138  1  0.86686073  0.77306649  0.98318933  1
  H+  H139  1  0.88322674  0.03258151  0.99364290  1
  H+  H140  1  0.85819728  0.14584047  0.00932417  1
  H+  H141  1  0.41983384  0.32474471  0.26533230  1
  H+  H142  1  0.02401281  0.38690843  0.49730831  1
  H+  H143  1  0.38375005  0.27311969  0.66338615  1
  H+  H144  1  0.35241175  0.87699684  0.32699242  1
  H+  H145  1  0.11517380  0.47491319  0.66992857  1
  H+  H146  1  0.57946314  0.16632932  0.05844103  1
  H+  H147  1  0.11723238  0.88475242  0.67792452  1
  H+  H148  1  0.61664180  0.63952605  0.14432671  1
  H+  H149  1  -0.02289395  0.85465426  0.66636628  1
  H+  H150  1  0.15069745  0.77486678  0.83650641  1
  H+  H151  1  0.26404867  0.15671609  0.15231325  1
  H+  H152  1  0.73302071  0.12975904  0.33928231  1
  H+  H153  1  0.36005891  0.21360667  0.99949468  1
  H+  H154  1  0.60366506  0.88992185  -0.04524348  1
  H+  H155  1  0.31030696  0.83685822  0.46448604  1
  H+  H156  1  0.56338981  0.41461972  0.40327817  1
  H+  H157  1  0.46909243  0.83850785  -0.01365303  1
  H+  H158  1  0.13858354  0.61683931  0.33307974  1
  H+  H159  1  0.38017861  0.36109248  0.65866614  1
  H+  H160  1  0.02840906  0.63558983  0.67208857  1
  H+  H161  1  0.46184439  0.86587789  0.32260136  1
  H+  H162  1  0.37529747  0.64022828  0.82840294  1
  H+  H163  1  0.38667520  1.09501037  -0.01139076  1
  H+  H164  1  0.63406183  0.04310209  0.33051998  1
  H+  H165  1  0.43104716  0.10069203  0.26853956  1
  H+  H166  1  0.38418740  0.84991889  0.99403481  1
  H+  H167  1  0.63340898  0.36022094  0.17641735  1
  H+  H168  1  0.38176667  0.35573963  0.31911032  1
  H+  H169  1  0.10521040  0.37628441  0.02566078  1
  H+  H170  1  0.64214253  0.77046680  0.16346803  1
  H+  H171  1  0.62135288  0.47592580  0.71031028  1
  H+  H172  1  0.23507562  0.61088185  0.83763859  1
  H+  H173  1  0.87319029  0.98750219  0.31047847  1
  H+  H174  1  0.11829280  0.22364440  0.66272121  1
  H+  H175  1  0.21449407  0.36792766  0.16607093  1
  H+  H176  1  0.61548946  0.88444770  0.68648093  1
  H+  H177  1  0.61169492  0.13274811  0.15874353  1
  H+  H178  1  0.11291547  0.97228554  0.67208789  1
  H+  H179  1  0.61629310  0.22153241  0.65420209  1
  H+  H180  1  0.82864410  0.18069100  0.77521200  1
  H+  H181  1  0.89038285  0.36966449  0.65972856  1
  H+  H182  1  0.53023072  0.88137148  0.20513510  1
  H+  H183  1  0.66324648  0.34497078  0.41841701  1
  H+  H184  1  0.73137530  0.86102087  0.16884063  1
  H+  H185  1  0.86850495  0.47659795  0.49559113  1
  H+  H186  1  0.12459170  0.36735986  0.17301213  1
  H+  H187  1  0.52935221  0.63455136  0.49851589  1
  H+  H188  1  0.87309003  0.38708263  0.82910319  1
  H+  H189  1  0.34852857  0.62731542  0.32401422  1
  H+  H190  1  0.64294301  0.36298883  0.67799491  1
  H+  H191  1  0.62367026  0.02765104  0.86185503  1
  H+  H192  1  0.10654987  0.47738605  0.34746511  1
  H+  H193  1  1.01673776  0.37762974  1.00866184  1
  H+  H194  1  0.64465941  0.84453016  0.31856485  1
  H+  H195  1  0.36379014  0.13812627  0.67525943  1
  H+  H196  1  0.42476699  0.05008118  0.81251342  1
  H+  H197  1  0.30538620  0.33458731  0.12684097  1
  H+  H198  1  0.61970208  0.62704347  0.34842231  1
  H+  H199  1  0.49512047  0.62427108  0.84375432  1
  H+  H200  1  0.63703089  0.13796617  0.35039551  1
  H+  H201  1  0.38552367  0.90088822  0.85292698  1
  H+  H202  1  0.38552500  0.51464489  0.14598175  1
  H+  H203  1  0.38969996  0.60600301  0.15028844  1
  H+  H204  1  0.36626090  0.13148610  0.33850545  1
  H+  H205  1  0.34820090  0.50454156  0.29957760  1
  H+  H206  1  0.65001749  0.27997359  0.82798951  1
  H+  H207  1  0.38087818  0.60550724  0.65709028  1
  H+  H208  1  0.78372052  0.63316326  0.82163476  1
  H+  H209  1  0.36292206  0.37317556  0.48704574  1
  H+  H210  1  0.85496435  0.14468262  0.83269888  1
  H+  H211  1  0.62277281  0.13849567  1.00373385  1
  H+  H212  1  0.09072874  0.71031587  0.18775302  1
  H+  H213  1  0.02682112  0.63802741  -0.01293228  1
  H+  H214  1  0.72657401  0.85895942  0.52500215  1
  H+  H215  1  0.33035030  0.45478575  -0.01167839  1
  H+  H216  1  0.62940114  0.15511374  0.83523660  1
  H+  H217  1  0.11491530  0.14400481  0.81590346  1
  H+  H218  1  0.02141376  0.87597074  0.15493384  1
  H+  H219  1  0.73268072  0.36811493  0.66717568  1
  H+  H220  1  0.97847371  0.11903128  0.16729332  1
  H+  H221  1  0.87258949  0.72279116  0.81519667  1
  H+  H222  1  0.10210749  0.23668516  0.34305050  1
  H+  H223  1  0.89886129  0.87138746  0.30414207  1
  H+  H224  1  0.30853506  0.26737210  0.53948838  1
  H+  H225  1  -0.01206702  0.10369932  0.66299169  1
  H+  H226  1  1.00762419  0.88368766  0.49766189  1
  H+  H227  1  0.35810729  0.34017605  -0.02043660  1
  H+  H228  1  0.22334232  0.40110765  0.52678926  1
  H+  H229  1  0.13129904  0.10978518  1.00599682  1
  H+  H230  1  0.39232525  0.51504357  0.49959998  1
  H+  H231  1  0.22523218  0.61178695  0.33627995  1
  H+  H232  1  0.77356887  0.63675012  0.32638153  1
  H+  H233  1  0.88526762  0.27359526  0.50939811  1
  H+  H234  1  0.42366989  0.83951814  0.62591407  1
  H+  H235  1  0.28642900  0.63015821  0.16337866  1
  H+  H236  1  0.39628633  0.11020836  0.50668808  1
  H+  H237  1  0.83810370  0.48793250  0.03670795  1
  H+  H238  1  0.11530110  0.24348235  0.15835363  1
  H+  H239  1  0.85696759  0.64695758  0.29610717  1
  H+  H240  1  0.76965829  0.15135349  1.00962805  1
  H+  H241  1  1.03408828  0.63677195  0.82530075  1
  H+  H242  1  0.93510046  0.61544452  0.22322879  1
  H+  H243  1  0.23475695  0.36704649  0.98539405  1
  H+  H244  1  0.37859466  0.71469020  0.48780756  1
  H+  H245  1  0.86429567  0.01687168  0.84551428  1
  H+  H246  1  0.96037568  0.69317861  0.94992835  1
  H+  H247  1  0.89387825  0.60894058  0.49965307  1
  H+  H248  1  0.23824995  0.86632752  0.84627294  1
  H+  H249  1  0.50673723  0.85081686  0.49040233  1
  H+  H250  1  0.24143192  0.36955414  0.82909730  1
  H+  H251  1  0.27323513  0.86889412  0.15989200  1
  H+  H252  1  0.58847702  0.92304279  0.29681573  1
  H+  H253  1  0.14250313  1.01207987  0.32555074  1
  H+  H254  1  0.64275277  0.10047608  0.51068527  1
  H+  H255  1  0.61897765  0.87975517  0.20398589  1
  H+  H256  1  0.36926883  0.96784844  0.00471007  1
  H+  H257  1  0.72573861  0.11205980  0.17019656  1
  H+  H258  1  0.51225852  0.37982549  0.34020234  1
  H+  H259  1  0.52842026  0.67689679  -0.00806763  1
  H+  H260  1  0.23227178  0.60787418  0.50417316  1
  H+  H261  1  0.42077522  0.84973863  0.50295305  1
  H+  H262  1  0.07141411  0.61682219  0.20428209  1
  H+  H263  1  0.74300399  0.87815762  0.95101802  1
  H+  H264  1  0.72601398  0.86769040  0.65822753  1
  H+  H265  1  0.13248194  0.84672517  0.16952649  1
  H+  H266  1  0.76664869  0.37231039  0.18086954  1
  H+  H267  1  0.85785914  0.13764128  0.33764016  1
  H+  H268  1  0.64839956  0.55787672  0.62040008  1
  H+  H269  1  0.63994246  0.79224125  0.92202347  1
  H+  H270  1  0.98074827  0.60570413  0.50415582  1
  H+  H271  1  0.63668642  1.01547184  0.66501207  1
  H+  H272  1  0.66937380  0.06114762  0.56509244  1
  H+  H273  1  0.52864581  0.88521598  0.69661746  1
  H+  H274  1  0.35599806  0.47309787  0.66529297  1
  H+  H275  1  0.40328829  0.37529955  0.82656335  1
  H+  H276  1  0.62869944  0.36829475  0.36062352  1
  H+  H277  1  0.29133039  0.14627903  0.82426952  1
  H+  H278  1  0.41541892  0.13163793  0.80297379  1
  H+  H279  1  0.12111751  0.63700181  0.49728341  1
  H+  H280  1  0.43347306  0.56166266  1.01966461  1
  H+  H281  1  0.27788113  0.88147198  0.00436743  1
  H+  H282  1  0.11741082  0.47369496  0.17027240  1
  H+  H283  1  0.97228747  0.12928397  0.32709688  1
  H+  H284  1  0.88262073  0.84900428  0.82966924  1
  H+  H285  1  0.61341895  0.22967146  0.36734590  1
  H+  H286  1  0.59859244  0.90987664  0.79035880  1
  H+  H287  1  0.90199930  0.60929108  0.37004482  1
  H+  H288  1  0.67312500  0.81346475  0.26070924  1
  H+  H289  1  0.30185902  0.39497427  0.07652963  1
  H+  H290  1  0.66673532  0.34348127  0.88617592  1
  H+  H291  1  0.27615613  0.37162711  0.47511173  1
  H+  H292  1  0.34154605  0.16030250  0.42998815  1
  H+  H293  1  0.18624986  0.56912545  0.24888059  1
  H+  H294  1  0.33805710  0.65662146  0.42862417  1
  H+  H295  1  0.58658375  0.98913178  0.09842976  1
  H+  H296  1  0.60355953  0.41698314  0.09955553  1
  H+  H297  1  0.83539351  0.92512652  0.09639978  1
  H+  H298  1  0.34121118  0.42262343  0.75769494  1
  H+  H299  1  0.40924411  0.32645280  0.92666218  1
  H+  H300  1  0.92207309  0.58065715  0.59823850  1
  H+  H301  1  0.80670158  0.90008130  0.77806326  1
  H+  H302  1  0.23392512  0.96707076  0.40572453  1
  H+  H303  1  0.64317206  0.39091795  0.00451045  1
  H+  H304  1  0.16163825  0.82624080  0.23268539  1
  H+  H305  1  0.09985404  0.67296325  0.40568485  1
  H+  H306  1  0.83228975  0.85647270  0.41550149  1
  H+  H307  1  0.59232038  0.92240861  0.37377300  1
  H+  H308  1  0.57462511  0.95426587  0.07510861  1
  H+  H309  1  0.34181414  0.41833150  0.38397830  1
  H+  H310  1  0.07182191  0.89823619  0.06359764  1
  H+  H311  1  0.12120824  0.24026481  0.49805617  1
  H+  H312  1  0.91915495  0.83126274  0.22028314  1
  H+  H313  1  0.65088271  0.74625773  0.68558135  1
  H+  H314  1  0.72677215  0.30956694  0.95603378  1
  H+  H315  1  0.93139702  0.33551063  0.93403951  1
  H+  H316  1  0.39210798  0.31394906  0.58205977  1
  H+  H317  1  0.07777627  0.18230032  0.05448969  1
  H+  H318  1  0.41587639  0.82235465  0.90112616  1
  H+  H319  1  0.09801196  0.97340980  0.49532570  1
  H+  H320  1  0.71953510  0.73427001  0.72088183  1
  H+  H321  1  0.88847591  0.27470759  0.84118609  1
  H+  H322  1  0.91671026  0.81835825  0.57347929  1
  H+  H323  1  0.40573157  0.82537729  0.26234290  1
  H+  H324  1  0.40607715  0.93051344  0.57611955  1
  H+  H325  1  0.17560777  0.32846036  0.88641301  1
  H+  H326  1  0.80942397  0.88047581  0.42340090  1
  H+  H327  1  0.07364790  0.42151420  0.10758953  1
  H+  H328  1  0.14473089  0.02063425  0.82134946  1
  H+  H329  1  0.80479638  0.67249139  0.08254263  1
  H+  H330  1  0.32992149  0.66210351  0.09678538  1
  H+  H331  1  0.17330142  0.58379897  0.60035265  1
  H+  H332  1  0.36180261  0.72228388  0.33517669  1
  H+  H333  1  0.15894297  0.33004645  0.59254498  1
  H+  H334  1  0.17596367  0.06476995  0.23502066  1
  H+  H335  1  0.87155837  0.97540678  0.67237668  1
  H+  H336  1  0.78411105  0.39046400  0.82537107  1
  H+  H337  1  0.08518481  0.41403632  0.72867249  1
  H+  H338  1  0.07782009  0.41484077  0.40583018  1
  H+  H339  1  -0.02713790  0.56588402  0.09383430  1
  H+  H340  1  0.64853054  0.08996831  0.92009650  1
  H+  H341  1  0.64296776  0.02807902  0.19446502  1
  H+  H342  1  0.92786669  0.60613911  0.91440313  1
  H+  H343  1  0.88750855  0.76376481  0.66542564  1
  H+  H344  1  0.12684728  0.85650501  0.32851744  1
  H+  H345  1  0.66849409  0.34066854  0.57448502  1
  H+  H346  1  0.84218447  0.42034226  0.73433149  1
  H+  H347  1  0.84899846  0.67273791  0.42479921  1
  H+  H348  1  0.40960501  0.57455861  0.59806227  1
  H+  H349  1  0.83672471  0.65524213  0.72950743  1
  H+  H350  1  0.61484005  0.69019933  0.78533979  1
  H+  H351  1  0.47592172  0.09842815  0.98581581  1
  H+  H352  1  0.34903097  0.93347393  0.75550998  1
  H+  H353  1  0.83452768  0.17337067  0.09907890  1
  H+  H354  1  0.38516046  0.28170517  0.16561789  1
  H+  H355  1  0.82668380  0.41001699  0.12352442  1
  H+  H356  1  0.14174559  0.11398718  0.65791180  1
  H+  H357  1  0.59836088  0.37377750  0.50279910  1
  H+  H358  1  0.59099229  0.16378752  0.42199448  1
  H+  H359  1  0.35790653  0.90372270  0.57838390  1
  H+  H360  1  -0.04493609  0.59564122  0.09173473  1
  H+  H361  1  0.65603717  0.82901877  0.60452156  1
  H+  H362  1  0.66058173  0.57756543  0.26165759  1
  H+  H363  1  0.89737990  0.08162841  0.90093242  1
  H+  H364  1  0.12586215  0.01818142  1.00909497  1
  H+  H365  1  0.33395379  0.90161517  0.10172433  1
  H+  H366  1  0.09454619  0.17097015  0.72604282  1
  H+  H367  1  0.32847966  0.92083225  0.38158381  1
  H+  H368  1  0.08645264  0.91189115  0.76484856  1
  H+  H369  1  0.17143246  0.57288720  0.89461017  1
  H+  H370  1  0.53478314  0.13418964  0.51124525  1
  H+  H371  1  0.08786591  0.66211566  0.73206369  1
  H+  H372  1  0.33335473  0.66150135  0.73533399  1
  H+  H373  1  0.91631274  0.33474894  0.56884984  1
  H+  H374  1  0.89499802  0.52006923  0.83532026  1
  H+  H375  1  0.59644185  0.66252858  0.44387031  1
  H+  H376  1  0.13363953  0.50721471  0.99270917  1
  H+  H377  1  0.16865862  0.08247310  0.56690482  1
  H+  H378  1  0.34031940  0.17417967  0.73418926  1
  H+  H379  1  0.83465355  0.16667213  0.43790537  1
  H+  H380  1  0.87504414  0.35446949  0.18683380  1
  H+  H381  1  0.06930996  0.90865009  0.40113946  1
  H+  H382  1  0.76461446  0.36718762  0.36112727  1
  H+  H383  1  0.63517680  0.31134625  0.23634176  1
  O2-  O384  1  0.09293974  0.18505808  0.13905105  1
  O2-  O385  1  0.08715942  0.17940344  0.48394146  1
  O2-  O386  1  0.09179329  0.17710721  0.79612970  1
  O2-  O387  1  0.07281846  0.41776281  0.15313148  1
  O2-  O388  1  0.08346637  0.41686130  0.48073732  1
  O2-  O389  1  0.08930168  0.41340613  0.80557651  1
  O2-  O390  1  0.04484754  0.64836227  0.18852233  1
  O2-  O391  1  0.08690838  0.66216166  0.48057736  1
  O2-  O392  1  0.09530146  0.66886974  0.81164171  1
  O2-  O393  1  0.08239513  0.89969379  0.14062385  1
  O2-  O394  1  0.06649730  0.91403664  0.47876001  1
  O2-  O395  1  0.08762644  0.91454821  0.81069360  1
  O2-  O396  1  0.30463781  0.20936933  0.12980578  1
  O2-  O397  1  0.33844322  0.15039357  0.47621020  1
  O2-  O398  1  0.35169953  0.17877664  0.80994840  1
  O2-  O399  1  0.30741065  0.38998514  0.12284494  1
  O2-  O400  1  0.33828419  0.40459841  0.46525224  1
  O2-  O401  1  0.34752469  0.42369448  0.80326601  1
  O2-  O402  1  0.34184493  0.66523577  0.14148575  1
  O2-  O403  1  0.33832861  0.65464668  0.47408778  1
  O2-  O404  1  0.34087959  0.66638196  0.81383006  1
  O2-  O405  1  0.33407906  0.89798460  0.14673412  1
  O2-  O406  1  0.27130479  0.97190971  0.43948404  1
  O2-  O407  1  0.35687827  0.93709377  0.85118277  1
  O2-  O408  1  0.58527400  0.16463472  0.13868229  1
  O2-  O409  1  0.59496274  0.16399210  0.49584497  1
  O2-  O410  1  0.62156337  0.19575653  0.80772066  1
  O2-  O411  1  0.59665813  0.41707284  0.14498594  1
  O2-  O412  1  0.56225410  0.39634816  0.48513274  1
  O2-  O413  1  0.60414414  0.42806776  0.79427755  1
  O2-  O414  1  0.58976052  0.67263370  0.12755589  1
  O2-  O415  1  0.59211593  0.66516321  0.48968564  1
  O2-  O416  1  0.60305555  0.68123636  0.82974295  1
  O2-  O417  1  0.58983395  0.90962329  0.22185324  1
  O2-  O418  1  0.60543055  0.91335538  0.45519919  1
  O2-  O419  1  0.58975319  0.90517160  0.83498742  1
  O2-  O420  1  0.83524547  0.16594590  0.14503173  1
  O2-  O421  1  0.83673341  0.16809590  0.48317658  1
  O2-  O422  1  0.83506898  0.18544559  0.82042514  1
  O2-  O423  1  0.82744988  0.40016168  0.16790587  1
  O2-  O424  1  0.83401646  0.41339623  0.48383269  1
  O2-  O425  1  0.84553679  0.42039662  0.81225765  1
  O2-  O426  1  0.81028472  0.67144168  0.12685032  1
  O2-  O427  1  0.85068707  0.66508274  0.46885339  1
  O2-  O428  1  0.84227636  0.65849852  0.80374942  1
  O2-  O429  1  0.83552554  0.92207089  0.14143462  1
  O2-  O430  1  0.83418336  0.91875288  0.54404899  1
  O2-  O431  1  0.81894061  0.89862570  0.82134841  1
  O2-  O432  1  0.16825920  0.06495922  0.18825908  1
  O2-  O433  1  0.16426520  0.08269793  0.52118364  1
  O2-  O434  1  0.17819814  0.08510996  0.81678552  1
  O2-  O435  1  0.15860789  0.34023472  0.18810554  1
  O2-  O436  1  0.17054024  0.34723698  0.51933753  1
  O2-  O437  1  0.17956272  0.33768100  0.84055997  1
  O2-  O438  1  0.20776640  0.55316701  0.21150012  1
  O2-  O439  1  0.17320372  0.58201752  0.52135887  1
  O2-  O440  1  0.17303862  0.57956926  0.84951334  1
  O2-  O441  1  0.16264106  0.81808800  0.18782903  1
  O2-  O442  1  0.14888597  0.82546200  0.50960982  1
  O2-  O443  1  0.17534139  0.83444650  0.85321822  1
  O2-  O444  1  0.47492596  0.13856604  0.19806367  1
  O2-  O445  1  0.42520050  0.08069546  0.52628409  1
  O2-  O446  1  0.44962116  0.10472949  0.79068254  1
  O2-  O447  1  0.43110509  0.33596472  0.18682115  1
  O2-  O448  1  0.37081697  0.29670771  0.53429319  1
  O2-  O449  1  0.43278461  0.34468857  0.84283210  1
  O2-  O450  1  0.41926136  0.57317148  0.16245898  1
  O2-  O451  1  0.41924811  0.57366609  0.51673893  1
  O2-  O452  1  0.43191121  0.58967835  0.85288934  1
  O2-  O453  1  0.41956007  0.83000429  0.19105724  1
  O2-  O454  1  0.45054495  0.81837268  0.51250152  1
  O2-  O455  1  0.42229111  0.83174391  0.85593366  1
  O2-  O456  1  0.66681971  0.08955039  0.18642708  1
  O2-  O457  1  0.67155343  0.06656982  0.51912078  1
  O2-  O458  1  0.62004897  0.07628468  0.87826541  1
  O2-  O459  1  0.65565890  0.32322918  0.19462335  1
  O2-  O460  1  0.66709997  0.33650022  0.52870789  1
  O2-  O461  1  0.67440087  0.34591613  0.84170250  1
  O2-  O462  1  0.65968205  0.58535166  0.18186243  1
  O2-  O463  1  0.63734439  0.55768111  0.54869637  1
  O2-  O464  1  0.68228673  0.59065662  0.85476866  1
  O2-  O465  1  0.67265220  0.82583931  0.18666240  1
  O2-  O466  1  0.66254621  0.82910384  0.52511230  1
  O2-  O467  1  0.67171361  0.83084457  0.88839659  1
  O2-  O468  1  0.91936039  0.08872123  0.18324039  1
  O2-  O469  1  0.92206254  0.08811622  0.52574807  1
  O2-  O470  1  0.89089366  0.07798110  0.85608101  1
  O2-  O471  1  0.90937322  0.32578000  0.20201742  1
  O2-  O472  1  0.91494481  0.33499506  0.52267164  1
  O2-  O473  1  0.92296111  0.33897192  0.85600676  1
  O2-  O474  1  0.88239821  0.59092194  0.24810101  1
  O2-  O475  1  0.91978015  0.57604054  0.51855935  1
  O2-  O476  1  0.92654803  0.58326100  0.84665755  1
  O2-  O477  1  0.91796068  0.83329127  0.17461634  1
  O2-  O478  1  0.91162826  0.82312024  0.52836990  1
  O2-  O479  1  0.91363745  0.81645246  0.83331762  1
  O2-  O480  1  0.17695494  0.06814647  0.30469766  1
  O2-  O481  1  0.17038461  0.08015628  0.64405357  1
  O2-  O482  1  0.16560602  0.08079589  1.00971928  1
  O2-  O483  1  0.16620650  0.34392712  0.31403422  1
  O2-  O484  1  0.16174321  0.32714968  0.63893914  1
  O2-  O485  1  0.15289689  0.32079369  0.95882276  1
  O2-  O486  1  0.16492185  0.58084269  0.32044367  1
  O2-  O487  1  0.17232734  0.58311446  0.64586180  1
  O2-  O488  1  0.16606894  0.56583986  0.97365145  1
  O2-  O489  1  0.15612403  0.82620391  0.31099736  1
  O2-  O490  1  0.17252204  0.83997390  0.66626878  1
  O2-  O491  1  0.16838494  0.83295214  0.97616600  1
  O2-  O492  1  0.40813038  0.08344619  0.31050971  1
  O2-  O493  1  0.40856626  0.08060333  0.65202540  1
  O2-  O494  1  0.41430560  0.06264421  0.97326856  1
  O2-  O495  1  0.41414904  0.32484226  0.31051433  1
  O2-  O496  1  0.40997456  0.33042443  0.64261322  1
  O2-  O497  1  0.39372287  0.31417505  0.96995245  1
  O2-  O498  1  0.34628347  0.55096084  0.27593966  1
  O2-  O499  1  0.40611679  0.57064347  0.64306260  1
  O2-  O500  1  0.41439338  0.57931202  0.98374502  1
  O2-  O501  1  0.40223604  0.82590000  0.30879078  1
  O2-  O502  1  0.41877959  0.83352949  0.67010345  1
  O2-  O503  1  0.40574150  0.81222205  0.97697367  1
  O2-  O504  1  0.67017668  0.10788498  0.32692131  1
  O2-  O505  1  0.66514256  0.06859912  0.63992024  1
  O2-  O506  1  0.67940363  0.10778641  0.98832184  1
  O2-  O507  1  0.66275594  0.33971358  0.37413168  1
  O2-  O508  1  0.67184537  0.34030375  0.65209934  1
  O2-  O509  1  0.67997662  0.31655355  0.97183784  1
  O2-  O510  1  0.66591139  0.57740157  0.30699846  1
  O2-  O511  1  0.66190567  0.56432434  0.66582581  1
  O2-  O512  1  0.70902317  0.59462461  0.97705722  1
  O2-  O513  1  0.67632084  0.81617301  0.30669733  1
  O2-  O514  1  0.66273848  0.83283771  0.64986194  1
  O2-  O515  1  0.74715331  0.88054409  0.99702024  1
  O2-  O516  1  0.91215319  0.09835664  0.30849587  1
  O2-  O517  1  0.92633438  0.06914015  0.65085861  1
  O2-  O518  1  0.90892320  0.09328298  0.98063224  1
  O2-  O519  1  0.91236767  0.33285388  0.31981181  1
  O2-  O520  1  0.91812269  0.33818490  0.64224058  1
  O2-  O521  1  0.93519048  0.33638038  0.97946070  1
  O2-  O522  1  0.92508463  0.57108569  0.36279801  1
  O2-  O523  1  0.92360528  0.58157802  0.64371988  1
  O2-  O524  1  0.93469255  0.63168667  0.95746896  1
  O2-  O525  1  0.92848016  0.83649210  0.29760549  1
  O2-  O526  1  0.91635161  0.82488948  0.65122656  1
  O2-  O527  1  0.90274420  0.83562869  0.97988934  1
  O2-  O528  1  0.07488338  0.17087699  0.01047543  1
  O2-  O529  1  0.06451334  0.17715455  0.35742630  1
  O2-  O530  1  0.09456192  0.16433651  0.67967601  1
  O2-  O531  1  0.07856765  0.41201591  0.03043392  1
  O2-  O532  1  0.07514547  0.41548728  0.35975302  1
  O2-  O533  1  0.08267119  0.41360943  0.68299630  1
  O2-  O534  1  0.08560296  0.65655149  0.00368858  1
  O2-  O535  1  0.09727046  0.67047617  0.35993461  1
  O2-  O536  1  0.08919594  0.66414806  0.68668824  1
  O2-  O537  1  0.06599842  0.89923066  0.01827194  1
  O2-  O538  1  0.07884700  0.90889491  0.35625665  1
  O2-  O539  1  0.08211162  0.91309219  0.68925535  1
  O2-  O540  1  0.33712945  0.15758467  0.02154123  1
  O2-  O541  1  0.33642683  0.16144534  0.35862836  1
  O2-  O542  1  0.33388379  0.16992885  0.68864929  1
  O2-  O543  1  0.29802674  0.39689490  0.00552521  1
  O2-  O544  1  0.33387193  0.41396516  0.33914102  1
  O2-  O545  1  0.32733917  0.41195643  0.68178971  1
  O2-  O546  1  0.32705225  0.65325225  0.01932812  1
  O2-  O547  1  0.33313653  0.66219308  0.35115406  1
  O2-  O548  1  0.33459478  0.66724290  0.69005701  1
  O2-  O549  1  0.33779988  0.90591338  0.01929208  1
  O2-  O550  1  0.32362552  0.91137814  0.33763208  1
  O2-  O551  1  0.34153472  0.92345470  0.71161606  1
  O2-  O552  1  0.58213991  0.16523494  0.01337656  1
  O2-  O553  1  0.59121084  0.16790141  0.37618966  1
  O2-  O554  1  0.58663832  0.16002530  0.64356481  1
  O2-  O555  1  0.62250019  0.42555078  0.02495597  1
  O2-  O556  1  0.57149843  0.41366836  0.35866422  1
  O2-  O557  1  0.59794503  0.41621795  0.72772514  1
  O2-  O558  1  0.58332382  0.72522231  0.00561408  1
  O2-  O559  1  0.59598375  0.65977678  0.36917148  1
  O2-  O560  1  0.65818459  0.70429652  0.71197700  1
  O2-  O561  1  0.57078150  0.86841765  -0.00769590  1
  O2-  O562  1  0.57360036  0.94019128  0.33665124  1
  O2-  O563  1  0.59064660  0.91653832  0.70704228  1
  O2-  O564  1  0.83322643  0.18023150  0.02596568  1
  O2-  O565  1  0.82797325  0.16706860  0.35752019  1
  O2-  O566  1  0.82276919  0.17617619  0.69842703  1
  O2-  O567  1  0.82178389  0.42899053  0.04625468  1
  O2-  O568  1  0.82629044  0.38796008  0.37126868  1
  O2-  O569  1  0.83715136  0.41864181  0.68883218  1
  O2-  O570  1  0.79817902  0.65380820  -0.00479912  1
  O2-  O571  1  0.83741235  0.66927018  0.33141575  1
  O2-  O572  1  0.83522532  0.65715511  0.68359300  1
  O2-  O573  1  0.83822283  0.92503110  0.01304233  1
  O2-  O574  1  0.85190061  0.92559345  0.30310276  1
  O2-  O575  1  0.83026810  0.91067212  0.67907735  1
