# generated using pymatgen
data_H2O
_symmetry_space_group_name_H-M   'P 1'
_cell_length_a   17.98924215
_cell_length_b   17.99210337
_cell_length_c   22.00494020
_cell_angle_alpha   89.97852193
_cell_angle_beta   90.02436701
_cell_angle_gamma   120.00627913
_symmetry_Int_Tables_number   1
_chemical_formula_structural   H2O
_chemical_formula_sum   'H384 O192'
_cell_volume   6167.62699575
_cell_formula_units_Z   192
loop_
 _symmetry_equiv_pos_site_id
 _symmetry_equiv_pos_as_xyz
  1  'x, y, z'
loop_
 _atom_type_symbol
 _atom_type_oxidation_number
  H+  1.0
  O2-  -2.0
loop_
 _atom_site_type_symbol
 _atom_site_label
 _atom_site_symmetry_multiplicity
 _atom_site_fract_x
 _atom_site_fract_y
 _atom_site_fract_z
 _atom_site_occupancy
  H+  H0  1  0.86564875  0.23277041  0.33366482  1
  H+  H1  1  0.86582692  0.00171603  0.16639917  1
  H+  H2  1  0.11574902  0.39398057  0.15641124  1
  H+  H3  1  0.90089363  0.87902371  0.31029260  1
  H+  H4  1  0.85453234  0.38345240  0.67015035  1
  H+  H5  1  0.82577678  0.40756757  0.39870124  1
  H+  H6  1  0.10397547  0.39376338  0.67298307  1
  H+  H7  1  0.97641373  0.61595861  0.83978986  1
  H+  H8  1  0.47715776  0.10130219  0.31324261  1
  H+  H9  1  0.75856052  0.60762538  0.82321862  1
  H+  H10  1  0.64152947  0.77586443  0.31631835  1
  H+  H11  1  0.26922213  0.62216094  0.50007357  1
  H+  H12  1  0.51892910  0.88099185  0.67561581  1
  H+  H13  1  0.73061438  0.61849280  0.17377960  1
  H+  H14  1  0.97011394  0.85655373  1.01523012  1
  H+  H15  1  0.13403369  0.62105472  0.17486408  1
  H+  H16  1  0.50662386  0.37793695  0.66228112  1
  H+  H17  1  0.10379530  0.72334867  0.66771229  1
  H+  H18  1  0.33995866  0.91350897  0.44769972  1
  H+  H19  1  0.89203757  0.52968201  -0.00589755  1
  H+  H20  1  0.50396575  0.33856569  0.49896877  1
  H+  H21  1  0.64223586  0.62129713  0.17028609  1
  H+  H22  1  0.36781694  0.30960464  0.61307711  1
  H+  H23  1  0.35999084  0.98165819  -0.00557398  1
  H+  H24  1  0.76933420  0.13781215  0.67375899  1
  H+  H25  1  0.49963669  0.36923863  -0.01485680  1
  H+  H26  1  0.11116424  0.37780044  0.34045265  1
  H+  H27  1  0.11865581  0.12051140  0.00048085  1
  H+  H28  1  0.60933265  0.72327786  0.15212614  1
  H+  H29  1  0.32896378  0.10511037  0.50094500  1
  H+  H30  1  0.61690980  0.13977668  0.82431341  1
  H+  H31  1  0.63530750  0.76835277  0.85086064  1
  H+  H32  1  0.33671709  0.43797161  0.10024449  1
  H+  H33  1  0.35930404  0.13589404  0.33639528  1
  H+  H34  1  0.14490964  0.86343583  0.50894369  1
  H+  H35  1  0.11485323  0.88634196  0.67198742  1
  H+  H36  1  0.60497290  0.48058125  0.49105393  1
  H+  H37  1  0.97021472  0.61018329  0.51219957  1
  H+  H38  1  0.52215761  0.14127063  0.15834402  1
  H+  H39  1  0.14412400  0.10768366  0.84165250  1
  H+  H40  1  0.41600818  0.06789294  0.25580363  1
  H+  H41  1  0.35460177  0.72538336  0.15110701  1
  H+  H42  1  0.89328505  0.37030965  0.17103893  1
  H+  H43  1  0.03682028  0.89153478  0.16109923  1
  H+  H44  1  0.77904055  0.14471326  0.00368505  1
  H+  H45  1  0.90853843  0.84083906  0.15397813  1
  H+  H46  1  0.65589750  0.58619389  0.60301717  1
  H+  H47  1  0.35733397  0.20188013  0.49369456  1
  H+  H48  1  0.24776907  0.87973318  0.12787814  1
  H+  H49  1  0.09051443  0.40133367  0.82019765  1
  H+  H50  1  0.87175864  0.36545632  0.84335200  1
  H+  H51  1  0.37998751  0.86642989  -0.01219700  1
  H+  H52  1  0.97672337  0.85205912  0.67026349  1
  H+  H53  1  0.73130479  0.36570049  0.16886906  1
  H+  H54  1  0.02457286  0.13743296  0.47088863  1
  H+  H55  1  0.64806196  0.13231341  0.16549670  1
  H+  H56  1  0.86632493  0.38984473  1.00451411  1
  H+  H57  1  0.21760367  0.11617306  0.51279724  1
  H+  H58  1  0.85303312  0.47328779  0.67143257  1
  H+  H59  1  0.53149961  0.39019888  0.34075999  1
  H+  H60  1  0.89128878  0.61035474  0.33947882  1
  H+  H61  1  0.64559695  0.86736606  0.31168102  1
  H+  H62  1  0.63600044  0.76939725  0.00575898  1
  H+  H63  1  0.18388963  0.36162141  0.84962892  1
  H+  H64  1  0.13086145  0.53017749  0.18034651  1
  H+  H65  1  0.39458367  0.02716575  0.83825077  1
  H+  H66  1  0.96285101  0.09991256  0.70262688  1
  H+  H67  1  0.09072646  0.16787366  0.09804751  1
  H+  H68  1  0.52937246  0.63070591  0.83584362  1
  H+  H69  1  0.34646805  0.64210753  0.68499228  1
  H+  H70  1  0.63850344  0.55863075  0.03493390  1
  H+  H71  1  0.13853878  0.61366869  0.99344615  1
  H+  H72  1  0.11770197  0.88361255  0.82174487  1
  H+  H73  1  0.12028076  0.14733497  0.16209689  1
  H+  H74  1  0.64354508  0.11768768  0.30847835  1
  H+  H75  1  0.88642345  0.86422733  0.02505809  1
  H+  H76  1  0.13705296  0.27870847  0.66479537  1
  H+  H77  1  0.62276267  0.52667551  0.66202223  1
  H+  H78  1  0.91415409  0.05830776  0.40737173  1
  H+  H79  1  0.04738601  0.15106252  0.63455684  1
  H+  H80  1  0.12701951  -0.02208520  0.82695781  1
  H+  H81  1  0.64122685  0.02751060  0.84026947  1
  H+  H82  1  0.63885319  0.37663114  0.51191200  1
  H+  H83  1  0.84599097  0.61707101  0.49984805  1
  H+  H84  1  0.82267431  0.65013375  0.73680872  1
  H+  H85  1  0.50742169  0.86832055  0.51170034  1
  H+  H86  1  0.85584144  0.87523562  0.49550659  1
  H+  H87  1  0.10499049  0.63620397  0.66402098  1
  H+  H88  1  0.28294804  0.41772941  0.00727905  1
  H+  H89  1  0.39113005  0.54711677  0.65058218  1
  H+  H90  1  0.88758932  0.10172857  0.45901224  1
  H+  H91  1  0.12449503  0.61791022  0.84285532  1
  H+  H92  1  0.85900294  0.72646644  0.02343924  1
  H+  H93  1  0.85180307  -0.04969809  0.69668828  1
  H+  H94  1  0.26628522  0.12131556  0.67684992  1
  H+  H95  1  0.59495767  0.66395582  0.78004163  1
  H+  H96  1  0.39350950  0.53500252  0.16949719  1
  H+  H97  1  0.92424202  0.33958313  0.23057980  1
  H+  H98  1  0.25617067  0.60981581  0.83205454  1
  H+  H99  1  0.52660603  0.64259783  0.32864523  1
  H+  H100  1  0.62181129  0.85689933  0.66274010  1
  H+  H101  1  0.49477883  0.86853280  0.15656357  1
  H+  H102  1  0.61892461  0.88650521  0.83287605  1
  H+  H103  1  0.02527129  0.39292662  0.15843916  1
  H+  H104  1  0.36389491  0.97172299  0.68064417  1
  H+  H105  1  0.23599576  0.37035616  0.32556691  1
  H+  H106  1  0.11022410  0.87647336  0.36417698  1
  H+  H107  1  0.88964419  0.36128289  0.32603489  1
  H+  H108  1  0.48932800  0.63815216  1.00252631  1
  H+  H109  1  0.36252324  -0.00235237  0.52083400  1
  H+  H110  1  0.72389196  0.36890172  0.51186386  1
  H+  H111  1  0.23092056  0.12582168  0.17476264  1
  H+  H112  1  0.13953104  0.02435009  0.98578603  1
  H+  H113  1  0.36283581  0.25289810  0.98279299  1
  H+  H114  1  0.39308003  0.11623673  0.83657042  1
  H+  H115  1  0.38036381  0.77444951  0.66895790  1
  H+  H116  1  0.36788920  0.97275375  0.34514515  1
  H+  H117  1  0.03904629  0.15346737  0.33399233  1
  H+  H118  1  0.73488764  0.36447050  0.66191572  1
  H+  H119  1  0.97023180  0.77847072  0.53868667  1
  H+  H120  1  0.48104074  0.87318468  0.31368419  1
  H+  H121  1  0.85467793  0.62743729  0.82633176  1
  H+  H122  1  0.01851024  0.63003677  0.35247939  1
  H+  H123  1  0.87737592  0.24172363  0.15478528  1
  H+  H124  1  0.16359722  0.88579348  0.13938666  1
  H+  H125  1  0.51866538  0.90732077  0.00569770  1
  H+  H126  1  0.77422250  0.38446640  0.33575244  1
  H+  H127  1  0.86142264  0.23690696  0.82966747  1
  H+  H128  1  0.47492435  0.11851692  -0.00810698  1
  H+  H129  1  -0.00904906  0.87869016  0.85833813  1
  H+  H130  1  0.33528337  0.42285876  0.59307499  1
  H+  H131  1  0.42167281  0.84268676  0.89904183  1
  H+  H132  1  0.34906291  0.46826083  0.50868265  1
  H+  H133  1  0.59072443  0.39563034  0.69666100  1
  H+  H134  1  0.39186656  1.02565036  0.15905775  1
  H+  H135  1  0.84812000  0.70573869  0.50127233  1
  H+  H136  1  0.61565388  0.72745366  0.48932064  1
  H+  H137  1  0.13132065  0.52982138  0.64647848  1
  H+  H138  1  0.42018020  0.27617988  0.82618900  1
  H+  H139  1  0.44035269  0.09379665  0.51430046  1
  H+  H140  1  0.53321541  0.64571325  0.68832334  1
  H+  H141  1  0.64374627  0.09158556  0.50368961  1
  H+  H142  1  0.40320940  0.52366346  0.85879863  1
  H+  H143  1  0.88123703  0.27640788  0.65898589  1
  H+  H144  1  0.37379493  0.39971443  0.91050907  1
  H+  H145  1  0.60747584  0.37917788  0.14364007  1
  H+  H146  1  0.12116534  0.72556216  -0.01101107  1
  H+  H147  1  0.39294685  0.86791068  0.33006996  1
  H+  H148  1  0.12205906  0.48496529  0.49413581  1
  H+  H149  1  0.98730451  0.61055529  0.15843509  1
  H+  H150  1  0.72915978  0.85859722  0.51944887  1
  H+  H151  1  0.10498373  0.23001445  0.49110532  1
  H+  H152  1  0.52601874  0.13878869  0.67265152  1
  H+  H153  1  0.89741910  0.06946529  0.75657199  1
  H+  H154  1  0.86190119  0.64040412  1.00640273  1
  H+  H155  1  0.85654640  0.13773509  0.68902843  1
  H+  H156  1  0.34717360  0.61700170  0.33835132  1
  H+  H157  1  0.12067241  0.49775832  0.00760352  1
  H+  H158  1  0.58834705  0.21890913  0.48735910  1
  H+  H159  1  0.38528349  0.10204955  0.67057493  1
  H+  H160  1  0.84432742  0.90877000  0.18491548  1
  H+  H161  1  0.14235512  0.04032943  0.18183085  1
  H+  H162  1  0.71993287  0.60960846  -0.00354185  1
  H+  H163  1  0.62146546  0.48024547  0.33540467  1
  H+  H164  1  0.90936707  0.33051517  0.56236843  1
  H+  H165  1  0.37051185  0.86237403  0.16804642  1
  H+  H166  1  0.22414551  0.85785527  0.65639170  1
  H+  H167  1  0.25953676  0.64213475  0.66972568  1
  H+  H168  1  0.53270361  0.17503336  0.42872462  1
  H+  H169  1  0.88658514  0.52639138  0.84085772  1
  H+  H170  1  0.89263673  0.12528244  0.32300631  1
  H+  H171  1  0.89993363  0.13353911  0.16999849  1
  H+  H172  1  0.98688451  0.12767237  0.16989570  1
  H+  H173  1  0.23163146  0.86084126  -0.02633381  1
  H+  H174  1  0.38216477  0.85571979  0.51555181  1
  H+  H175  1  0.48661177  0.24394067  0.50810990  1
  H+  H176  1  0.11923887  0.87647708  -0.01690464  1
  H+  H177  1  0.13117702  0.01708045  0.66390077  1
  H+  H178  1  0.48547944  0.87587649  0.84211115  1
  H+  H179  1  0.64145297  0.36949825  0.32119308  1
  H+  H180  1  0.71368668  0.60470072  0.51173687  1
  H+  H181  1  0.85629672  0.47178956  0.49473087  1
  H+  H182  1  0.72749232  0.11887463  0.83992897  1
  H+  H183  1  0.88707975  0.76036177  0.67131189  1
  H+  H184  1  0.36316150  0.64672607  -0.00019285  1
  H+  H185  1  0.96639835  0.60528008  0.66229239  1
  H+  H186  1  0.39460558  0.52912469  0.30505247  1
  H+  H187  1  0.63040703  0.61444880  0.50471914  1
  H+  H188  1  0.11210061  0.12808025  0.66656062  1
  H+  H189  1  0.77649138  0.14247286  0.32868229  1
  H+  H190  1  0.22064940  0.37160491  0.65482587  1
  H+  H191  1  0.76840520  0.63049894  0.67456229  1
  H+  H192  1  0.63026865  0.99242315  0.31061615  1
  H+  H193  1  -0.01337215  0.87291323  0.31707631  1
  H+  H194  1  0.17166426  0.82572622  0.43015984  1
  H+  H195  1  0.14964309  0.27931576  0.32239024  1
  H+  H196  1  0.88273421  0.02082005  0.99379785  1
  H+  H197  1  0.17038818  1.01127269  0.32843381  1
  H+  H198  1  0.52581779  0.64035974  0.47902765  1
  H+  H199  1  0.35730390  0.22520289  0.15121116  1
  H+  H200  1  0.86640819  0.13987550  0.00161805  1
  H+  H201  1  0.62012534  0.57893511  0.83802029  1
  H+  H202  1  0.77109787  0.62266831  0.33871171  1
  H+  H203  1  0.13049021  0.61988534  0.33437996  1
  H+  H204  1  0.62932413  0.27016847  0.83770339  1
  H+  H205  1  0.38496181  0.61201061  0.49830153  1
  H+  H206  1  0.27650097  0.40066237  0.15875056  1
  H+  H207  1  0.61425202  0.14178079  0.00562980  1
  H+  H208  1  0.12196426  0.21943650  0.82227464  1
  H+  H209  1  0.12941223  0.73910503  0.13718688  1
  H+  H210  1  0.66510870  0.07480111  0.60337746  1
  H+  H211  1  0.32993337  0.39183308  0.42921590  1
  H+  H212  1  0.19390661  0.30436366  0.90173323  1
  H+  H213  1  0.28161849  0.14078191  0.83318271  1
  H+  H214  1  0.25616799  0.38123589  0.51723764  1
  H+  H215  1  1.02419199  0.39811770  1.00786433  1
  H+  H216  1  0.37752131  0.89345586  0.83236488  1
  H+  H217  1  0.38546422  0.60001882  0.84064154  1
  H+  H218  1  0.63579334  0.85408190  0.51694569  1
  H+  H219  1  0.86166270  0.86805330  0.68840619  1
  H+  H220  1  0.48663866  0.62170720  0.16524882  1
  H+  H221  1  0.63065659  0.76408760  0.66908473  1
  H+  H222  1  -0.03159195  0.36804655  0.65683844  1
  H+  H223  1  0.97556824  0.11804765  0.83398352  1
  H+  H224  1  0.63545080  0.03632333  0.99969112  1
  H+  H225  1  0.16978209  0.34096104  0.22780516  1
  H+  H226  1  0.90198706  0.87086152  0.86828589  1
  H+  H227  1  0.39977074  0.36110379  0.34403560  1
  H+  H228  1  0.16711103  0.58864963  0.58673664  1
  H+  H229  1  0.36894965  0.51187821  0.00975090  1
  H+  H230  1  0.16643107  0.60456771  0.47386308  1
  H+  H231  1  0.62070961  0.64238013  0.67841198  1
  H+  H232  1  0.97786768  0.35690486  0.32740717  1
  H+  H233  1  0.40888137  0.07014394  0.61004042  1
  H+  H234  1  0.11036928  -0.01037797  0.50243617  1
  H+  H235  1  0.39247802  0.47321102  0.39407863  1
  H+  H236  1  0.87563788  0.60367909  0.66456800  1
  H+  H237  1  0.63700329  0.26719821  0.66022237  1
  H+  H238  1  0.61303843  0.22990017  1.00621181  1
  H+  H239  1  0.11253046  0.73363146  0.82445410  1
  H+  H240  1  0.63360518  0.10877100  0.65999158  1
  H+  H241  1  0.78399422  0.12803447  0.48699930  1
  H+  H242  1  0.63149332  0.35967245  0.98916959  1
  H+  H243  1  0.88785340  0.12407912  0.83595958  1
  H+  H244  1  0.15828071  0.24329929  0.98889601  1
  H+  H245  1  0.35839642  0.20477163  0.66974242  1
  H+  H246  1  0.71150425  0.86995900  0.16238748  1
  H+  H247  1  0.90752352  0.57392806  0.56970584  1
  H+  H248  1  0.33370192  0.91231739  0.73958633  1
  H+  H249  1  0.89636518  0.27904627  0.99309408  1
  H+  H250  1  0.59125041  0.42577241  0.42812651  1
  H+  H251  1  0.86823102  0.98224661  0.32475312  1
  H+  H252  1  0.13875284  0.28154357  0.16818479  1
  H+  H253  1  1.02600837  0.39698389  0.49483035  1
  H+  H254  1  0.46606348  0.35275927  0.15342679  1
  H+  H255  1  0.03136102  0.13105543  0.00361579  1
  H+  H256  1  0.38170369  0.36036554  0.15868400  1
  H+  H257  1  0.76201322  0.38801881  0.82816452  1
  H+  H258  1  0.72352106  0.85668489  0.85012714  1
  H+  H259  1  0.63610610  0.00125997  0.51040267  1
  H+  H260  1  0.89564912  0.60353138  0.16501051  1
  H+  H261  1  0.55409224  0.42952579  0.81622029  1
  H+  H262  1  0.21841016  0.60601660  0.32988444  1
  H+  H263  1  0.59018606  0.45753490  -0.01912685  1
  H+  H264  1  0.63928180  0.61185215  0.32177299  1
  H+  H265  1  0.61067303  0.96910482  0.67275833  1
  H+  H266  1  0.58482669  0.87108358  0.15387469  1
  H+  H267  1  0.08963203  0.91761226  0.73442888  1
  H+  H268  1  0.85365031  0.38149061  0.49411566  1
  H+  H269  1  0.36134457  0.71554156  0.50155087  1
  H+  H270  1  0.38111874  0.77766697  -0.00972327  1
  H+  H271  1  0.89705569  0.52458863  0.33553410  1
  H+  H272  1  0.11350355  0.73357655  0.50452744  1
  H+  H273  1  0.38405197  0.11190227  0.16717889  1
  H+  H274  1  0.23065067  0.61343971  0.99474175  1
  H+  H275  1  0.85502411  -0.03526477  0.83622663  1
  H+  H276  1  0.26524505  0.87176490  0.50133201  1
  H+  H277  1  0.76928631  0.88386780  0.01062907  1
  H+  H278  1  0.87419932  0.47735920  0.15695590  1
  H+  H279  1  0.66020113  0.82952771  0.22267237  1
  H+  H280  1  0.87523855  0.71256544  0.16112046  1
  H+  H281  1  0.88801464  0.27380528  0.50171954  1
  H+  H282  1  0.42477377  0.36445346  0.84183380  1
  H+  H283  1  0.09848912  0.49357671  0.82674699  1
  H+  H284  1  0.64047882  0.27745606  0.16899631  1
  H+  H285  1  0.83310921  0.16930513  0.42409339  1
  H+  H286  1  0.13978985  0.76666221  0.37205088  1
  H+  H287  1  0.41121004  0.27952113  0.33714598  1
  H+  H288  1  0.52682624  0.13853532  0.82282001  1
  H+  H289  1  0.43529667  0.58438838  0.54671530  1
  H+  H290  1  0.82067518  0.41436240  0.76866656  1
  H+  H291  1  0.92824167  0.08527060  0.58300524  1
  H+  H292  1  0.17306910  0.08464665  0.90620565  1
  H+  H293  1  0.74102740  0.13704803  0.16326137  1
  H+  H294  1  0.77715754  0.39029318  0.00532620  1
  H+  H295  1  0.34889097  0.13303464  0.00055728  1
  H+  H296  1  0.15307570  0.58090533  0.90180481  1
  H+  H297  1  0.09558258  0.66765996  0.08807169  1
  H+  H298  1  0.37161361  0.64676828  0.14746268  1
  H+  H299  1  0.25825364  0.29072587  0.97224406  1
  H+  H300  1  0.82803793  0.89446321  0.78406129  1
  H+  H301  1  0.12478341  0.36719531  0.50662845  1
  H+  H302  1  0.91304921  0.07750602  0.93329908  1
  H+  H303  1  0.94378635  0.13268568  0.58481955  1
  H+  H304  1  0.43371110  0.64376976  0.62536071  1
  H+  H305  1  0.02699561  0.89655935  0.50342250  1
  H+  H306  1  0.41190190  0.82813612  0.57686834  1
  H+  H307  1  0.33318884  0.92428355  0.05456860  1
  H+  H308  1  0.16193907  0.08153174  0.60536000  1
  H+  H309  1  0.83026885  0.92883137  0.06881738  1
  H+  H310  1  0.31397303  0.64792150  0.77407526  1
  H+  H311  1  0.91830885  0.58760130  0.93400942  1
  H+  H312  1  0.07824960  0.65242565  0.41329485  1
  H+  H313  1  0.83266729  0.65468185  0.10224254  1
  H+  H314  1  0.07294185  0.43243250  0.72638735  1
  H+  H315  1  0.10199888  0.18089441  0.39044449  1
  H+  H316  1  0.66876170  0.83036118  0.94670836  1
  H+  H317  1  0.15651943  0.59167181  0.26255452  1
  H+  H318  1  0.57730645  0.66589249  0.09021019  1
  H+  H319  1  0.66966435  0.09176908  0.93766951  1
  H+  H320  1  0.83088441  0.17973634  0.76901863  1
  H+  H321  1  0.18958471  0.83613835  0.79210656  1
  H+  H322  1  0.66617984  0.33616006  0.59866502  1
  H+  H323  1  0.21441376  0.88078020  0.25131949  1
  H+  H324  1  0.30673225  0.37561713  0.85772112  1
  H+  H325  1  0.32020466  0.15872775  0.09592738  1
  H+  H326  1  0.17618768  0.82691545  0.91128895  1
  H+  H327  1  0.84758844  0.18101178  0.09489258  1
  H+  H328  1  0.08472946  0.15989018  0.76413078  1
  H+  H329  1  0.61418080  0.94654090  0.37285708  1
  H+  H330  1  0.08003003  0.95469629  0.10621601  1
  H+  H331  1  0.42878221  0.60516489  0.93984627  1
  H+  H332  1  0.62453963  0.24333223  0.33154510  1
  H+  H333  1  0.81916425  0.64603327  0.40212659  1
  H+  H334  1  0.92849477  0.09968163  0.26519496  1
  H+  H335  1  0.92245962  0.34116398  0.93502623  1
  H+  H336  1  0.42075872  0.95254777  0.11079123  1
  H+  H337  1  0.07665771  0.92239479  0.40578053  1
  H+  H338  1  0.13136687  0.12256209  0.51219641  1
  H+  H339  1  0.38711951  0.86605953  0.66856106  1
  H+  H340  1  0.20163362  0.07960442  0.27622225  1
  H+  H341  1  0.78263116  0.89142806  0.32561130  1
  H+  H342  1  0.58662147  0.67288634  0.38832941  1
  H+  H343  1  0.67010402  0.33990174  0.25958220  1
  H+  H344  1  0.28572567  0.89101005  0.83424865  1
  H+  H345  1  0.14405781  0.33026889  0.56810368  1
  H+  H346  1  0.32969167  0.67138081  0.05979838  1
  H+  H347  1  0.66907459  0.33203249  0.93533332  1
  H+  H348  1  0.66933276  0.58505596  0.26141451  1
  H+  H349  1  0.40948769  0.30225447  0.92112179  1
  H+  H350  1  0.42189083  0.09146569  0.92971675  1
  H+  H351  1  0.86028721  0.96419703  0.48420686  1
  H+  H352  1  0.57190449  0.39468239  0.08144257  1
  H+  H353  1  0.10606173  0.64008842  0.51493676  1
  H+  H354  1  0.11646012  0.89423536  0.05049400  1
  H+  H355  1  0.07582828  0.66068203  0.76976446  1
  H+  H356  1  0.07931033  0.40492027  0.40017054  1
  H+  H357  1  0.34535218  0.16439892  0.39946869  1
  H+  H358  1  0.36898072  0.41695123  0.66068718  1
  H+  H359  1  0.08370977  0.42871842  0.07326542  1
  H+  H360  1  0.43478994  0.28856380  0.58438577  1
  H+  H361  1  0.33254750  0.16068602  0.76998316  1
  H+  H362  1  0.28106876  0.88701693  0.36606311  1
  H+  H363  1  0.59942240  0.64478139  0.00594671  1
  H+  H364  1  0.93359818  0.83682562  0.22661994  1
  H+  H365  1  0.31850056  0.63890515  0.40225812  1
  H+  H366  1  0.42500571  0.59737030  0.25218539  1
  H+  H367  1  0.62511131  0.35695293  0.84358037  1
  H+  H368  1  0.17009293  0.83066033  0.59364155  1
  H+  H369  1  0.64723152  0.19181333  0.37913934  1
  H+  H370  1  0.96390859  0.37497778  0.83731002  1
  H+  H371  1  0.58052800  0.17108290  0.09845990  1
  H+  H372  1  0.65789076  0.82206520  0.60141748  1
  H+  H373  1  0.02893460  0.63908400  -0.00352287  1
  H+  H374  1  0.55988013  0.87833024  0.45167126  1
  H+  H375  1  0.25352802  0.12691618  0.99764151  1
  H+  H376  1  0.16938287  0.84314850  0.24999192  1
  H+  H377  1  0.59198460  0.91555977  0.77178254  1
  H+  H378  1  0.56899198  0.93128386  0.06874100  1
  H+  H379  1  0.39590520  0.82963604  0.23001313  1
  H+  H380  1  0.58862582  0.17110424  0.73086772  1
  H+  H381  1  0.83788441  0.41388994  0.10002440  1
  H+  H382  1  0.92302086  0.81059667  0.58231042  1
  H+  H383  1  0.68171737  0.10007249  0.24622561  1
  O2-  O384  1  0.08854358  0.17467749  0.14312940  1
  O2-  O385  1  0.08830468  0.17254592  0.47364820  1
  O2-  O386  1  0.08067895  0.15976474  0.80848592  1
  O2-  O387  1  0.08542460  0.42466941  0.14090861  1
  O2-  O388  1  0.08609736  0.42065342  0.48098598  1
  O2-  O389  1  0.06460844  0.43405334  0.80534261  1
  O2-  O390  1  0.09778445  0.67516784  0.13301244  1
  O2-  O391  1  0.07662170  0.66699993  0.49480491  1
  O2-  O392  1  0.07753257  0.66483203  0.81463563  1
  O2-  O393  1  0.09431403  0.93783638  0.14474487  1
  O2-  O394  1  0.08490603  0.93005913  0.48583283  1
  O2-  O395  1  0.09271109  0.92039684  0.80765739  1
  O2-  O396  1  0.32527099  0.16095663  0.14106160  1
  O2-  O397  1  0.30960280  0.14381026  0.48337818  1
  O2-  O398  1  0.34112227  0.16903164  0.81470427  1
  O2-  O399  1  0.33756295  0.43158746  0.14585702  1
  O2-  O400  1  0.32066711  0.40632047  0.51993268  1
  O2-  O401  1  0.36864246  0.41330950  0.86788488  1
  O2-  O402  1  0.33644483  0.66983240  0.13000789  1
  O2-  O403  1  0.33531248  0.65567314  0.48650591  1
  O2-  O404  1  0.31006465  0.61938700  0.81308782  1
  O2-  O405  1  0.36407761  0.93840121  0.12578691  1
  O2-  O406  1  0.33172357  0.90486095  0.49285500  1
  O2-  O407  1  0.34413834  0.92323146  0.81656268  1
  O2-  O408  1  0.58358816  0.17360933  0.14387187  1
  O2-  O409  1  0.53024807  0.17454129  0.47334858  1
  O2-  O410  1  0.58783429  0.17079915  0.80716830  1
  O2-  O411  1  0.56985963  0.39890645  0.12591953  1
  O2-  O412  1  0.58696916  0.42224194  0.47432594  1
  O2-  O413  1  0.61060443  0.47471826  0.80012716  1
  O2-  O414  1  0.58059769  0.66242909  0.13854027  1
  O2-  O415  1  0.58793777  0.67073916  0.46831941  1
  O2-  O416  1  0.59160924  0.65482607  0.82450124  1
  O2-  O417  1  0.55445152  0.90133240  0.14067676  1
  O2-  O418  1  0.56965468  0.89432596  0.49450678  1
  O2-  O419  1  0.59461030  0.92231923  0.81635417  1
  O2-  O420  1  0.84771394  0.18062935  0.14037572  1
  O2-  O421  1  0.84132203  0.16492316  0.46921629  1
  O2-  O422  1  0.83432189  0.17647160  0.81413836  1
  O2-  O423  1  0.83880699  0.41351386  0.14523900  1
  O2-  O424  1  0.82147617  0.41075009  0.48077773  1
  O2-  O425  1  0.82289853  0.41662346  0.81364659  1
  O2-  O426  1  0.83677069  0.65254729  0.14754645  1
  O2-  O427  1  0.81311512  0.64580088  0.48670533  1
  O2-  O428  1  0.81650212  0.64582173  0.80691388  1
  O2-  O429  1  0.82998289  0.93899510  0.15469503  1
  O2-  O430  1  0.82967750  0.90920632  0.50723450  1
  O2-  O431  1  0.82579785  0.90239414  0.82925903  1
  O2-  O432  1  0.17233077  0.10146662  0.19423738  1
  O2-  O433  1  0.15851121  0.09130305  0.53151081  1
  O2-  O434  1  0.17974263  0.08514286  0.85824243  1
  O2-  O435  1  0.16581291  0.34241002  0.18255201  1
  O2-  O436  1  0.15116982  0.33200742  0.52337675  1
  O2-  O437  1  0.19527660  0.31463427  0.85482551  1
  O2-  O438  1  0.15325242  0.58697074  0.19968948  1
  O2-  O439  1  0.17693097  0.57998614  0.51032871  1
  O2-  O440  1  0.14943885  0.58043115  0.85661863  1
  O2-  O441  1  0.18448047  0.84860029  0.12305720  1
  O2-  O442  1  0.17062586  0.82699175  0.51566584  1
  O2-  O443  1  0.16278020  0.82350426  0.83213406  1
  O2-  O444  1  0.41803838  0.08467266  0.18055851  1
  O2-  O445  1  0.38538127  0.05899239  0.53589331  1
  O2-  O446  1  0.42724884  0.08927260  0.85069835  1
  O2-  O447  1  0.40540791  0.32247452  0.16791100  1
  O2-  O448  1  0.46182853  0.28070819  0.51757880  1
  O2-  O449  1  0.45964195  0.33546753  0.84148420  1
  O2-  O450  1  0.42611186  0.59655206  0.18314281  1
  O2-  O451  1  0.41931025  0.57915715  0.50404098  1
  O2-  O452  1  0.42860584  0.58691097  0.85913285  1
  O2-  O453  1  0.38949128  0.82237310  0.18493145  1
  O2-  O454  1  0.41421811  0.82624318  0.53123051  1
  O2-  O455  1  0.42408606  0.84832988  0.85360578  1
  O2-  O456  1  0.68271794  0.10732119  0.18155984  1
  O2-  O457  1  0.67208073  0.06316705  0.52237232  1
  O2-  O458  1  0.66656995  0.08872817  0.85370821  1
  O2-  O459  1  0.67080004  0.33827975  0.18389127  1
  O2-  O460  1  0.66420923  0.34271011  0.52974212  1
  O2-  O461  1  0.65896894  0.33019191  0.85493264  1
  O2-  O462  1  0.67270133  0.59551659  0.19168969  1
  O2-  O463  1  0.65218323  0.57967407  0.52543163  1
  O2-  O464  1  0.64319253  0.53941078  0.84890475  1
  O2-  O465  1  0.65342876  0.82952682  0.17752578  1
  O2-  O466  1  0.66588865  0.82363093  0.53159373  1
  O2-  O467  1  0.66117788  0.82978902  0.86177851  1
  O2-  O468  1  0.92728408  0.10122167  0.18749714  1
  O2-  O469  1  0.91638881  0.06705279  0.45145033  1
  O2-  O470  1  0.91254649  0.08552832  0.84217345  1
  O2-  O471  1  0.92709086  0.34201040  0.18504709  1
  O2-  O472  1  0.91193668  0.33341098  0.51709175  1
  O2-  O473  1  0.90680302  0.33905792  0.85697230  1
  O2-  O474  1  0.92828090  0.57340893  0.17377500  1
  O2-  O475  1  0.90807138  0.57503609  0.52419999  1
  O2-  O476  1  0.91617212  0.58593965  0.85671707  1
  O2-  O477  1  0.93919238  0.82249107  0.18104790  1
  O2-  O478  1  0.93183415  0.80206745  0.53750346  1
  O2-  O479  1  0.94657223  0.86436007  0.88945941  1
  O2-  O480  1  0.22214808  0.06091438  0.31128002  1
  O2-  O481  1  0.16213904  0.07968084  0.65136607  1
  O2-  O482  1  0.16619355  0.08482250  0.97332126  1
  O2-  O483  1  0.17876053  0.34157615  0.30728303  1
  O2-  O484  1  0.15738835  0.33821765  0.65078370  1
  O2-  O485  1  0.20705364  0.29657782  0.96790681  1
  O2-  O486  1  0.15995385  0.59171052  0.31156867  1
  O2-  O487  1  0.16313117  0.59046024  0.63232406  1
  O2-  O488  1  0.16612741  0.57819872  0.98159039  1
  O2-  O489  1  0.17210430  0.82842308  0.38496191  1
  O2-  O490  1  0.16503598  0.83076274  0.63961301  1
  O2-  O491  1  0.17234303  0.82476609  0.95640809  1
  O2-  O492  1  0.41845279  0.06109317  0.30104290  1
  O2-  O493  1  0.42072293  0.07727179  0.65508180  1
  O2-  O494  1  0.41544958  0.08923895  0.97481371  1
  O2-  O495  1  0.43439491  0.34040222  0.32371622  1
  O2-  O496  1  0.41286932  0.29755278  0.62497277  1
  O2-  O497  1  0.39005824  0.31128961  0.96097768  1
  O2-  O498  1  0.42157211  0.59095031  0.29945732  1
  O2-  O499  1  0.42515880  0.60948815  0.66171793  1
  O2-  O500  1  0.42394181  0.60768247  0.98452961  1
  O2-  O501  1  0.41888316  0.83941795  0.30647994  1
  O2-  O502  1  0.41708669  0.83470932  0.65333524  1
  O2-  O503  1  0.41310478  0.83798168  0.97484578  1
  O2-  O504  1  0.67806832  0.09248998  0.29435300  1
  O2-  O505  1  0.66313185  0.07624419  0.64845740  1
  O2-  O506  1  0.67404944  0.09760483  0.98252249  1
  O2-  O507  1  0.67020653  0.33747269  0.30552560  1
  O2-  O508  1  0.66950312  0.33045048  0.64584289  1
  O2-  O509  1  0.67002781  0.33551505  0.98042431  1
  O2-  O510  1  0.66719320  0.57934918  0.30798106  1
  O2-  O511  1  0.65886807  0.58772599  0.64857538  1
  O2-  O512  1  0.65596868  0.57423063  0.99266048  1
  O2-  O513  1  0.67481130  0.83532666  0.29914318  1
  O2-  O514  1  0.65182713  0.82344279  0.64800485  1
  O2-  O515  1  0.67777247  0.83065456  0.99090106  1
  O2-  O516  1  0.92578674  0.09662450  0.31079070  1
  O2-  O517  1  0.90113099  0.07394927  0.71159514  1
  O2-  O518  1  0.91534884  0.08192499  0.97792088  1
  O2-  O519  1  0.91783546  0.33007064  0.30886576  1
  O2-  O520  1  0.90720925  0.33616569  0.64255838  1
  O2-  O521  1  0.92721555  0.34134406  0.98035848  1
  O2-  O522  1  0.93049578  0.58715329  0.32870509  1
  O2-  O523  1  0.90489021  0.57186397  0.64849980  1
  O2-  O524  1  0.92234525  0.59031993  0.97953859  1
  O2-  O525  1  0.93466907  0.85477731  0.29154378  1
  O2-  O526  1  0.91643839  0.82037476  0.65438184  1
  O2-  O527  1  0.91518880  0.83134525  1.03739554  1
  O2-  O528  1  0.09072823  0.15639797  0.01930695  1
  O2-  O529  1  0.10041159  0.18428327  0.34566698  1
  O2-  O530  1  0.07907310  0.16076354  0.67268416  1
  O2-  O531  1  0.08446055  0.43239181  0.02558393  1
  O2-  O532  1  0.07105151  0.39618528  0.35571393  1
  O2-  O533  1  0.07346596  0.42600894  0.68134854  1
  O2-  O534  1  0.09126541  0.66678787  0.00795257  1
  O2-  O535  1  0.08225479  0.65808427  0.36830497  1
  O2-  O536  1  0.07304840  0.66267988  0.68247660  1
  O2-  O537  1  0.09702681  0.90437877  0.01147168  1
  O2-  O538  1  0.08015739  0.91025372  0.36207349  1
  O2-  O539  1  0.08465405  0.91603602  0.68808634  1
  O2-  O540  1  0.31736335  0.16199844  0.01460585  1
  O2-  O541  1  0.38675728  0.18331881  0.36585947  1
  O2-  O542  1  0.32716231  0.14889117  0.69142981  1
  O2-  O543  1  0.33872092  0.45130330  0.02683238  1
  O2-  O544  1  0.34591018  0.41483268  0.38757778  1
  O2-  O545  1  0.33688029  0.43838260  0.63808862  1
  O2-  O546  1  0.32433501  0.66978924  0.01318868  1
  O2-  O547  1  0.30038264  0.61962894  0.36011082  1
  O2-  O548  1  0.31550773  0.67351478  0.69233040  1
  O2-  O549  1  0.32823415  0.92047065  0.00817387  1
  O2-  O550  1  0.34484897  0.91884325  0.37004815  1
  O2-  O551  1  0.33142472  0.91035963  0.69382120  1
  O2-  O552  1  0.58010927  0.16886963  0.01996726  1
  O2-  O553  1  0.60091556  0.18439499  0.35229491  1
  O2-  O554  1  0.58853969  0.17210098  0.68477804  1
  O2-  O555  1  0.56213960  0.39689924  -0.00552855  1
  O2-  O556  1  0.59478924  0.42105203  0.35397218  1
  O2-  O557  1  0.55767369  0.42237469  0.68401079  1
  O2-  O558  1  0.57282267  0.67476270  0.02527707  1
  O2-  O559  1  0.58737178  0.67311198  0.34315839  1
  O2-  O560  1  0.59555472  0.67708993  0.69729190  1
  O2-  O561  1  0.57451315  0.94769705  0.02457675  1
  O2-  O562  1  0.60220575  0.93293036  0.32997639  1
  O2-  O563  1  0.58187297  0.90790663  0.68644859  1
  O2-  O564  1  0.84136478  0.17551754  0.01614299  1
  O2-  O565  1  0.83401791  0.17111539  0.34917814  1
  O2-  O566  1  0.82918893  0.17417357  0.68927722  1
  O2-  O567  1  0.83802773  0.42166317  0.01968764  1
  O2-  O568  1  0.83272368  0.40831679  0.35387284  1
  O2-  O569  1  0.82019767  0.41049255  0.68484870  1
  O2-  O570  1  0.82522294  0.66162797  0.02419797  1
  O2-  O571  1  0.82870990  0.64753608  0.35800998  1
  O2-  O572  1  0.82803086  0.65503694  0.69009708  1
  O2-  O573  1  0.83280616  0.92328222  0.02446989  1
  O2-  O574  1  0.84273163  0.92309788  0.34083938  1
  O2-  O575  1  0.82686635  0.88985110  0.70853047  1
