# generated using pymatgen
data_H2O
_symmetry_space_group_name_H-M   'P 1'
_cell_length_a   17.99590448
_cell_length_b   18.00075454
_cell_length_c   22.00364067
_cell_angle_alpha   89.99250436
_cell_angle_beta   90.00500913
_cell_angle_gamma   120.00216625
_symmetry_Int_Tables_number   1
_chemical_formula_structural   H2O
_chemical_formula_sum   'H384 O192'
_cell_volume   6172.76979166
_cell_formula_units_Z   192
loop_
 _symmetry_equiv_pos_site_id
 _symmetry_equiv_pos_as_xyz
  1  'x, y, z'
loop_
 _atom_type_symbol
 _atom_type_oxidation_number
  H+  1.0
  O2-  -2.0
loop_
 _atom_site_type_symbol
 _atom_site_label
 _atom_site_symmetry_multiplicity
 _atom_site_fract_x
 _atom_site_fract_y
 _atom_site_fract_z
 _atom_site_occupancy
  H+  H0  1  0.59892688  0.98985443  0.82344171  1
  H+  H1  1  0.13787034  0.36350932  0.16928252  1
  H+  H2  1  0.10126065  0.49266298  0.82600747  1
  H+  H3  1  0.85946594  0.89889626  0.67044217  1
  H+  H4  1  0.11093503  0.14210344  0.49777131  1
  H+  H5  1  0.63596224  0.11066667  0.17965003  1
  H+  H6  1  0.10664971  -0.02289365  0.66638830  1
  H+  H7  1  0.88214269  0.13296061  0.33475318  1
  H+  H8  1  0.86252352  0.23605059  0.34306374  1
  H+  H9  1  0.76013449  0.87046201  0.48218891  1
  H+  H10  1  0.93373481  0.82412859  0.90159942  1
  H+  H11  1  0.88056394  0.35930744  0.32649151  1
  H+  H12  1  1.02551134  0.38246485  0.49349847  1
  H+  H13  1  0.62853926  0.85437499  0.49385170  1
  H+  H14  1  0.86271936  0.23544167  0.00618676  1
  H+  H15  1  0.88923643  0.60432590  0.48844092  1
  H+  H16  1  0.14008306  0.36591033  0.50869841  1
  H+  H17  1  0.13680526  0.52517769  0.65543285  1
  H+  H18  1  0.01931764  0.89430707  0.02021394  1
  H+  H19  1  0.09568665  0.36932852  0.33243194  1
  H+  H20  1  0.86682579  0.62347191  0.99915959  1
  H+  H21  1  0.59210757  0.96448392  0.45342619  1
  H+  H22  1  0.38968530  0.82739489  0.26717173  1
  H+  H23  1  0.38698485  0.60466779  0.16999377  1
  H+  H24  1  0.89910359  0.13591656  0.50821272  1
  H+  H25  1  0.36738284  0.85793638  0.84553622  1
  H+  H26  1  0.39901889  0.52300847  0.49828312  1
  H+  H27  1  0.53328039  0.14055073  0.48961860  1
  H+  H28  1  0.66710382  0.33118275  1.09572466  1
  H+  H29  1  0.36024262  0.50036836  0.66612648  1
  H+  H30  1  0.88558459  0.36383902  0.50373135  1
  H+  H31  1  0.57118980  0.91130993  0.11467476  1
  H+  H32  1  0.13268622  0.86938742  0.00991859  1
  H+  H33  1  0.14714306  0.33002916  0.89897275  1
  H+  H34  1  0.35723156  0.38209565  0.00219232  1
  H+  H35  1  -0.02332804  0.87327793  0.20472090  1
  H+  H36  1  0.61787503  0.72092084  0.33055816  1
  H+  H37  1  0.46698716  0.86144775  0.18401253  1
  H+  H38  1  0.99745521  0.13704477  0.50991891  1
  H+  H39  1  0.60565168  0.72293536  0.83529531  1
  H+  H40  1  0.74519136  0.58182643  0.84481148  1
  H+  H41  1  0.60688285  0.91314365  0.00733552  1
  H+  H42  1  0.42938734  0.31799233  0.36114500  1
  H+  H43  1  0.65265823  0.82415857  0.59428159  1
  H+  H44  1  0.64015566  0.27488248  0.50583476  1
  H+  H45  1  0.23092733  0.61463148  1.00488435  1
  H+  H46  1  0.33071892  0.66432063  0.73292137  1
  H+  H47  1  0.96974476  0.35620078  0.33064307  1
  H+  H48  1  0.41474862  0.33055044  0.55654695  1
  H+  H49  1  0.36666630  0.22336222  0.16414452  1
  H+  H50  1  0.61993572  0.70489070  0.00309836  1
  H+  H51  1  0.38856160  0.11095434  0.18121328  1
  H+  H52  1  0.84533492  0.93616507  0.08161097  1
  H+  H53  1  0.77339532  0.14279901  0.34692880  1
  H+  H54  1  0.86086649  0.38827389  0.67151820  1
  H+  H55  1  0.64970560  0.61709549  0.32560720  1
  H+  H56  1  0.98287520  0.12266408  0.66153363  1
  H+  H57  1  0.47163719  0.85117322  0.48668991  1
  H+  H58  1  0.87375968  0.72025190  0.82874624  1
  H+  H59  1  0.52943485  0.13594727  1.00977169  1
  H+  H60  1  0.36721014  0.59979581  0.67061037  1
  H+  H61  1  0.63881423  0.87382696  0.18325493  1
  H+  H62  1  0.87303499  0.23844400  0.49617774  1
  H+  H63  1  0.02344031  0.14318366  0.00359525  1
  H+  H64  1  -0.04343474  0.57226152  0.15659648  1
  H+  H65  1  0.61630587  0.23319001  0.67037673  1
  H+  H66  1  0.38575104  0.83729656  0.64176580  1
  H+  H67  1  0.12966568  0.36656581  0.99438697  1
  H+  H68  1  0.89532869  0.27944754  0.66242973  1
  H+  H69  1  0.18787406  0.86744375  0.54275133  1
  H+  H70  1  0.86474721  0.87555660  0.32841407  1
  H+  H71  1  0.57438714  0.90204642  0.28377648  1
  H+  H72  1  0.62989464  0.85801157  0.65471898  1
  H+  H73  1  0.45875811  0.86494108  0.84016850  1
  H+  H74  1  0.58587943  0.36627898  0.81809395  1
  H+  H75  1  0.85268799  0.63366452  0.67074993  1
  H+  H76  1  0.48854038  0.11913280  0.65332885  1
  H+  H77  1  0.60878134  0.61176837  0.99380595  1
  H+  H78  1  -0.01647733  0.36691930  0.65838594  1
  H+  H79  1  0.45931534  0.35650534  0.65462308  1
  H+  H80  1  0.38368331  0.35645949  0.17646673  1
  H+  H81  1  0.36950313  0.51750614  0.83410811  1
  H+  H82  1  0.61767859  0.61058487  0.67432570  1
  H+  H83  1  0.78504329  0.64666799  0.30700940  1
  H+  H84  1  1.02389185  0.61868180  0.48840273  1
  H+  H85  1  0.35284593  0.63453805  0.82573173  1
  H+  H86  1  0.10922643  0.63701810  0.64597669  1
  H+  H87  1  0.12234970  0.64514668  0.00949447  1
  H+  H88  1  0.86766142  0.13320910  0.82535174  1
  H+  H89  1  0.50754866  0.87975248  1.01594730  1
  H+  H90  1  -0.02566185  0.36508303  -0.00118748  1
  H+  H91  1  0.98594850  0.60926365  0.99907303  1
  H+  H92  1  0.58969528  0.71687247  0.66675168  1
  H+  H93  1  0.39286740  0.61008841  0.32280592  1
  H+  H94  1  0.21252736  0.86891789  0.64896044  1
  H+  H95  1  0.60523046  0.45900902  0.81991069  1
  H+  H96  1  0.61858833  0.22360973  0.02935172  1
  H+  H97  1  0.64119264  0.36270928  0.31465808  1
  H+  H98  1  0.59564189  0.46881246  0.66992414  1
  H+  H99  1  0.13310473  0.60136040  0.49563824  1
  H+  H100  1  0.42712780  0.02910963  0.62478994  1
  H+  H101  1  0.36576609  0.38631234  0.48655327  1
  H+  H102  1  0.35648584  0.70868289  0.49137758  1
  H+  H103  1  0.86744939  0.89574071  0.02462501  1
  H+  H104  1  0.32770999  0.99600081  0.69369488  1
  H+  H105  1  0.35060869  0.22206606  0.32145160  1
  H+  H106  1  0.88545123  0.60692677  0.29520611  1
  H+  H107  1  0.88997459  0.27126222  0.17436717  1
  H+  H108  1  0.51657577  0.36805192  1.00139235  1
  H+  H109  1  0.26764746  0.61959418  0.49126089  1
  H+  H110  1  0.52819856  0.89212647  0.66505606  1
  H+  H111  1  0.96972817  0.86553521  0.66665306  1
  H+  H112  1  0.12624975  0.77518324  0.85930505  1
  H+  H113  1  0.09402740  0.12183013  0.34379856  1
  H+  H114  1  0.11110035  0.23183849  1.00758776  1
  H+  H115  1  0.11607421  0.26259295  0.31932066  1
  H+  H116  1  0.22256560  0.11007208  0.83645254  1
  H+  H117  1  0.62785833  0.76561256  0.49843227  1
  H+  H118  1  0.37031128  0.26825562  0.83104170  1
  H+  H119  1  0.02047906  0.46773285  0.78526301  1
  H+  H120  1  0.73660337  0.81544494  0.86979720  1
  H+  H121  1  0.45606153  0.60994560  0.83569324  1
  H+  H122  1  0.64098817  0.12700947  -0.00505652  1
  H+  H123  1  0.21533547  0.11452540  0.32496057  1
  H+  H124  1  0.83016218  0.41533389  0.39257338  1
  H+  H125  1  0.11443860  0.35023572  0.83667127  1
  H+  H126  1  0.85379463  0.92432885  0.90801481  1
  H+  H127  1  0.76588573  0.63628374  0.68072786  1
  H+  H128  1  0.34456555  0.42258695  0.39128938  1
  H+  H129  1  0.68050700  0.36082690  0.90938397  1
  H+  H130  1  0.64258739  0.56174241  0.15317178  1
  H+  H131  1  0.34387335  0.91976087  0.69692452  1
  H+  H132  1  0.60739972  0.22925566  0.82369660  1
  H+  H133  1  0.54108852  0.40043675  0.32845863  1
  H+  H134  1  0.72735227  0.35900999  0.31739329  1
  H+  H135  1  0.13813223  0.02129324  0.32818230  1
  H+  H136  1  1.02241160  0.63006408  0.84575179  1
  H+  H137  1  0.22407678  0.61415187  0.65580077  1
  H+  H138  1  0.16501350  0.85048610  0.32931169  1
  H+  H139  1  0.23885221  0.91115344  0.48126764  1
  H+  H140  1  0.52272124  0.63301727  0.48638861  1
  H+  H141  1  0.10398460  0.88757622  0.66038267  1
  H+  H142  1  0.86848272  0.22502536  0.82784771  1
  H+  H143  1  0.52409072  0.40392773  0.16207032  1
  H+  H144  1  0.11745518  0.14363260  0.66698264  1
  H+  H145  1  -0.10766232  0.78063466  0.28815554  1
  H+  H146  1  0.73419435  0.86624154  1.01746366  1
  H+  H147  1  0.22089937  0.85418631  0.17423797  1
  H+  H148  1  0.11640418  0.73256370  1.01101639  1
  H+  H149  1  0.10790972  0.47683034  0.01165525  1
  H+  H150  1  0.12696327  0.86406896  0.84590854  1
  H+  H151  1  0.61611545  0.63957575  0.47821326  1
  H+  H152  1  0.98954316  0.86092949  0.83958837  1
  H+  H153  1  0.63655795  0.82105613  1.03708101  1
  H+  H154  1  0.60124058  0.90542042  0.82469673  1
  H+  H155  1  0.11708704  0.50426925  0.31548440  1
  H+  H156  1  0.36556222  0.63882510  0.01245443  1
  H+  H157  1  0.62107586  0.13734079  0.49464125  1
  H+  H158  1  0.27834319  0.38902319  0.48734026  1
  H+  H159  1  0.47653234  0.10992876  0.18478300  1
  H+  H160  1  0.36210948  0.13339183  1.00810914  1
  H+  H161  1  0.13084932  0.60584572  0.16772502  1
  H+  H162  1  0.27825608  0.13438018  0.16521316  1
  H+  H163  1  0.35847796  0.13427750  0.82436864  1
  H+  H164  1  0.54496158  0.55319690  0.86141906  1
  H+  H165  1  0.88866840  0.02331450  0.84614637  1
  H+  H166  1  0.35810574  0.88771496  0.01105313  1
  H+  H167  1  0.36193443  0.13327144  0.66260952  1
  H+  H168  1  0.87301169  0.13549776  0.67816549  1
  H+  H169  1  0.62789183  0.49837069  -0.00778476  1
  H+  H170  1  0.87761147  0.71756177  0.44259959  1
  H+  H171  1  0.85866896  0.47243108  0.33074023  1
  H+  H172  1  0.78611066  0.63272535  0.44800182  1
  H+  H173  1  0.37777663  0.86156240  0.17750530  1
  H+  H174  1  0.22619638  0.60976320  0.84336834  1
  H+  H175  1  0.61637245  0.38675726  0.48865819  1
  H+  H176  1  0.85790849  0.37502940  0.83008204  1
  H+  H177  1  0.62803792  0.22331375  0.16235970  1
  H+  H178  1  0.10589990  0.70717251  0.33347359  1
  H+  H179  1  0.85024782  0.87390993  0.49086356  1
  H+  H180  1  0.76631821  0.13267757  0.16182598  1
  H+  H181  1  0.22153714  0.10858341  0.65341845  1
  H+  H182  1  0.61701557  0.23425322  0.33408275  1
  H+  H183  1  0.22396473  0.35992574  0.17430703  1
  H+  H184  1  0.12720225  1.02902176  0.49927738  1
  H+  H185  1  0.83534041  0.64864327  -0.05753016  1
  H+  H186  1  0.37845571  0.48228342  0.33107560  1
  H+  H187  1  0.36031259  -0.02584945  0.16754375  1
  H+  H188  1  0.35600978  0.72008572  0.16625644  1
  H+  H189  1  0.60604250  0.97539849  0.17141900  1
  H+  H190  1  0.65767998  0.53221904  0.32450114  1
  H+  H191  1  -0.02319743  0.11249652  0.83541758  1
  H+  H192  1  0.76746845  0.86891645  0.33494847  1
  H+  H193  1  0.47778446  0.12378576  0.33373065  1
  H+  H194  1  0.87931203  0.77688895  0.66842076  1
  H+  H195  1  0.13678198  0.10390297  0.17231137  1
  H+  H196  1  1.01482360  0.89083769  0.49378384  1
  H+  H197  1  0.72149010  0.36590230  0.66083532  1
  H+  H198  1  0.45614824  0.35840169  0.83003385  1
  H+  H199  1  0.41300631  0.07869464  0.27858547  1
  H+  H200  1  0.14207061  0.61522741  0.85804004  1
  H+  H201  1  0.11572705  -0.02672414  0.17573638  1
  H+  H202  1  0.52819361  0.38873007  0.48568657  1
  H+  H203  1  0.35285179  0.71157500  0.34241683  1
  H+  H204  1  0.76101216  0.37585015  0.17006137  1
  H+  H205  1  0.38695567  0.27568554  0.49535195  1
  H+  H206  1  0.86822087  0.90782987  0.18082718  1
  H+  H207  1  0.38196777  0.84589526  0.49782521  1
  H+  H208  1  0.36572529  0.47030116  0.16077486  1
  H+  H209  1  0.33233268  0.16318426  0.06693290  1
  H+  H210  1  0.39340375  0.04542825  0.47931154  1
  H+  H211  1  0.88047824  0.88548431  0.85474777  1
  H+  H212  1  0.37888768  0.02250922  0.84752146  1
  H+  H213  1  0.77192721  0.38117781  0.49032890  1
  H+  H214  1  0.34898699  0.93058404  0.40339599  1
  H+  H215  1  0.68785498  0.09730499  0.60814710  1
  H+  H216  1  0.87117692  0.75768387  0.99790365  1
  H+  H217  1  0.88464637  0.36437640  1.00290452  1
  H+  H218  1  0.86612548  -0.00447449  0.17534845  1
  H+  H219  1  0.96705715  0.36095884  0.84572031  1
  H+  H220  1  0.35988091  0.14513811  0.47904699  1
  H+  H221  1  0.72649907  0.11775122  0.83631990  1
  H+  H222  1  0.36840796  0.71464870  0.66842802  1
  H+  H223  1  0.13729579  0.11642944  -0.00572282  1
  H+  H224  1  0.48249804  0.61096153  0.31825582  1
  H+  H225  1  0.25325839  0.38001562  0.82226849  1
  H+  H226  1  0.25669480  0.88630192  0.84885992  1
  H+  H227  1  0.10975715  0.13269586  0.82430795  1
  H+  H228  1  0.10944233  0.90126142  0.48897407  1
  H+  H229  1  0.53061924  0.62479949  0.15455239  1
  H+  H230  1  0.77948685  0.39334029  0.83131541  1
  H+  H231  1  0.21911645  0.11691490  0.49696568  1
  H+  H232  1  0.89422046  0.60557918  0.83945066  1
  H+  H233  1  0.36383420  1.01851877  0.38328576  1
  H+  H234  1  0.27284172  0.89501198  0.01364331  1
  H+  H235  1  0.37816768  0.76991810  1.00028049  1
  H+  H236  1  0.13175685  0.39790643  0.67718611  1
  H+  H237  1  0.35383353  0.72546018  0.82597571  1
  H+  H238  1  0.28722910  0.83881010  0.32353301  1
  H+  H239  1  0.01439947  0.05147109  0.12509386  1
  H+  H240  1  0.35982885  0.47200531  0.00506871  1
  H+  H241  1  0.11482107  0.47035834  0.49034395  1
  H+  H242  1  0.11409010  0.97833002  0.82180178  1
  H+  H243  1  0.09529022  0.71008124  0.16285572  1
  H+  H244  1  0.26763485  0.63127797  0.16167099  1
  H+  H245  1  0.88944922  1.03131613  0.65764539  1
  H+  H246  1  0.07727171  0.64525385  0.42744817  1
  H+  H247  1  0.46974760  0.10935978  0.83921397  1
  H+  H248  1  0.86756291  0.64647193  0.14202649  1
  H+  H249  1  0.88755210  0.03275141  0.99725073  1
  H+  H250  1  0.36589984  0.34797226  0.65214532  1
  H+  H251  1  0.47493278  0.60706156  0.98952784  1
  H+  H252  1  0.87552662  0.52075244  0.65454230  1
  H+  H253  1  0.97355151  0.12159431  0.33534426  1
  H+  H254  1  0.20271802  0.96279739  0.38354810  1
  H+  H255  1  0.64131401  0.12655294  0.83691423  1
  H+  H256  1  0.13281494  0.78034192  0.62717661  1
  H+  H257  1  0.74301051  0.13409245  0.99185845  1
  H+  H258  1  0.56253335  0.56107270  0.82962029  1
  H+  H259  1  0.64654474  0.52229878  0.47709879  1
  H+  H260  1  0.17397961  0.58281686  0.94462094  1
  H+  H261  1  0.07622285  0.40476467  0.39472363  1
  H+  H262  1  0.60485219  0.37009702  1.02494816  1
  H+  H263  1  0.69949128  0.92137505  0.86106814  1
  H+  H264  1  0.62961219  0.36232807  0.65757456  1
  H+  H265  1  0.82822530  0.89197743  0.40052153  1
  H+  H266  1  0.77252079  0.89917456  0.66205260  1
  H+  H267  1  0.64703971  0.03173379  0.66393352  1
  H+  H268  1  0.11607858  0.23543824  0.49959440  1
  H+  H269  1  0.82325881  0.79392889  0.96334034  1
  H+  H270  1  0.39270530  0.02673629  0.99829338  1
  H+  H271  1  0.85442202  0.43217076  0.08252569  1
  H+  H272  1  0.67663743  1.03079921  0.52651979  1
  H+  H273  1  0.86103668  0.46924547  0.48835320  1
  H+  H274  1  0.97136198  0.12083881  0.18001437  1
  H+  H275  1  0.85975756  0.14323801  0.00310238  1
  H+  H276  1  0.86645860  0.47208935  0.01584144  1
  H+  H277  1  0.13245432  0.85431379  0.18235010  1
  H+  H278  1  0.67975648  0.54578931  0.90343215  1
  H+  H279  1  0.45956544  0.59502400  0.66921921  1
  H+  H280  1  0.74894064  0.12488232  0.51100855  1
  H+  H281  1  0.64621438  0.85549347  0.33236002  1
  H+  H282  1  0.63075885  0.03166861  0.32828977  1
  H+  H283  1  1.01221167  0.62303807  0.32759952  1
  H+  H284  1  0.87735112  0.77154561  0.52737589  1
  H+  H285  1  0.11614273  0.59201158  0.31685229  1
  H+  H286  1  0.10643335  0.22021577  0.82501380  1
  H+  H287  1  0.70411225  0.91178855  0.82823784  1
  H+  H288  1  0.73101599  0.36156886  1.04118602  1
  H+  H289  1  0.08039862  0.68162146  0.69426212  1
  H+  H290  1  0.67566294  0.84000579  0.26485059  1
  H+  H291  1  0.49416667  0.88096928  0.32327259  1
  H+  H292  1  0.42659786  0.81670110  0.58700850  1
  H+  H293  1  0.41777191  0.33042332  0.23520355  1
  H+  H294  1  0.63762765  0.12383202  0.33060530  1
  H+  H295  1  0.73320152  0.88282001  0.18202711  1
  H+  H296  1  0.90238053  0.57695821  0.55589511  1
  H+  H297  1  0.88404613  0.12727245  0.17886598  1
  H+  H298  1  0.83908657  0.66127850  0.76923218  1
  H+  H299  1  0.56191501  0.67314983  0.73222934  1
  H+  H300  1  0.08728326  0.42540983  0.72892316  1
  H+  H301  1  0.16437797  0.57640188  0.55740845  1
  H+  H302  1  0.15658305  0.57254585  0.22763589  1
  H+  H303  1  0.84109297  0.16539037  0.74796943  1
  H+  H304  1  0.33499356  0.66719254  0.07305862  1
  H+  H305  1  0.57837329  0.92441595  0.72800575  1
  H+  H306  1  0.33382122  0.40916412  0.10268834  1
  H+  H307  1  0.64813665  0.58910258  0.61453239  1
  H+  H308  1  0.90980838  0.84021757  0.57846290  1
  H+  H309  1  0.77755011  0.13388526  0.68044691  1
  H+  H310  1  0.90587267  0.55279721  0.24854138  1
  H+  H311  1  0.09537661  0.67147645  0.79556575  1
  H+  H312  1  0.68305290  0.33699248  0.21716434  1
  H+  H313  1  0.16232805  0.08472326  0.59420164  1
  H+  H314  1  0.91560996  0.10428525  0.26998405  1
  H+  H315  1  0.07694923  0.41401595  0.06952574  1
  H+  H316  1  0.38002112  0.26434972  0.98931298  1
  H+  H317  1  0.59293367  0.17922475  0.39706582  1
  H+  H318  1  0.39561236  0.37962390  0.33178833  1
  H+  H319  1  0.07158456  0.16083501  0.40288447  1
  H+  H320  1  0.79669734  0.66980692  0.13345627  1
  H+  H321  1  0.35886328  0.13822013  0.33153526  1
  H+  H322  1  0.17631715  0.29564518  0.66916751  1
  H+  H323  1  0.10594766  0.92060649  0.39925192  1
  H+  H324  1  0.57962054  0.64424208  0.09210341  1
  H+  H325  1  0.08908002  0.17109936  0.72785058  1
  H+  H326  1  0.89351468  0.51533466  0.83940250  1
  H+  H327  1  0.14922873  0.32441089  0.26090354  1
  H+  H328  1  0.58432645  0.17314244  0.76336930  1
  H+  H329  1  0.11176794  0.47515129  0.15654250  1
  H+  H330  1  0.67497680  0.10186648  0.92896270  1
  H+  H331  1  0.40707210  0.32330568  0.92930911  1
  H+  H332  1  0.07513453  0.66064637  0.10002737  1
  H+  H333  1  0.86000271  0.67791700  0.35340373  1
  H+  H334  1  0.91700303  0.33769906  0.56515715  1
  H+  H335  1  0.41859616  0.57703880  0.22852182  1
  H+  H336  1  0.40740640  0.58101850  0.93533069  1
  H+  H337  1  0.16411885  0.08085798  0.89678052  1
  H+  H338  1  0.91074615  0.32571182  0.90702167  1
  H+  H339  1  0.54089177  0.74555033  0.80342912  1
  H+  H340  1  0.84258784  0.17595933  0.43651919  1
  H+  H341  1  0.06661746  0.14270380  0.09625583  1
  H+  H342  1  0.92661918  0.57151246  0.93973111  1
  H+  H343  1  0.83094693  0.41482869  0.73160651  1
  H+  H344  1  0.10772191  0.98210744  0.01583051  1
  H+  H345  1  0.32452501  0.17143981  0.42116422  1
  H+  H346  1  0.42226357  0.08679072  0.93896519  1
  H+  H347  1  0.22303639  0.11022772  0.99571929  1
  H+  H348  1  0.33714557  0.65218195  0.40002205  1
  H+  H349  1  0.16477369  0.08378814  0.23621539  1
  H+  H350  1  0.21833933  0.36526198  0.98799556  1
  H+  H351  1  0.69718813  0.44097916  0.86964693  1
  H+  H352  1  0.92763072  0.10416628  0.57251324  1
  H+  H353  1  0.07342077  0.91013882  0.12048816  1
  H+  H354  1  0.59531343  0.41811948  0.38910394  1
  H+  H355  1  0.17377715  0.81483395  0.26526823  1
  H+  H356  1  0.41525925  0.08870503  0.54682046  1
  H+  H357  1  0.58277255  0.15395609  0.10995649  1
  H+  H358  1  0.40465005  0.82783763  0.93996282  1
  H+  H359  1  0.15982798  0.84402938  0.94784196  1
  H+  H360  1  0.71817536  0.58815663  0.99066982  1
  H+  H361  1  0.34106243  0.37797025  0.81815053  1
  H+  H362  1  0.30464453  0.91806944  0.78607538  1
  H+  H363  1  0.56620547  0.89366943  0.40513736  1
  H+  H364  1  0.91417804  0.08768087  0.93443990  1
  H+  H365  1  1.02429852  0.38330773  0.16041327  1
  H+  H366  1  0.70455318  0.59304719  0.52452107  1
  H+  H367  1  0.62229854  0.14656760  0.67372981  1
  H+  H368  1  0.92020908  0.32858345  0.23385398  1
  H+  H369  1  0.56380442  0.40324562  0.72468777  1
  H+  H370  1  0.57212331  0.42890436  0.09961201  1
  H+  H371  1  0.18282272  0.34633796  0.56704289  1
  H+  H372  1  0.67147282  0.08746117  0.23889690  1
  H+  H373  1  0.08491421  0.91710986  0.76217452  1
  H+  H374  1  0.32790513  0.15790807  0.76209428  1
  H+  H375  1  0.58300265  0.66480532  0.39057020  1
  H+  H376  1  0.67019799  0.78388143  0.92277656  1
  H+  H377  1  0.66637160  0.33529249  0.56457098  1
  H+  H378  1  0.29273603  0.39330302  0.72676100  1
  H+  H379  1  0.33322918  0.91983982  0.10552352  1
  H+  H380  1  0.82476749  0.16364875  0.10108854  1
  H+  H381  1  0.39500666  0.60811594  0.50171351  1
  H+  H382  1  0.96276890  0.60915051  0.64298725  1
  H+  H383  1  0.35624420  0.21846570  0.66545738  1
  O2-  O384  1  0.04951959  0.11174241  0.13634192  1
  O2-  O385  1  0.07974917  0.17377514  0.48540554  1
  O2-  O386  1  0.07793818  0.16093697  0.80792908  1
  O2-  O387  1  0.08290140  0.41474326  0.14066213  1
  O2-  O388  1  0.08542440  0.40777356  0.47852196  1
  O2-  O389  1  0.05437459  0.44336570  0.80134196  1
  O2-  O390  1  0.06737874  0.65165293  0.14490075  1
  O2-  O391  1  0.08302942  0.64533359  0.47254682  1
  O2-  O392  1  0.08730608  0.66788897  0.83944150  1
  O2-  O393  1  0.07810534  0.91104907  0.16531124  1
  O2-  O394  1  0.07228095  0.92581416  0.47541356  1
  O2-  O395  1  0.08530828  0.91702237  0.80769405  1
  O2-  O396  1  0.33792482  0.16247268  0.14878975  1
  O2-  O397  1  0.32536698  0.17188976  0.46665810  1
  O2-  O398  1  0.32581614  0.16092954  0.80720709  1
  O2-  O399  1  0.33541792  0.40837023  0.14766504  1
  O2-  O400  1  0.33773620  0.41837519  0.47120872  1
  O2-  O401  1  0.31065311  0.40809368  0.80216287  1
  O2-  O402  1  0.32952287  0.66220906  0.14784831  1
  O2-  O403  1  0.32981916  0.64825049  0.47885633  1
  O2-  O404  1  0.32462623  0.66612612  0.80819490  1
  O2-  O405  1  0.32988362  0.91451447  0.15084261  1
  O2-  O406  1  0.34147039  0.97809986  0.41865118  1
  O2-  O407  1  0.31572632  0.91530778  0.82975296  1
  O2-  O408  1  0.58634568  0.16097085  0.15473137  1
  O2-  O409  1  0.59540721  0.17044839  0.47831851  1
  O2-  O410  1  0.58328411  0.17029445  0.80918121  1
  O2-  O411  1  0.58016576  0.44285114  0.14324581  1
  O2-  O412  1  0.58834283  0.41728900  0.46985052  1
  O2-  O413  1  0.56325352  0.40200887  0.80208650  1
  O2-  O414  1  0.58668334  0.66349837  0.13483470  1
  O2-  O415  1  0.58440738  0.66997377  0.46958654  1
  O2-  O416  1  0.55527715  0.70015070  0.80581830  1
  O2-  O417  1  0.57276455  0.91312363  0.16012792  1
  O2-  O418  1  0.56970537  0.90279284  0.44976089  1
  O2-  O419  1  0.56743463  0.92961456  0.80776354  1
  O2-  O420  1  0.82675867  0.16239541  0.14597415  1
  O2-  O421  1  0.84543657  0.17577162  0.48248332  1
  O2-  O422  1  0.83874116  0.16579892  0.80850533  1
  O2-  O423  1  0.86481329  0.45091680  0.15178540  1
  O2-  O424  1  0.83164425  0.40810537  0.47396347  1
  O2-  O425  1  0.83641561  0.41175538  0.81209486  1
  O2-  O426  1  0.85764812  0.68996379  0.12339204  1
  O2-  O427  1  0.84815804  0.65538034  0.43848233  1
  O2-  O428  1  0.84466105  0.65944167  0.81450500  1
  O2-  O429  1  0.84205388  0.93674805  0.15775453  1
  O2-  O430  1  0.81949631  0.89541304  0.46533688  1
  O2-  O431  1  0.84604585  0.91407866  0.86431275  1
  O2-  O432  1  0.17163829  0.08138783  0.19119808  1
  O2-  O433  1  0.16044902  0.08960191  0.51519687  1
  O2-  O434  1  0.16182611  0.07983482  0.85145109  1
  O2-  O435  1  0.16296198  0.33003845  0.18687176  1
  O2-  O436  1  0.17229162  0.33614158  0.52303061  1
  O2-  O437  1  0.14767912  0.32549968  0.85293121  1
  O2-  O438  1  0.16416891  0.57831708  0.18129501  1
  O2-  O439  1  0.16539661  0.57199262  0.51266123  1
  O2-  O440  1  0.16814546  0.57794390  0.86301546  1
  O2-  O441  1  0.16170105  0.82081112  0.19128238  1
  O2-  O442  1  0.18206622  0.87380977  0.49862833  1
  O2-  O443  1  0.15508572  0.83726084  0.86972440  1
  O2-  O444  1  0.41596424  0.07898795  0.19897455  1
  O2-  O445  1  0.42446844  0.10025701  0.50291402  1
  O2-  O446  1  0.41201680  0.08519801  0.85749907  1
  O2-  O447  1  0.41426919  0.32553570  0.19073988  1
  O2-  O448  1  0.42149230  0.33536037  0.51161121  1
  O2-  O449  1  0.39628833  0.32872430  0.84571755  1
  O2-  O450  1  0.41733806  0.57405523  0.18286290  1
  O2-  O451  1  0.43142491  0.58316019  0.51352402  1
  O2-  O452  1  0.39626189  0.57677232  0.85093099  1
  O2-  O453  1  0.40536969  0.83074562  0.19709153  1
  O2-  O454  1  0.41801305  0.82294960  0.51171946  1
  O2-  O455  1  0.39991123  0.82800114  0.85606254  1
  O2-  O456  1  0.66740181  0.08055033  0.19381185  1
  O2-  O457  1  0.68933355  0.09010495  0.52960283  1
  O2-  O458  1  0.66780546  0.09308514  0.85360747  1
  O2-  O459  1  0.69811679  0.33167910  0.17464453  1
  O2-  O460  1  0.66781058  0.33597210  0.51922890  1
  O2-  O461  1  0.68774302  0.38036194  0.86730472  1
  O2-  O462  1  0.68500145  0.62467931  0.15600593  1
  O2-  O463  1  0.68433943  0.58667226  0.48279219  1
  O2-  O464  1  0.69445520  0.53061310  0.86236025  1
  O2-  O465  1  0.67576955  0.85302019  0.20144083  1
  O2-  O466  1  0.65730415  0.82697731  0.51434097  1
  O2-  O467  1  0.68445651  0.76423522  0.88504561  1
  O2-  O468  1  0.91504138  0.10079715  0.20052104  1
  O2-  O469  1  0.93174971  0.10754571  0.52626594  1
  O2-  O470  1  0.91635032  0.08668921  0.85177972  1
  O2-  O471  1  0.92847665  0.32974696  0.18939913  1
  O2-  O472  1  0.91669189  0.33421737  0.52006777  1
  O2-  O473  1  0.90848118  0.32059924  0.86102104  1
  O2-  O474  1  0.89422699  0.54070077  0.16753400  1
  O2-  O475  1  0.91111221  0.57210263  0.51172552  1
  O2-  O476  1  0.92317785  0.57483350  0.85665075  1
  O2-  O477  1  0.91897726  0.86140241  0.21928644  1
  O2-  O478  1  0.90748366  0.83364756  0.53253030  1
  O2-  O479  1  0.92966522  0.82572121  0.85694573  1
  O2-  O480  1  0.15315904  0.07966965  0.31389851  1
  O2-  O481  1  0.16073932  0.08207891  0.63967440  1
  O2-  O482  1  0.16250128  0.08101588  0.98018104  1
  O2-  O483  1  0.14070623  0.32234273  0.30640689  1
  O2-  O484  1  0.20686759  0.35823978  0.65762198  1
  O2-  O485  1  0.15682540  0.33523205  0.97482964  1
  O2-  O486  1  0.14481783  0.56287549  0.29798236  1
  O2-  O487  1  0.16463215  0.58522202  0.63970833  1
  O2-  O488  1  0.17012627  0.58619112  0.98936791  1
  O2-  O489  1  0.18296462  0.81210432  0.31036402  1
  O2-  O490  1  0.16166134  0.84366163  0.62228945  1
  O2-  O491  1  0.16430761  0.84176821  0.99290195  1
  O2-  O492  1  0.41519104  0.09032170  0.32333002  1
  O2-  O493  1  0.42917293  0.08287319  0.63520586  1
  O2-  O494  1  0.42575929  0.08804844  0.98414873  1
  O2-  O495  1  0.42672843  0.34132278  0.32168582  1
  O2-  O496  1  0.39969016  0.32170776  0.63806783  1
  O2-  O497  1  0.41219457  0.32481924  0.97427348  1
  O2-  O498  1  0.42154975  0.57950032  0.30423716  1
  O2-  O499  1  0.39590469  0.56431863  0.65710259  1
  O2-  O500  1  0.41227766  0.58183438  0.98014864  1
  O2-  O501  1  0.38978494  0.82300394  0.31428830  1
  O2-  O502  1  0.42484199  0.81593986  0.63285482  1
  O2-  O503  1  0.40625799  0.83086587  0.98497462  1
  O2-  O504  1  0.66949356  0.09285819  0.31892297  1
  O2-  O505  1  0.68416704  0.09447754  0.65368824  1
  O2-  O506  1  0.67851943  0.10371680  0.97495153  1
  O2-  O507  1  0.66734767  0.32780236  0.30092515  1
  O2-  O508  1  0.66163219  0.33271868  0.64465835  1
  O2-  O509  1  0.66752131  0.32721253  1.05055630  1
  O2-  O510  1  0.68955799  0.59502369  0.31821802  1
  O2-  O511  1  0.65018135  0.58262182  0.65837481  1
  O2-  O512  1  0.65928035  0.55798166  0.97340217  1
  O2-  O513  1  0.67725254  0.83029641  0.31292082  1
  O2-  O514  1  0.65221427  0.82095638  0.63973615  1
  O2-  O515  1  0.67409489  0.82808676  1.00279814  1
  O2-  O516  1  0.91293060  0.10133603  0.31693313  1
  O2-  O517  1  0.92173427  0.09593113  0.64664831  1
  O2-  O518  1  0.91397759  0.09170787  0.97959884  1
  O2-  O519  1  0.90743316  0.32380419  0.31590226  1
  O2-  O520  1  0.92183751  0.33824719  0.64635994  1
  O2-  O521  1  0.91297289  0.33384393  0.98332534  1
  O2-  O522  1  0.90957799  0.56757681  0.29256157  1
  O2-  O523  1  0.89961857  0.57935891  0.63661286  1
  O2-  O524  1  0.92480541  0.57370441  0.98459525  1
  O2-  O525  1  0.91937750  0.84588926  0.28507276  1
  O2-  O526  1  0.90835082  0.83699568  0.65299751  1
  O2-  O527  1  0.87911123  0.81408978  0.98273730  1
  O2-  O528  1  0.08250145  0.17032397  0.02070981  1
  O2-  O529  1  0.06214343  0.15095485  0.35849285  1
  O2-  O530  1  0.09179558  0.17816954  0.68268638  1
  O2-  O531  1  0.07568058  0.41482304  0.02278334  1
  O2-  O532  1  0.06646490  0.40112432  0.35028838  1
  O2-  O533  1  0.09237381  0.42066911  0.68426178  1
  O2-  O534  1  0.08651223  0.67060458  0.02242373  1
  O2-  O535  1  0.06849276  0.64783930  0.34890116  1
  O2-  O536  1  0.07692135  0.66919735  0.65098318  1
  O2-  O537  1  0.07835286  0.92333732  0.03490342  1
  O2-  O538  1  0.14608912  0.93489685  0.36430626  1
  O2-  O539  1  0.07775338  0.91697557  0.68266611  1
  O2-  O540  1  0.32874106  0.16112010  0.02152803  1
  O2-  O541  1  0.32260688  0.16526284  0.34158597  1
  O2-  O542  1  0.32897988  0.15773674  0.68069794  1
  O2-  O543  1  0.32552195  0.41049256  0.01725286  1
  O2-  O544  1  0.35257964  0.42154495  0.34670821  1
  O2-  O545  1  0.29629387  0.39447686  0.68011054  1
  O2-  O546  1  0.33496804  0.66891882  0.02702000  1
  O2-  O547  1  0.34556475  0.65627038  0.35532921  1
  O2-  O548  1  0.33227778  0.65699096  0.68725022  1
  O2-  O549  1  0.33447174  0.92417395  0.02625619  1
  O2-  O550  1  0.34924433  0.87064904  0.33758364  1
  O2-  O551  1  0.29978626  0.93498785  0.70489050  1
  O2-  O552  1  0.58937744  0.15898168  0.02610977  1
  O2-  O553  1  0.58573423  0.17410497  0.35221998  1
  O2-  O554  1  0.58635436  0.17183755  0.68593785  1
  O2-  O555  1  0.57566358  0.40395516  0.01803000  1
  O2-  O556  1  0.60038105  0.42223048  0.34401671  1
  O2-  O557  1  0.56587333  0.40638779  0.67917802  1
  O2-  O558  1  0.57927375  0.64332982  0.00811827  1
  O2-  O559  1  0.58533240  0.66084854  0.34542340  1
  O2-  O560  1  0.55887564  0.65923590  0.68775619  1
  O2-  O561  1  0.56451635  0.90817318  0.03697576  1
  O2-  O562  1  0.55943247  0.90985572  0.32512060  1
  O2-  O563  1  0.58636034  0.92606905  0.68304141  1
  O2-  O564  1  0.82725145  0.17188586  0.01735297  1
  O2-  O565  1  0.83463021  0.17370677  0.36088485  1
  O2-  O566  1  0.83983730  0.16387921  0.69683164  1
  O2-  O567  1  0.83948425  0.41553393  0.03700693  1
  O2-  O568  1  0.82853739  0.41242608  0.34740789  1
  O2-  O569  1  0.82865972  0.41630414  0.68634752  1
  O2-  O570  1  0.83209994  0.65057977  -0.01342140  1
  O2-  O571  1  0.85145510  0.68011773  0.30942308  1
  O2-  O572  1  0.82751178  0.66546384  0.69174703  1
  O2-  O573  1  0.84300447  0.93241975  0.03579879  1
  O2-  O574  1  0.82974400  0.89629985  0.35204745  1
  O2-  O575  1  0.83222526  0.93471405  0.67635811  1
