# generated using pymatgen
data_H2O
_symmetry_space_group_name_H-M   'P 1'
_cell_length_a   17.98275218
_cell_length_b   17.98625132
_cell_length_c   22.00853550
_cell_angle_alpha   89.97386210
_cell_angle_beta   90.03818259
_cell_angle_gamma   119.99068123
_symmetry_Int_Tables_number   1
_chemical_formula_structural   H2O
_chemical_formula_sum   'H384 O192'
_cell_volume   6165.37171409
_cell_formula_units_Z   192
loop_
 _symmetry_equiv_pos_site_id
 _symmetry_equiv_pos_as_xyz
  1  'x, y, z'
loop_
 _atom_type_symbol
 _atom_type_oxidation_number
  H+  1.0
  O2-  -2.0
loop_
 _atom_site_type_symbol
 _atom_site_label
 _atom_site_symmetry_multiplicity
 _atom_site_fract_x
 _atom_site_fract_y
 _atom_site_fract_z
 _atom_site_occupancy
  H+  H0  1  0.75928889  0.14921307  0.66649221  1
  H+  H1  1  0.61825414  0.97970341  0.00514519  1
  H+  H2  1  0.87450700  0.39456485  0.50890187  1
  H+  H3  1  0.22440020  0.20916360  0.61849893  1
  H+  H4  1  0.10767631  0.21771497  0.17196391  1
  H+  H5  1  0.11646099  0.13999185  0.34412641  1
  H+  H6  1  0.72809494  0.87784808  0.83251000  1
  H+  H7  1  0.13960354  0.79376928  0.83998890  1
  H+  H8  1  0.88002342  0.89707035  0.19950920  1
  H+  H9  1  0.86413493  0.11943357  0.50096387  1
  H+  H10  1  0.61685306  0.90102685  0.83328767  1
  H+  H11  1  0.27684267  0.62521675  0.33106244  1
  H+  H12  1  0.85867408  0.12252423  0.34712700  1
  H+  H13  1  0.36053369  0.38402993  0.14397917  1
  H+  H14  1  0.45530957  0.79810131  0.70590706  1
  H+  H15  1  0.60965498  0.13187284  0.33930213  1
  H+  H16  1  0.33830168  0.25658889  0.75572936  1
  H+  H17  1  0.41747716  0.32574038  0.23509659  1
  H+  H18  1  0.72215183  0.36436020  0.32762209  1
  H+  H19  1  0.89568362  1.03246227  0.19485962  1
  H+  H20  1  0.21448842  0.58357407  0.69409639  1
  H+  H21  1  0.16244326  0.32847597  0.56859479  1
  H+  H22  1  0.85923206  0.88746350  0.33888561  1
  H+  H23  1  0.79079971  0.88183627  0.66130312  1
  H+  H24  1  0.64296822  0.27417357  0.16695234  1
  H+  H25  1  0.86973248  0.64290555  0.67565181  1
  H+  H26  1  0.11776211  0.48440965  0.35794496  1
  H+  H27  1  0.37556733  0.01855374  0.17517537  1
  H+  H28  1  0.68414558  0.82339446  0.57806551  1
  H+  H29  1  0.38442018  0.48573413  0.35302468  1
  H+  H30  1  0.23326500  0.87553987  0.84318463  1
  H+  H31  1  0.36072585  0.38710006  0.50006411  1
  H+  H32  1  0.09669745  0.65707454  0.61351941  1
  H+  H33  1  0.48899128  0.62083346  0.32134045  1
  H+  H34  1  0.90925997  0.30003545  0.84311252  1
  H+  H35  1  0.11043124  0.97883403  0.34351043  1
  H+  H36  1  0.92267886  0.09813235  0.27104295  1
  H+  H37  1  0.54432072  0.90406651  0.48565595  1
  H+  H38  1  0.12332564  0.88337675  0.68012487  1
  H+  H39  1  0.80165085  0.64847299  0.54179905  1
  H+  H40  1  0.36948104  0.89567583  0.83525920  1
  H+  H41  1  0.67442978  0.58424561  -0.05140519  1
  H+  H42  1  0.68823449  0.10845745  0.57386952  1
  H+  H43  1  0.39162651  0.51833210  0.96886781  1
  H+  H44  1  0.73384738  0.36769682  0.50482717  1
  H+  H45  1  0.99236657  0.38941032  0.63332816  1
  H+  H46  1  0.50169560  0.69036391  0.67601622  1
  H+  H47  1  0.65122998  1.03960594  0.51854664  1
  H+  H48  1  0.12338055  0.35196001  0.18960955  1
  H+  H49  1  0.47818683  0.11118984  0.65273936  1
  H+  H50  1  0.99019182  0.86589165  0.65742294  1
  H+  H51  1  0.47246731  0.10857696  0.50100266  1
  H+  H52  1  0.24119260  0.36842963  0.34116947  1
  H+  H53  1  0.92394243  0.68672998  -0.00324381  1
  H+  H54  1  0.22560970  0.35577194  0.65968573  1
  H+  H55  1  0.14456198  0.86718993  0.50643138  1
  H+  H56  1  0.12249590  0.23282134  0.35356038  1
  H+  H57  1  0.09094713  0.64379240  0.81244643  1
  H+  H58  1  0.37877404  0.35441771  0.97946891  1
  H+  H59  1  0.28103529  0.88364359  0.67980609  1
  H+  H60  1  0.60924996  0.23412920  0.82723675  1
  H+  H61  1  0.65796646  0.33554659  0.89796513  1
  H+  H62  1  0.46237818  0.61244694  0.50320708  1
  H+  H63  1  0.47805840  0.61448323  0.80850769  1
  H+  H64  1  0.11533598  0.02067238  0.84656481  1
  H+  H65  1  0.38555382  0.27059543  0.32232482  1
  H+  H66  1  0.13792735  0.11045110  0.17532076  1
  H+  H67  1  0.13396349  0.26669525  0.66638219  1
  H+  H68  1  0.89097363  0.01967457  0.65672807  1
  H+  H69  1  0.87803072  0.14523443  0.67862059  1
  H+  H70  1  0.89447653  0.61819710  0.51257113  1
  H+  H71  1  0.47592094  0.87000739  0.84803163  1
  H+  H72  1  0.36061252  0.64256225  0.49259434  1
  H+  H73  1  0.11149459  0.13553607  0.01218937  1
  H+  H74  1  0.15526611  0.37167518  0.35094088  1
  H+  H75  1  0.86152740  0.47927961  0.15904413  1
  H+  H76  1  0.59755232  0.76245747  0.66877856  1
  H+  H77  1  0.91839493  0.23988530  0.70553989  1
  H+  H78  1  0.12326584  0.72929413  1.00208678  1
  H+  H79  1  0.52134896  0.71263214  0.13488056  1
  H+  H80  1  0.61061873  0.47314584  0.46915464  1
  H+  H81  1  0.63707928  0.52195540  0.31525797  1
  H+  H82  1  0.09775531  0.36299748  0.66851701  1
  H+  H83  1  0.36087614  0.13486758  0.16437353  1
  H+  H84  1  0.07924693  0.53764011  0.28715390  1
  H+  H85  1  0.27320616  0.13921492  0.16595634  1
  H+  H86  1  0.97989598  0.60427972  0.65817235  1
  H+  H87  1  0.47779564  0.35891282  0.31825808  1
  H+  H88  1  0.71802910  0.86341713  0.33125230  1
  H+  H89  1  0.61783464  0.14670762  0.49400836  1
  H+  H90  1  0.86713955  0.14060997  0.15985917  1
  H+  H91  1  0.97252855  0.86290554  0.33649062  1
  H+  H92  1  0.34082709  0.67404226  0.72390184  1
  H+  H93  1  0.37451480  0.59197674  0.66935627  1
  H+  H94  1  0.71191083  0.61886816  0.47088602  1
  H+  H95  1  -0.01100839  0.85763523  0.18673829  1
  H+  H96  1  0.18932237  0.11556745  0.59713149  1
  H+  H97  1  0.71428814  0.09087422  0.33590175  1
  H+  H98  1  0.89188187  0.86419501  0.50530962  1
  H+  H99  1  0.47801671  0.87000969  0.16561914  1
  H+  H100  1  0.53755728  0.40477157  0.67310543  1
  H+  H101  1  0.21631804  0.09772172  0.99986045  1
  H+  H102  1  0.61188616  0.22233072  0.33647049  1
  H+  H103  1  0.36430228  0.98265617  0.01059724  1
  H+  H104  1  0.61929554  0.98358244  0.15834038  1
  H+  H105  1  0.21976551  0.36404425  0.50930194  1
  H+  H106  1  0.72555309  0.61192309  0.31935686  1
  H+  H107  1  0.84562599  0.38350126  0.34800520  1
  H+  H108  1  0.46694998  0.10405907  0.17558020  1
  H+  H109  1  0.21545175  0.86224328  0.32731489  1
  H+  H110  1  0.22397876  1.11495288  0.32857391  1
  H+  H111  1  0.88785158  0.51862279  0.66161540  1
  H+  H112  1  0.45888246  0.85444272  0.31465668  1
  H+  H113  1  0.64047867  0.58701074  0.51883123  1
  H+  H114  1  0.36078972  0.13533726  0.33524858  1
  H+  H115  1  0.48645677  0.35783859  0.17171379  1
  H+  H116  1  0.39222914  0.87355019  1.00351123  1
  H+  H117  1  0.11813569  0.61408638  0.33241391  1
  H+  H118  1  0.86247281  0.72996728  0.34284063  1
  H+  H119  1  0.50744092  0.37387560  -0.00138933  1
  H+  H120  1  0.62000837  0.01087123  0.32930838  1
  H+  H121  1  0.64939980  0.88445311  0.17282427  1
  H+  H122  1  0.45816243  0.36416320  0.82555278  1
  H+  H123  1  0.58468078  0.63301485  0.45361998  1
  H+  H124  1  0.36238813  0.20935916  0.49025588  1
  H+  H125  1  0.88811138  0.02135377  0.99391943  1
  H+  H126  1  0.23917589  0.62319549  0.16410989  1
  H+  H127  1  0.27458019  0.38204176  -0.01054888  1
  H+  H128  1  0.36280964  -0.02947750  0.48661533  1
  H+  H129  1  0.14054026  0.45598857  0.85624853  1
  H+  H130  1  0.86667804  0.98454713  0.81980810  1
  H+  H131  1  0.73664861  0.11855355  0.17558468  1
  H+  H132  1  0.88947865  0.27114539  0.15286911  1
  H+  H133  1  0.05127202  0.44746437  0.86181854  1
  H+  H134  1  0.57912884  0.17408223  0.76796711  1
  H+  H135  1  0.11913867  0.39494801  0.51521453  1
  H+  H136  1  0.83664345  0.19895975  0.35137017  1
  H+  H137  1  0.04992592  0.89123671  -0.04969161  1
  H+  H138  1  0.14932058  0.53739614  0.53340038  1
  H+  H139  1  0.67534612  0.05822454  0.66753175  1
  H+  H140  1  0.63454926  0.77486615  0.31040955  1
  H+  H141  1  0.39388447  0.77642706  0.65197671  1
  H+  H142  1  0.76871495  0.38516924  0.00036559  1
  H+  H143  1  0.13732065  0.85862233  0.99075568  1
  H+  H144  1  0.35155797  0.46629936  0.14745694  1
  H+  H145  1  0.83122364  0.42108548  0.40879375  1
  H+  H146  1  1.01133645  0.11595123  0.49268436  1
  H+  H147  1  0.13247283  0.87826249  0.17731265  1
  H+  H148  1  0.83916016  0.91830500  0.43101552  1
  H+  H149  1  0.60998735  0.11564524  0.16084607  1
  H+  H150  1  0.91508893  0.89548091  0.82492371  1
  H+  H151  1  0.52865751  0.89154306  0.00951164  1
  H+  H152  1  -0.02891514  0.10809665  0.01571753  1
  H+  H153  1  0.97840120  0.12108004  0.33253922  1
  H+  H154  1  0.73003363  0.36481915  0.16878241  1
  H+  H155  1  0.62079124  0.14000871  1.00017934  1
  H+  H156  1  0.63744559  0.77228396  0.98431659  1
  H+  H157  1  0.14546822  1.02405334  0.18017692  1
  H+  H158  1  0.07928050  0.68059764  0.42939609  1
  H+  H159  1  0.15889013  0.82780145  0.26679163  1
  H+  H160  1  0.64073562  0.86327592  0.98871329  1
  H+  H161  1  0.36374293  0.87503707  0.69158878  1
  H+  H162  1  0.58928852  0.86927964  0.34806374  1
  H+  H163  1  0.61575085  0.63734388  0.28724416  1
  H+  H164  1  0.35961467  0.13164792  1.00844420  1
  H+  H165  1  0.86396975  0.82974902  0.98414284  1
  H+  H166  1  0.62511986  0.52248432  1.00247165  1
  H+  H167  1  0.57527005  0.66948809  0.23623662  1
  H+  H168  1  0.64223089  0.28022316  0.49989047  1
  H+  H169  1  0.37619130  0.52341836  0.50895740  1
  H+  H170  1  0.86827129  0.66189776  0.83120641  1
  H+  H171  1  0.40864032  0.87225098  0.46374234  1
  H+  H172  1  0.36818475  0.47474443  0.66370422  1
  H+  H173  1  0.63617915  0.03545425  0.84371482  1
  H+  H174  1  0.99342088  0.38479205  0.53120279  1
  H+  H175  1  0.96402450  0.63112093  0.84991981  1
  H+  H176  1  0.18194462  0.59749163  0.22453710  1
  H+  H177  1  0.36965855  0.38653206  0.66140560  1
  H+  H178  1  0.19188186  0.36173793  0.80965008  1
  H+  H179  1  1.04160780  0.39916637  0.14284704  1
  H+  H180  1  0.49902799  0.34314720  0.50234947  1
  H+  H181  1  0.63425814  0.27645074  -0.01250259  1
  H+  H182  1  0.85352051  0.12536337  1.01743238  1
  H+  H183  1  0.51600208  0.64551260  0.41533847  1
  H+  H184  1  0.33546606  0.37798795  0.81530512  1
  H+  H185  1  1.02833689  0.88491171  0.49583479  1
  H+  H186  1  0.27002615  0.88439221  0.16495547  1
  H+  H187  1  0.16267994  0.08521052  0.27075352  1
  H+  H188  1  0.48224970  0.26262235  0.53980382  1
  H+  H189  1  0.40896488  0.78408674  0.46824338  1
  H+  H190  1  0.38375945  0.57327981  0.88026491  1
  H+  H191  1  0.71962587  0.60149292  0.15469357  1
  H+  H192  1  0.88324385  1.01330907  0.50750582  1
  H+  H193  1  0.62588399  0.40645994  0.67479182  1
  H+  H194  1  0.13567716  1.01784134  0.50957331  1
  H+  H195  1  0.40468192  0.28498837  0.66816426  1
  H+  H196  1  0.36573899  0.72776879  0.15423744  1
  H+  H197  1  0.64150750  0.86087682  0.49700638  1
  H+  H198  1  0.47230303  0.10958626  0.32758555  1
  H+  H199  1  0.61141760  0.23492660  0.67069256  1
  H+  H200  1  0.23370517  0.62738424  0.52711723  1
  H+  H201  1  0.61408832  0.63706891  0.00349152  1
  H+  H202  1  0.86361506  0.39063569  0.15371131  1
  H+  H203  1  0.22285279  0.10766900  0.50124170  1
  H+  H204  1  0.01766178  0.64469597  0.34362790  1
  H+  H205  1  0.59461543  0.86336311  0.69794680  1
  H+  H206  1  0.79249563  0.89976842  0.19534528  1
  H+  H207  1  0.11408938  0.14181443  0.67677655  1
  H+  H208  1  0.56016057  0.66024024  0.76868495  1
  H+  H209  1  0.27292891  0.64284020  1.00318642  1
  H+  H210  1  0.59824373  0.38556958  0.82887317  1
  H+  H211  1  0.68253575  0.88429465  0.62827189  1
  H+  H212  1  0.96912640  0.11028120  0.83792475  1
  H+  H213  1  0.04406584  0.39035178  0.37200810  1
  H+  H214  1  0.72654551  0.11205912  0.99676412  1
  H+  H215  1  0.63887672  0.56139796  0.69816515  1
  H+  H216  1  0.88692560  0.52856271  0.33029217  1
  H+  H217  1  0.45418108  0.59296445  0.17775576  1
  H+  H218  1  0.86940915  0.34400425  0.99847047  1
  H+  H219  1  0.62300840  0.15356412  0.67553551  1
  H+  H220  1  0.02287142  0.64768765  0.49647440  1
  H+  H221  1  0.77325578  0.13131032  0.50410823  1
  H+  H222  1  0.35624192  0.97274759  0.33437538  1
  H+  H223  1  0.60578897  0.37667679  0.15929430  1
  H+  H224  1  0.40629316  0.62192964  0.34839865  1
  H+  H225  1  0.62389265  0.76598488  0.48225537  1
  H+  H226  1  0.77515257  0.88369376  0.96617175  1
  H+  H227  1  0.09355682  0.33387433  0.79153422  1
  H+  H228  1  0.77480488  0.87860279  0.48626342  1
  H+  H229  1  0.39415787  0.02018828  0.65519335  1
  H+  H230  1  0.86095968  0.49807211  0.84941605  1
  H+  H231  1  0.88181300  0.89014022  0.66983808  1
  H+  H232  1  0.11270108  0.63788722  0.15366872  1
  H+  H233  1  0.11939373  0.74498795  0.49420379  1
  H+  H234  1  0.88175099  0.11235922  0.83985867  1
  H+  H235  1  0.38729597  0.86882488  0.16504925  1
  H+  H236  1  0.90026409  0.77748909  0.65818556  1
  H+  H237  1  0.86544492  0.73254203  0.50651865  1
  H+  H238  1  0.11406419  0.72641808  0.15974471  1
  H+  H239  1  0.12548051  0.97214754  0.68431296  1
  H+  H240  1  0.25088362  0.10054937  0.84691422  1
  H+  H241  1  0.85983813  0.70841789  0.09588524  1
  H+  H242  1  0.98161062  0.12009713  0.17834562  1
  H+  H243  1  0.14616617  0.77285527  0.65816567  1
  H+  H244  1  0.21169104  0.78831173  0.21421863  1
  H+  H245  1  0.72331750  0.61781142  0.84630220  1
  H+  H246  1  0.87593988  0.39550078  0.64668007  1
  H+  H247  1  0.12354921  1.00999733  -0.00374447  1
  H+  H248  1  0.67094843  0.33081281  0.26374162  1
  H+  H249  1  0.66970172  0.08955925  0.93490991  1
  H+  H250  1  0.61313525  0.75636999  0.16187832  1
  H+  H251  1  0.13837900  0.48184255  1.00607309  1
  H+  H252  1  0.77838324  0.15101607  0.83302005  1
  H+  H253  1  0.28109670  0.18655631  0.70436832  1
  H+  H254  1  0.61033918  0.38203171  0.32462477  1
  H+  H255  1  -0.02286692  0.61542228  0.16738996  1
  H+  H256  1  0.11389501  0.14439151  0.83512363  1
  H+  H257  1  0.48197378  0.11805137  -0.00396866  1
  H+  H258  1  0.35998281  0.73353348  1.00931089  1
  H+  H259  1  0.27508415  0.89214970  1.00839844  1
  H+  H260  1  0.63624207  0.12442551  0.84154445  1
  H+  H261  1  0.88633022  0.61644975  0.32671659  1
  H+  H262  1  0.31482060  0.63466029  0.84477473  1
  H+  H263  1  0.32797141  0.92115918  0.10294982  1
  H+  H264  1  0.47608096  0.60929819  -0.03519332  1
  H+  H265  1  0.14527221  0.36399668  -0.01044943  1
  H+  H266  1  0.35221524  0.11810624  0.48740080  1
  H+  H267  1  0.37106135  0.59885719  0.17022465  1
  H+  H268  1  0.60661400  0.46737030  0.15729706  1
  H+  H269  1  0.72641851  0.64431326  0.69425171  1
  H+  H270  1  0.72084209  0.37141902  0.84174631  1
  H+  H271  1  0.85335030  0.68705704  0.73423866  1
  H+  H272  1  0.72646695  0.36206377  0.65239709  1
  H+  H273  1  0.89873707  0.38149688  0.85219216  1
  H+  H274  1  0.86811917  0.64936523  0.14684343  1
  H+  H275  1  0.08752720  0.66827596  0.06007203  1
  H+  H276  1  0.10926413  0.88889529  0.34066736  1
  H+  H277  1  0.35755285  0.10664118  0.84457959  1
  H+  H278  1  0.10813257  0.73593080  0.34114939  1
  H+  H279  1  0.38599979  0.25987395  0.17242607  1
  H+  H280  1  0.86081238  -0.02306835  0.33770472  1
  H+  H281  1  0.64374454  0.52370589  0.85033584  1
  H+  H282  1  0.39300578  1.02170886  0.84317883  1
  H+  H283  1  0.43490945  0.32251884  0.60077616  1
  H+  H284  1  0.12940890  0.48449951  0.15879443  1
  H+  H285  1  0.10726611  0.11691141  0.49295727  1
  H+  H286  1  0.84923214  0.92239276  -0.08213408  1
  H+  H287  1  0.91581058  0.32292406  0.29935348  1
  H+  H288  1  0.09578340  0.43701122  0.46094760  1
  H+  H289  1  0.82931596  0.66397507  0.39836585  1
  H+  H290  1  0.17803037  0.83976376  0.60433740  1
  H+  H291  1  0.69869543  0.57374336  0.58854762  1
  H+  H292  1  0.91238365  0.32247828  0.94380240  1
  H+  H293  1  0.10104512  0.90219276  0.11827995  1
  H+  H294  1  0.41412612  0.07446780  0.56089186  1
  H+  H295  1  0.87201812  0.48067140  0.50053635  1
  H+  H296  1  0.08826220  0.91788228  0.43670390  1
  H+  H297  1  0.37636758  0.39319335  0.34010697  1
  H+  H298  1  0.87104665  0.89249868  0.08152878  1
  H+  H299  1  0.89494694  0.77535333  0.17840767  1
  H+  H300  1  0.82295010  0.87122677  0.08028710  1
  H+  H301  1  0.58087888  0.41034224  0.38390008  1
  H+  H302  1  0.91812256  0.07631779  0.56782667  1
  H+  H303  1  0.92612483  0.58599792  0.56973533  1
  H+  H304  1  0.57844347  0.67273345  0.05559251  1
  H+  H305  1  0.33985310  0.41472811  0.43638487  1
  H+  H306  1  0.11400237  0.22545184  0.00688278  1
  H+  H307  1  0.00492842  0.84922054  0.01288804  1
  H+  H308  1  0.08911422  0.16833518  0.10711685  1
  H+  H309  1  0.83286601  0.36728000  0.71095448  1
  H+  H310  1  0.97752948  0.11026616  0.65833406  1
  H+  H311  1  0.62266201  0.95121838  0.44341070  1
  H+  H312  1  0.07814114  0.15360036  0.42787941  1
  H+  H313  1  0.17841501  0.57903160  0.62670585  1
  H+  H314  1  0.47787167  0.11918805  0.84058935  1
  H+  H315  1  0.98347669  0.64515653  0.99464695  1
  H+  H316  1  0.32864207  0.16323510  0.06577142  1
  H+  H317  1  0.31592139  0.40830949  0.75278462  1
  H+  H318  1  0.35052896  0.88072477  0.32998917  1
  H+  H319  1  0.32211019  0.15219743  0.78951487  1
  H+  H320  1  0.43814655  0.89607527  0.58627103  1
  H+  H321  1  0.91230905  0.61570908  0.91274839  1
  H+  H322  1  0.13350516  0.60809194  0.98454394  1
  H+  H323  1  0.06275205  0.68354275  0.76121176  1
  H+  H324  1  0.39381212  0.85822415  0.58159019  1
  H+  H325  1  0.66887002  0.85299818  0.23560707  1
  H+  H326  1  0.59347619  0.17250633  0.05879991  1
  H+  H327  1  0.62674098  0.36168262  0.98945280  1
  H+  H328  1  0.66492014  0.33944457  0.59548478  1
  H+  H329  1  0.12114882  0.42476015  0.06572393  1
  H+  H330  1  0.68149748  0.60450303  0.59105672  1
  H+  H331  1  0.84070455  0.17665648  0.77567729  1
  H+  H332  1  0.35544768  0.72047773  0.32915571  1
  H+  H333  1  0.24092196  0.65766303  0.84342648  1
  H+  H334  1  0.37502862  0.26383993  0.98330412  1
  H+  H335  1  0.33140177  0.66826551  0.09403100  1
  H+  H336  1  0.68336274  0.93364041  0.72225011  1
  H+  H337  1  0.89044150  0.75803784  0.81957698  1
  H+  H338  1  0.41220078  0.08063219  0.26816983  1
  H+  H339  1  0.14824032  0.55497301  0.93081656  1
  H+  H340  1  0.67232924  0.57347261  0.21821695  1
  H+  H341  1  0.32662223  0.91350688  0.42592749  1
  H+  H342  1  0.34103003  0.92434353  0.77353875  1
  H+  H343  1  0.40342445  0.82657222  0.25427389  1
  H+  H344  1  0.04707928  0.91119801  0.77149500  1
  H+  H345  1  0.32572594  0.66378443  0.43232584  1
  H+  H346  1  0.32784321  0.59532519  0.76290619  1
  H+  H347  1  0.33469743  0.41450397  0.04825282  1
  H+  H348  1  0.07642388  0.15956134  0.73831047  1
  H+  H349  1  0.33483473  0.50601090  0.82672030  1
  H+  H350  1  0.84010321  0.91936361  0.76229334  1
  H+  H351  1  0.23247955  0.86230810  0.50267498  1
  H+  H352  1  0.85268831  0.21648197  0.00992220  1
  H+  H353  1  0.39117514  0.31939872  0.87778249  1
  H+  H354  1  0.82835514  0.14645316  0.43733660  1
  H+  H355  1  0.17704780  0.83890497  0.93343982  1
  H+  H356  1  0.82810667  0.16045601  0.09826594  1
  H+  H357  1  0.42178664  0.84612999  0.94346181  1
  H+  H358  1  0.56064701  0.39842074  0.06137506  1
  H+  H359  1  0.84553380  0.45088497  0.78738758  1
  H+  H360  1  0.67380625  0.08279070  0.23545867  1
  H+  H361  1  0.58504911  0.16856812  0.43231710  1
  H+  H362  1  0.33067008  0.16390448  0.39449898  1
  H+  H363  1  0.12267712  0.62835619  0.67178836  1
  H+  H364  1  0.42067506  0.08579232  0.93834151  1
  H+  H365  1  0.82586771  0.41449467  0.05947671  1
  H+  H366  1  0.15599280  0.07281285  0.90992876  1
  H+  H367  1  0.51701947  0.87204085  0.39307533  1
  H+  H368  1  0.82282421  0.28008400  0.27389463  1
  H+  H369  1  0.91796178  0.82954542  0.27538548  1
  H+  H370  1  0.66610429  0.84231984  0.88990125  1
  H+  H371  1  0.10320938  0.22821835  0.82423378  1
  H+  H372  1  0.15248966  0.32315617  0.92681855  1
  H+  H373  1  0.58298638  0.93231776  0.77765242  1
  H+  H374  1  0.59087285  0.92434973  0.09772981  1
  H+  H375  1  0.62585858  0.39210255  0.47908214  1
  H+  H376  1  0.14830159  0.32158687  0.25111925  1
  H+  H377  1  0.91738254  0.58910282  0.22633736  1
  H+  H378  1  0.41142110  0.58694701  0.60298219  1
  H+  H379  1  0.53476268  0.06999101  0.11498168  1
  H+  H380  1  0.58028209  0.42440992  0.76994355  1
  H+  H381  1  0.94680112  0.33827405  0.20269141  1
  H+  H382  1  0.92580182  0.83851600  0.56605572  1
  H+  H383  1  0.38021294  0.78472328  0.85377099  1
  O2-  O384  1  0.08683954  0.16010268  0.15229245  1
  O2-  O385  1  0.07238693  0.14335727  0.47591116  1
  O2-  O386  1  0.07998471  0.16607615  0.81409687  1
  O2-  O387  1  0.10427378  0.42361596  0.14541458  1
  O2-  O388  1  0.09113785  0.43120019  0.50555420  1
  O2-  O389  1  0.01019058  0.31382317  0.73125608  1
  O2-  O390  1  0.08047609  0.66689660  0.14097800  1
  O2-  O391  1  0.08231069  0.68259450  0.47663260  1
  O2-  O392  1  0.06882819  0.68269810  0.80522784  1
  O2-  O393  1  0.10318925  0.90915173  0.16234817  1
  O2-  O394  1  0.08985949  0.91635004  0.48252886  1
  O2-  O395  1  0.03533641  0.94215884  0.80382186  1
  O2-  O396  1  0.33433290  0.16973029  0.15027750  1
  O2-  O397  1  0.32370240  0.15129724  0.47340148  1
  O2-  O398  1  0.31456098  0.12914681  0.83228646  1
  O2-  O399  1  0.33066413  0.41087831  0.12529017  1
  O2-  O400  1  0.33335049  0.41669710  0.48184744  1
  O2-  O401  1  0.30188815  0.40335665  0.79697277  1
  O2-  O402  1  0.33417140  0.66679938  0.14098403  1
  O2-  O403  1  0.33590736  0.67753620  0.47621926  1
  O2-  O404  1  0.30245341  0.68228866  0.83780059  1
  O2-  O405  1  0.33116179  0.92155826  0.14866671  1
  O2-  O406  1  0.33169569  0.91003950  0.47116507  1
  O2-  O407  1  0.34062343  0.92755482  0.81898368  1
  O2-  O408  1  0.56502181  0.12332263  0.13820262  1
  O2-  O409  1  0.58496456  0.17302867  0.47779752  1
  O2-  O410  1  0.57721420  0.17229264  0.81333908  1
  O2-  O411  1  0.57004865  0.40257051  0.14750739  1
  O2-  O412  1  0.58579093  0.41066343  0.46160172  1
  O2-  O413  1  0.56798996  0.41588459  0.81439239  1
  O2-  O414  1  0.56449104  0.69840958  0.14834971  1
  O2-  O415  1  0.55143111  0.66326331  0.45347562  1
  O2-  O416  1  0.53680064  0.62501808  0.80496224  1
  O2-  O417  1  0.58701499  0.92310000  0.14370352  1
  O2-  O418  1  0.60936072  0.93918111  0.48684857  1
  O2-  O419  1  0.58013095  0.92880845  0.82218773  1
  O2-  O420  1  0.83406527  0.16832885  0.14486892  1
  O2-  O421  1  0.83309948  0.15063186  0.48419965  1
  O2-  O422  1  0.83981973  0.17907783  0.82080868  1
  O2-  O423  1  0.82768404  0.41747994  0.14650287  1
  O2-  O424  1  0.84258113  0.41959199  0.48749146  1
  O2-  O425  1  0.83693760  0.43886097  0.83073634  1
  O2-  O426  1  0.83981884  0.68318836  0.13725364  1
  O2-  O427  1  0.82918417  0.66724718  0.50195596  1
  O2-  O428  1  0.85152349  0.69833695  0.80693494  1
  O2-  O429  1  0.85263903  0.93150024  0.20959957  1
  O2-  O430  1  0.83729752  0.91457559  0.47690051  1
  O2-  O431  1  0.84118674  0.92136237  0.80754200  1
  O2-  O432  1  0.17264766  0.08502668  0.19295116  1
  O2-  O433  1  0.16413215  0.08070582  0.52043221  1
  O2-  O434  1  0.16123792  0.07617242  0.86398922  1
  O2-  O435  1  0.11960006  0.30202732  0.21149298  1
  O2-  O436  1  0.15998083  0.33570783  0.52385081  1
  O2-  O437  1  0.13181441  0.33555736  0.82513062  1
  O2-  O438  1  0.17720458  0.59239071  0.18025657  1
  O2-  O439  1  0.17976246  0.59666649  0.55035621  1
  O2-  O440  1  0.11333452  0.49105630  0.86201050  1
  O2-  O441  1  0.18043447  0.81584590  0.19885762  1
  O2-  O442  1  0.17219315  0.83313226  0.52007901  1
  O2-  O443  1  0.17419302  0.84960550  0.86008171  1
  O2-  O444  1  0.40745244  0.08017702  0.19090619  1
  O2-  O445  1  0.41166569  0.07571336  0.51464258  1
  O2-  O446  1  0.41882758  0.08312072  0.85935062  1
  O2-  O447  1  0.42068676  0.32357661  0.18792130  1
  O2-  O448  1  0.45431006  0.29526355  0.52824237  1
  O2-  O449  1  0.39462138  0.33033202  0.83336072  1
  O2-  O450  1  0.39293209  0.56225425  0.18756204  1
  O2-  O451  1  0.40481223  0.58415096  0.52300951  1
  O2-  O452  1  0.35743064  0.56730680  0.83807510  1
  O2-  O453  1  0.41679156  0.83702312  0.17912340  1
  O2-  O454  1  0.44608668  0.84661494  0.45769689  1
  O2-  O455  1  0.41686234  0.84648247  0.86521158  1
  O2-  O456  1  0.67501352  0.08698026  0.19036153  1
  O2-  O457  1  0.68479307  0.10247289  0.52823275  1
  O2-  O458  1  0.66858915  0.09672508  0.85730640  1
  O2-  O459  1  0.66822356  0.33159655  0.18449404  1
  O2-  O460  1  0.67115522  0.34127679  0.51417654  1
  O2-  O461  1  0.65902918  0.33561245  0.85201087  1
  O2-  O462  1  0.66317683  0.56418010  0.17379781  1
  O2-  O463  1  0.64869419  0.58476694  0.47490076  1
  O2-  O464  1  0.69080345  0.56988247  0.87402632  1
  O2-  O465  1  0.67723501  0.85314232  0.19085747  1
  O2-  O466  1  0.66503367  0.82153661  0.50204538  1
  O2-  O467  1  0.66806950  0.85579241  0.84573506  1
  O2-  O468  1  0.92284335  0.09736001  0.19605837  1
  O2-  O469  1  0.91564154  0.07541649  0.52101948  1
  O2-  O470  1  0.90750664  0.07560884  0.84850859  1
  O2-  O471  1  0.92217928  0.33528875  0.16284347  1
  O2-  O472  1  0.93464080  0.36029673  0.55163579  1
  O2-  O473  1  0.93533181  0.35696260  0.86304981  1
  O2-  O474  1  0.91570286  0.58586139  0.18148854  1
  O2-  O475  1  0.92958380  0.59151657  0.52384814  1
  O2-  O476  1  0.90561549  0.60166793  0.86691094  1
  O2-  O477  1  0.92889081  0.83111809  0.20100646  1
  O2-  O478  1  0.92238154  0.83383993  0.52008241  1
  O2-  O479  1  0.95815549  0.87599615  0.83495965  1
  O2-  O480  1  0.16200772  0.08594344  0.31642446  1
  O2-  O481  1  0.20604386  0.15192258  0.63459797  1
  O2-  O482  1  0.15608851  0.07178488  0.98432831  1
  O2-  O483  1  0.17793460  0.33629409  0.33345532  1
  O2-  O484  1  0.16442594  0.32407276  0.64612287  1
  O2-  O485  1  0.16497008  0.32445988  0.97013156  1
  O2-  O486  1  0.12990810  0.57033087  0.31265622  1
  O2-  O487  1  0.16324445  0.57365831  0.67090366  1
  O2-  O488  1  0.16755764  0.58075417  0.97184355  1
  O2-  O489  1  0.15416032  0.83160085  0.31357218  1
  O2-  O490  1  0.17623430  0.83602502  0.64944983  1
  O2-  O491  1  0.17603481  0.83589806  0.97951305  1
  O2-  O492  1  0.41128133  0.08002481  0.31375221  1
  O2-  O493  1  0.41998894  0.07670191  0.63489249  1
  O2-  O494  1  0.42006081  0.08716962  0.98361816  1
  O2-  O495  1  0.41598123  0.32997273  0.30412888  1
  O2-  O496  1  0.42988557  0.33787219  0.64340778  1
  O2-  O497  1  0.40686687  0.32130583  0.96417574  1
  O2-  O498  1  0.44507529  0.59797642  0.35454075  1
  O2-  O499  1  0.41897537  0.58426090  0.64762629  1
  O2-  O500  1  0.41803321  0.57443859  0.94768328  1
  O2-  O501  1  0.39871706  0.82301825  0.30004627  1
  O2-  O502  1  0.39852707  0.78951025  0.69534191  1
  O2-  O503  1  0.42366464  0.84431671  0.98882101  1
  O2-  O504  1  0.65762496  0.07112824  0.31604933  1
  O2-  O505  1  0.69869996  0.11613256  0.65066868  1
  O2-  O506  1  0.66544118  0.08464697  0.98029646  1
  O2-  O507  1  0.66440739  0.32854086  0.30894144  1
  O2-  O508  1  0.66522421  0.33839680  0.64072803  1
  O2-  O509  1  0.66095082  0.33644392  0.97226320  1
  O2-  O510  1  0.66864597  0.58167653  0.29903502  1
  O2-  O511  1  0.66462181  0.62398864  0.69532150  1
  O2-  O512  1  0.65964091  0.58391049  0.99237705  1
  O2-  O513  1  0.65771575  0.83761165  0.31630621  1
  O2-  O514  1  0.69378662  0.83678843  0.62249447  1
  O2-  O515  1  0.66718129  0.83300325  0.96820988  1
  O2-  O516  1  0.91852232  0.09209332  0.31710468  1
  O2-  O517  1  0.91854575  0.07968436  0.63996067  1
  O2-  O518  1  0.90755872  0.07601640  1.01568542  1
  O2-  O519  1  0.85574408  0.29550843  0.31175375  1
  O2-  O520  1  0.95871439  0.41061831  0.60822623  1
  O2-  O521  1  0.89692896  0.30929264  0.98708415  1
  O2-  O522  1  0.91924108  0.58791315  0.31366508  1
  O2-  O523  1  0.91829121  0.57812101  0.64582275  1
  O2-  O524  1  0.92682389  0.63647284  0.98154962  1
  O2-  O525  1  0.91223426  0.83046028  0.32105717  1
  O2-  O526  1  0.93099046  0.83802538  0.64057000  1
  O2-  O527  1  0.86575673  0.77541935  0.98169441  1
  O2-  O528  1  0.08604055  0.16911017  0.02877063  1
  O2-  O529  1  0.08722569  0.16956121  0.36381276  1
  O2-  O530  1  0.07546805  0.16152115  0.69251371  1
  O2-  O531  1  0.11838512  0.42263429  0.02085311  1
  O2-  O532  1  0.10452422  0.43048847  0.37986116  1
  O2-  O533  1  0.05373040  0.37735052  0.68319984  1
  O2-  O534  1  0.08857012  0.66779723  0.01482343  1
  O2-  O535  1  0.07840469  0.67571017  0.36009924  1
  O2-  O536  1  0.09172063  0.66210641  0.65752248  1
  O2-  O537  1  0.06456066  0.89672336  -0.00651755  1
  O2-  O538  1  0.08095446  0.91905035  0.36001919  1
  O2-  O539  1  0.09043937  0.91160231  0.69471267  1
  O2-  O540  1  0.32358656  0.15712846  0.02100237  1
  O2-  O541  1  0.33195644  0.16794396  0.34917597  1
  O2-  O542  1  0.33367758  0.20995252  0.72937932  1
  O2-  O543  1  0.33586760  0.41224086  0.00267483  1
  O2-  O544  1  0.34898094  0.42251305  0.36094711  1
  O2-  O545  1  0.33489526  0.41248191  0.67509219  1
  O2-  O546  1  0.32849137  0.67388119  0.02496117  1
  O2-  O547  1  0.33324151  0.66268921  0.34880829  1
  O2-  O548  1  0.31748411  0.61140914  0.72209931  1
  O2-  O549  1  0.33430637  0.92278630  0.02693855  1
  O2-  O550  1  0.32295829  0.91167014  0.34849238  1
  O2-  O551  1  0.34053758  0.91407798  0.69663009  1
  O2-  O552  1  0.58974003  0.17134296  0.01417180  1
  O2-  O553  1  0.58048548  0.16325279  0.35409579  1
  O2-  O554  1  0.58430860  0.17528789  0.68757426  1
  O2-  O555  1  0.56653267  0.40275445  0.01680967  1
  O2-  O556  1  0.57985713  0.41293193  0.33849667  1
  O2-  O557  1  0.59526694  0.43462655  0.69191122  1
  O2-  O558  1  0.58371405  0.67184767  0.01134700  1
  O2-  O559  1  0.58334142  0.66863969  0.28047455  1
  O2-  O560  1  0.54476173  0.74799330  0.69188785  1
  O2-  O561  1  0.59053212  0.92022464  0.02247822  1
  O2-  O562  1  0.55859812  0.90106451  0.35922227  1
  O2-  O563  1  0.63398575  0.92668347  0.69888867  1
  O2-  O564  1  0.81993538  0.15520032  0.02775199  1
  O2-  O565  1  0.81898930  0.14105764  0.36749565  1
  O2-  O566  1  0.86083830  0.18512650  0.69611396  1
  O2-  O567  1  0.82790293  0.40655986  0.01547623  1
  O2-  O568  1  0.82567818  0.42194168  0.36349443  1
  O2-  O569  1  0.83325119  0.39939229  0.67510863  1
  O2-  O570  1  0.92119021  0.77871778  0.03197547  1
  O2-  O571  1  0.83085175  0.66652182  0.35403173  1
  O2-  O572  1  0.85018968  0.68305224  0.68813647  1
  O2-  O573  1  0.83926858  0.91162524  -0.03869144  1
  O2-  O574  1  0.82984401  0.91810550  0.35521554  1
  O2-  O575  1  0.84680098  0.91694072  0.68234431  1
