# generated using pymatgen
data_H2O
_symmetry_space_group_name_H-M   'P 1'
_cell_length_a   17.99522990
_cell_length_b   17.98972227
_cell_length_c   21.99860925
_cell_angle_alpha   90.00032003
_cell_angle_beta   89.98389174
_cell_angle_gamma   120.00055103
_symmetry_Int_Tables_number   1
_chemical_formula_structural   H2O
_chemical_formula_sum   'H384 O192'
_cell_volume   6167.44494641
_cell_formula_units_Z   192
loop_
 _symmetry_equiv_pos_site_id
 _symmetry_equiv_pos_as_xyz
  1  'x, y, z'
loop_
 _atom_type_symbol
 _atom_type_oxidation_number
  H+  1.0
  O2-  -2.0
loop_
 _atom_site_type_symbol
 _atom_site_label
 _atom_site_symmetry_multiplicity
 _atom_site_fract_x
 _atom_site_fract_y
 _atom_site_fract_z
 _atom_site_occupancy
  H+  H0  1  0.48521457  0.11229236  0.49929500  1
  H+  H1  1  0.63088457  0.27335712  0.82620145  1
  H+  H2  1  0.35440812  0.72196978  1.02420989  1
  H+  H3  1  0.13866549  0.87054399  0.50345661  1
  H+  H4  1  0.61095632  0.38987720  0.83029115  1
  H+  H5  1  0.42763147  0.16860260  0.17351537  1
  H+  H6  1  0.43086414  0.59251883  0.25553521  1
  H+  H7  1  0.60706765  0.13216577  0.82299695  1
  H+  H8  1  0.13029660  0.53216210  0.16301211  1
  H+  H9  1  0.88398184  0.10945907  0.17262724  1
  H+  H10  1  0.38936490  0.02407868  0.84588823  1
  H+  H11  1  0.02284974  0.63044691  0.00886017  1
  H+  H12  1  0.38267804  0.28190534  0.16904678  1
  H+  H13  1  0.72211215  0.11244058  0.32808390  1
  H+  H14  1  0.27173619  0.12985013  0.00330502  1
  H+  H15  1  0.67892409  0.62706741  0.93469822  1
  H+  H16  1  0.64929406  0.37344151  0.51041893  1
  H+  H17  1  0.63474813  0.38654949  1.00339728  1
  H+  H18  1  0.66683972  0.68547666  -0.01585085  1
  H+  H19  1  0.37088815  0.38847077  0.33416401  1
  H+  H20  1  0.38419252  0.77390214  0.85770077  1
  H+  H21  1  0.38658076  0.52910924  0.84237436  1
  H+  H22  1  0.10247967  0.84002100  0.98531797  1
  H+  H23  1  0.97267331  0.35880719  -0.00166711  1
  H+  H24  1  0.11258155  0.67723561  0.55730183  1
  H+  H25  1  0.08575848  0.41956136  0.09512657  1
  H+  H26  1  0.60451683  0.21214747  0.34484539  1
  H+  H27  1  0.11561270  0.46706332  0.49346204  1
  H+  H28  1  0.63756022  0.78382406  0.66290883  1
  H+  H29  1  0.10549686  0.63085989  0.32670339  1
  H+  H30  1  0.10707432  0.47460609  0.33465727  1
  H+  H31  1  0.87776259  0.85591982  0.17365115  1
  H+  H32  1  0.36120544  0.87704183  0.16120058  1
  H+  H33  1  0.51678943  0.38733083  0.16147954  1
  H+  H34  1  0.28132398  0.89281082  0.83500352  1
  H+  H35  1  0.47568260  0.85688159  0.50676757  1
  H+  H36  1  -0.02573532  0.34240674  0.84844328  1
  H+  H37  1  0.47534183  0.85895880  0.85557135  1
  H+  H38  1  0.12333151  0.41342940  0.16203614  1
  H+  H39  1  0.97658005  0.37032175  0.33997209  1
  H+  H40  1  0.10715986  0.37730357  0.00518972  1
  H+  H41  1  1.01264825  0.38665047  0.67685925  1
  H+  H42  1  0.36811451  0.89203807  0.84869360  1
  H+  H43  1  0.26742664  0.85310948  0.01789837  1
  H+  H44  1  0.27631438  0.39739229  0.83223639  1
  H+  H45  1  -0.03331040  0.11095009  0.63311038  1
  H+  H46  1  0.35702571  0.64019079  0.83264826  1
  H+  H47  1  0.87864031  0.76609239  0.17363877  1
  H+  H48  1  0.33558812  0.16998579  0.76777659  1
  H+  H49  1  0.85485859  -0.01262288  0.84245093  1
  H+  H50  1  0.91366506  0.64686332  0.98528184  1
  H+  H51  1  0.84896471  0.72862367  0.68947302  1
  H+  H52  1  0.92888450  1.01663822  0.73566157  1
  H+  H53  1  0.62868541  0.09551622  0.16772878  1
  H+  H54  1  0.63411582  0.61652754  0.84023305  1
  H+  H55  1  0.85990845  0.86812158  0.84537607  1
  H+  H56  1  0.85740516  0.48030361  0.82106380  1
  H+  H57  1  0.12106151  0.86360386  0.66369948  1
  H+  H58  1  0.85856084  0.74241334  0.34256055  1
  H+  H59  1  0.62785342  0.74146876  0.16053235  1
  H+  H60  1  0.00215402  0.89644283  0.69126055  1
  H+  H61  1  0.51943954  0.13391174  0.82174361  1
  H+  H62  1  0.85765113  0.22704972  0.67017944  1
  H+  H63  1  0.14111157  0.60491655  0.50475229  1
  H+  H64  1  0.73420530  0.87023921  0.17709094  1
  H+  H65  1  0.10247736  0.11724273  0.99933363  1
  H+  H66  1  0.72803843  0.60945488  0.66185386  1
  H+  H67  1  0.85284711  -0.02751556  0.34197240  1
  H+  H68  1  0.08340714  0.66732182  0.76577691  1
  H+  H69  1  0.71876392  0.35565356  0.33523265  1
  H+  H70  1  0.76960115  0.85978829  0.82356144  1
  H+  H71  1  0.67030438  0.83304459  0.27015030  1
  H+  H72  1  0.64330634  0.86814002  0.17800025  1
  H+  H73  1  0.45108565  0.66707716  0.64550174  1
  H+  H74  1  0.38569755  0.28018776  0.66393080  1
  H+  H75  1  0.20357160  0.15710487  0.32658130  1
  H+  H76  1  0.77806649  0.63239939  0.49877005  1
  H+  H77  1  0.13278813  0.61402003  0.84253379  1
  H+  H78  1  0.10702396  0.47565623  0.83247031  1
  H+  H79  1  -0.03355903  0.10178712  -0.01296222  1
  H+  H80  1  0.14808030  0.24876515  0.82630168  1
  H+  H81  1  0.38962643  0.27209717  0.32914588  1
  H+  H82  1  0.87738338  0.40314918  0.00380799  1
  H+  H83  1  0.95493900  0.10989082  0.32807437  1
  H+  H84  1  0.78079301  0.39860681  0.50699378  1
  H+  H85  1  0.61741657  0.97337195  0.33951739  1
  H+  H86  1  0.58752865  0.11305924  0.49959620  1
  H+  H87  1  0.88272469  0.36757378  0.66451457  1
  H+  H88  1  0.09644977  0.97625179  0.67758026  1
  H+  H89  1  0.14004276  0.09651885  0.18076330  1
  H+  H90  1  0.40007847  0.52929724  0.31349847  1
  H+  H91  1  0.59904066  0.88322940  0.67564065  1
  H+  H92  1  0.31548763  0.66272345  0.74296355  1
  H+  H93  1  0.21319345  0.35295775  -0.00377011  1
  H+  H94  1  0.26879835  0.89671723  0.66354175  1
  H+  H95  1  0.20507166  0.86497957  0.32566042  1
  H+  H96  1  -0.02213992  0.36699356  0.50796133  1
  H+  H97  1  0.23518901  0.10970925  0.84309928  1
  H+  H98  1  0.87476299  0.52330133  0.33896399  1
  H+  H99  1  0.85137326  0.87343128  0.49662302  1
  H+  H100  1  0.86046165  0.85823738  0.74645115  1
  H+  H101  1  0.25109624  0.41838162  0.18246217  1
  H+  H102  1  0.61571405  0.12496081  -0.00229143  1
  H+  H103  1  0.12864359  0.74587652  0.50858540  1
  H+  H104  1  0.52934717  0.63580785  0.33181736  1
  H+  H105  1  0.85804499  0.63204884  0.82670867  1
  H+  H106  1  0.61140386  0.12882094  0.66738490  1
  H+  H107  1  0.33879083  0.62674989  0.68365173  1
  H+  H108  1  0.10804550  0.98607412  0.34849418  1
  H+  H109  1  0.16634263  0.07778325  0.60121414  1
  H+  H110  1  0.85892755  0.21822507  0.14977386  1
  H+  H111  1  0.60966694  0.38464588  0.68010840  1
  H+  H112  1  0.36479303  0.22967658  0.50032371  1
  H+  H113  1  0.63235477  0.86198593  0.50856049  1
  H+  H114  1  0.49046390  0.63368293  0.15794016  1
  H+  H115  1  0.27386862  0.13860364  0.67278979  1
  H+  H116  1  0.48357454  0.85821440  0.33526361  1
  H+  H117  1  0.10132513  0.18741017  0.15110219  1
  H+  H118  1  0.05413809  0.96696339  0.12410486  1
  H+  H119  1  0.52266671  0.39165364  0.83223320  1
  H+  H120  1  0.89915905  0.62154469  0.50963374  1
  H+  H121  1  0.11254933  0.46991202  0.00469760  1
  H+  H122  1  0.66555646  0.08075374  0.26663481  1
  H+  H123  1  0.52020529  0.63576551  0.82066934  1
  H+  H124  1  0.38014885  0.60967977  0.50783847  1
  H+  H125  1  0.01115892  0.10754969  0.16615526  1
  H+  H126  1  0.88326721  0.61931922  0.66442034  1
  H+  H127  1  0.15062677  0.01564398  0.18659654  1
  H+  H128  1  0.87357143  0.48693646  0.50250612  1
  H+  H129  1  0.62349450  0.63548858  0.66895483  1
  H+  H130  1  0.42160670  0.33929888  0.56936464  1
  H+  H131  1  0.12087312  0.75031249  0.31836742  1
  H+  H132  1  -0.00917841  0.62572235  0.51692714  1
  H+  H133  1  0.63515398  0.52926165  0.84953703  1
  H+  H134  1  0.91663936  0.80843190  0.92078103  1
  H+  H135  1  0.38132285  0.11464718  0.51049855  1
  H+  H136  1  0.66512491  0.42518714  -0.01505715  1
  H+  H137  1  0.36490281  0.40268012  0.15978846  1
  H+  H138  1  0.77015760  0.69396105  0.37622180  1
  H+  H139  1  0.60501535  0.97805647  0.49542410  1
  H+  H140  1  0.39646885  0.62651529  0.16533132  1
  H+  H141  1  0.42732958  0.89001631  0.01458175  1
  H+  H142  1  0.52827326  0.38780560  0.49388196  1
  H+  H143  1  0.89166725  0.54482698  -0.00659778  1
  H+  H144  1  -0.00553165  0.83445647  0.00725245  1
  H+  H145  1  0.22158703  0.62040992  0.16936615  1
  H+  H146  1  0.86608697  0.10881705  0.33150280  1
  H+  H147  1  0.47654236  0.36750108  0.66610423  1
  H+  H148  1  1.02360406  0.88910868  0.49841974  1
  H+  H149  1  0.66886523  0.26065867  -0.02352076  1
  H+  H150  1  0.32777286  0.66126581  0.21098827  1
  H+  H151  1  0.41814260  0.82650302  0.10409300  1
  H+  H152  1  0.69574944  0.11831715  0.50095631  1
  H+  H153  1  0.38936678  0.11439224  0.84019991  1
  H+  H154  1  1.01905949  0.89784252  0.34384296  1
  H+  H155  1  0.28193710  0.38254710  0.48431165  1
  H+  H156  1  0.53794313  0.87365313  1.01468876  1
  H+  H157  1  1.00244044  0.88143340  0.16158520  1
  H+  H158  1  0.37533649  0.49021083  0.67800668  1
  H+  H159  1  0.37650928  0.87559858  0.45916473  1
  H+  H160  1  0.88494727  0.25342149  0.84592948  1
  H+  H161  1  0.47147904  0.09892437  0.32336062  1
  H+  H162  1  0.53434923  0.63343927  0.66827192  1
  H+  H163  1  0.14141470  0.10898715  0.50407427  1
  H+  H164  1  0.30718810  0.91646282  0.38496050  1
  H+  H165  1  0.10480512  0.63780237  0.67020818  1
  H+  H166  1  0.10156328  0.22929228  0.66946353  1
  H+  H167  1  0.37835547  0.49784485  0.15302116  1
  H+  H168  1  0.88385383  0.86818639  0.32648729  1
  H+  H169  1  0.41656241  1.01169651  0.02651507  1
  H+  H170  1  0.77124633  0.38229657  0.15999041  1
  H+  H171  1  0.39640452  0.11866011  0.32595071  1
  H+  H172  1  0.85331669  0.39067099  0.35882474  1
  H+  H173  1  0.13984375  1.01982346  0.50762780  1
  H+  H174  1  0.64013009  1.01538225  0.17524058  1
  H+  H175  1  0.17048000  0.32949357  0.39423980  1
  H+  H176  1  0.11542289  0.28997514  0.11401287  1
  H+  H177  1  0.60758233  0.37584839  0.34009311  1
  H+  H178  1  0.85980402  0.22467619  0.00466264  1
  H+  H179  1  0.86673914  0.88831216  0.00503960  1
  H+  H180  1  0.34896604  0.61276319  0.33530850  1
  H+  H181  1  -0.02555590  0.61278208  0.15941563  1
  H+  H182  1  0.08406211  0.12820005  0.31723339  1
  H+  H183  1  1.01668029  0.63313527  0.33165137  1
  H+  H184  1  0.63884918  0.76796909  0.32695441  1
  H+  H185  1  0.36392802  0.72296385  0.49072753  1
  H+  H186  1  0.39460080  0.36663248  0.50729897  1
  H+  H187  1  0.77033652  0.13681095  0.66221240  1
  H+  H188  1  0.28440825  0.13942509  0.15842263  1
  H+  H189  1  0.11601761  0.73075933  0.82258100  1
  H+  H190  1  0.47705074  0.36081211  0.32519928  1
  H+  H191  1  0.98476792  0.36585044  0.15790105  1
  H+  H192  1  0.65807648  0.83900950  0.60304194  1
  H+  H193  1  0.37087264  0.76899281  0.66315000  1
  H+  H194  1  0.63294389  0.50761617  0.32034455  1
  H+  H195  1  0.64193692  0.75298531  0.06188346  1
  H+  H196  1  0.63244265  0.36122885  0.17009856  1
  H+  H197  1  0.14158608  0.25669440  0.49136204  1
  H+  H198  1  0.13735628  0.11419958  0.65628554  1
  H+  H199  1  0.36566026  0.13947228  1.00269939  1
  H+  H200  1  0.72697903  0.10182418  -0.01062786  1
  H+  H201  1  0.42535848  0.83705568  0.95459717  1
  H+  H202  1  0.27555311  0.63295690  0.49285232  1
  H+  H203  1  0.87781074  0.51594216  0.16100244  1
  H+  H204  1  0.63608254  0.27184793  0.66319153  1
  H+  H205  1  0.10362224  0.38972428  0.67864679  1
  H+  H206  1  0.43071452  0.59668053  0.89639264  1
  H+  H207  1  0.34121157  0.38013080  0.00561847  1
  H+  H208  1  0.13296997  0.60271811  0.99804402  1
  H+  H209  1  0.11389435  -0.02242130  0.83289715  1
  H+  H210  1  0.60443868  0.96952358  0.83083616  1
  H+  H211  1  0.38250230  0.02675609  0.65641133  1
  H+  H212  1  0.15885183  0.29361039  0.11663760  1
  H+  H213  1  0.52673502  0.87807979  0.15595809  1
  H+  H214  1  0.83659193  0.11125375  0.82110671  1
  H+  H215  1  0.10239135  0.63537002  0.16078329  1
  H+  H216  1  0.48862239  0.12911345  0.98788956  1
  H+  H217  1  0.63813794  0.52027087  0.66122975  1
  H+  H218  1  0.86281995  0.38567376  0.15842487  1
  H+  H219  1  0.12326840  0.52224762  0.66085313  1
  H+  H220  1  0.59150099  -0.03203173  0.67664640  1
  H+  H221  1  0.87641535  0.61176625  0.15613896  1
  H+  H222  1  0.97942771  0.87087536  0.86969173  1
  H+  H223  1  0.38401270  0.52205555  0.51057072  1
  H+  H224  1  0.72225773  0.59605493  0.31712735  1
  H+  H225  1  0.39211945  0.87115487  0.38913120  1
  H+  H226  1  0.25612496  0.80919472  1.02897095  1
  H+  H227  1  0.72183848  0.82746477  0.02641340  1
  H+  H228  1  0.01647468  0.63948289  0.67450925  1
  H+  H229  1  0.85958262  -0.02720130  1.00498652  1
  H+  H230  1  0.83053077  0.42001467  0.73295154  1
  H+  H231  1  0.13089260  0.86118511  0.16475355  1
  H+  H232  1  0.60631424  0.12445344  0.34237269  1
  H+  H233  1  0.85842695  0.47701829  0.67197800  1
  H+  H234  1  0.72019907  0.85891166  0.50988676  1
  H+  H235  1  0.63577244  0.76857175  0.83411800  1
  H+  H236  1  0.64166635  0.85939613  0.83631502  1
  H+  H237  1  0.75196909  0.35478232  0.97446510  1
  H+  H238  1  0.16078135  0.58167640  0.90268787  1
  H+  H239  1  0.12304701  0.76887718  0.16518114  1
  H+  H240  1  0.10015259  0.22172047  0.33729252  1
  H+  H241  1  0.65268179  0.61715727  0.50232620  1
  H+  H242  1  0.76912060  0.12948388  0.15735451  1
  H+  H243  1  0.29184649  0.13240025  0.34891755  1
  H+  H244  1  0.27566643  0.88298437  0.16169233  1
  H+  H245  1  0.71448329  0.10496325  0.83536331  1
  H+  H246  1  0.52066816  0.12814808  0.15289942  1
  H+  H247  1  0.86314230  0.24315697  0.50358650  1
  H+  H248  1  0.76730219  0.39251033  0.81743863  1
  H+  H249  1  0.85556751  0.22956273  0.35064126  1
  H+  H250  1  0.52395522  0.50733714  0.03305221  1
  H+  H251  1  0.05709583  0.75874030  0.94554644  1
  H+  H252  1  0.62839532  0.72984097  0.49119100  1
  H+  H253  1  0.41229873  0.59107538  0.59642957  1
  H+  H254  1  0.62412700  0.27105974  0.17657943  1
  H+  H255  1  0.13943632  0.37037375  0.84165231  1
  H+  H256  1  0.26632183  0.63757136  0.83540867  1
  H+  H257  1  0.47496393  0.11408712  0.65846329  1
  H+  H258  1  0.62502394  0.65292822  0.14730758  1
  H+  H259  1  0.63428829  0.52309051  0.16439924  1
  H+  H260  1  0.22295088  0.60658618  0.99961016  1
  H+  H261  1  0.88701740  0.76535667  0.51299686  1
  H+  H262  1  0.12480712  0.26152838  0.99066476  1
  H+  H263  1  0.11019892  0.71584383  0.00887673  1
  H+  H264  1  0.46219953  0.85486698  0.66297817  1
  H+  H265  1  0.03046585  0.13594289  0.48208973  1
  H+  H266  1  0.61400701  0.62838675  0.33065565  1
  H+  H267  1  0.24227305  0.38548105  0.65877844  1
  H+  H268  1  0.38053459  0.27441152  0.99432540  1
  H+  H269  1  0.97867956  0.61694002  0.83565759  1
  H+  H270  1  0.35463913  0.89192156  0.66187626  1
  H+  H271  1  0.67278619  0.57974164  0.56342180  1
  H+  H272  1  0.81555751  0.14618159  0.52637407  1
  H+  H273  1  0.76915844  0.63109147  0.15347625  1
  H+  H274  1  0.82056772  0.15437735  0.76243938  1
  H+  H275  1  0.66629940  0.58028196  0.22332105  1
  H+  H276  1  0.07214582  0.91632065  0.77582663  1
  H+  H277  1  0.72367386  0.36259559  0.66679872  1
  H+  H278  1  0.31964519  0.97818868  0.32991632  1
  H+  H279  1  0.12158590  0.00521427  0.98702805  1
  H+  H280  1  0.28558165  0.39506139  0.33885265  1
  H+  H281  1  0.76934627  0.63344415  0.82973712  1
  H+  H282  1  0.45875003  0.37305526  0.99586738  1
  H+  H283  1  0.15416437  0.12136117  0.84157594  1
  H+  H284  1  0.94080324  0.07870447  0.78941963  1
  H+  H285  1  0.64400148  0.00838930  0.99234268  1
  H+  H286  1  0.38572329  0.36698005  0.84081588  1
  H+  H287  1  0.21249300  0.59255262  0.32244349  1
  H+  H288  1  0.34803742  0.17186127  0.40843270  1
  H+  H289  1  0.16018325  0.82974153  0.89040053  1
  H+  H290  1  0.41319367  0.08608765  0.57043126  1
  H+  H291  1  0.03746146  0.14205790  0.70751605  1
  H+  H292  1  0.91624013  0.59104247  0.60506707  1
  H+  H293  1  0.61706351  0.47708722  0.49015830  1
  H+  H294  1  0.15372731  0.82121734  0.25747347  1
  H+  H295  1  0.51099481  0.05566640  0.10606345  1
  H+  H296  1  0.18690046  0.09227391  0.27150768  1
  H+  H297  1  0.67555432  0.32534202  0.88609109  1
  H+  H298  1  0.83998834  0.67180967  0.44082221  1
  H+  H299  1  0.82194831  0.42185394  0.41466973  1
  H+  H300  1  0.90452811  0.08000610  0.23663072  1
  H+  H301  1  0.17871709  0.35915519  0.22923368  1
  H+  H302  1  0.13189615  0.36302443  0.34532232  1
  H+  H303  1  0.82145253  0.16695816  0.40749478  1
  H+  H304  1  0.91246705  0.32335022  0.93974742  1
  H+  H305  1  0.82891207  0.15842616  0.06042176  1
  H+  H306  1  0.65922643  0.07477950  0.89685135  1
  H+  H307  1  0.56828048  0.90693433  0.77397209  1
  H+  H308  1  0.58834454  0.15712442  0.05566174  1
  H+  H309  1  0.37176505  0.39919382  0.67587832  1
  H+  H310  1  0.78799526  0.69457849  0.00484939  1
  H+  H311  1  0.91282514  0.13768665  0.48265909  1
  H+  H312  1  0.92251174  0.58900903  0.89604418  1
  H+  H313  1  0.19736464  0.41585622  0.61268383  1
  H+  H314  1  0.07399358  0.66187768  0.09892273  1
  H+  H315  1  0.76892723  0.87984498  0.34067056  1
  H+  H316  1  0.21194221  0.61065007  0.66282949  1
  H+  H317  1  0.92366924  0.09435857  0.54191292  1
  H+  H318  1  0.61949592  0.85996877  0.02046640  1
  H+  H319  1  0.58214003  0.41977906  0.73831797  1
  H+  H320  1  0.88223210  0.11578302  0.63930581  1
  H+  H321  1  0.14176663  0.19708624  0.76612391  1
  H+  H322  1  0.38516324  0.95394560  0.08844060  1
  H+  H323  1  0.60506401  0.67282480  0.43013218  1
  H+  H324  1  0.65535654  0.07692764  0.57552159  1
  H+  H325  1  0.33589910  0.17223458  0.09548989  1
  H+  H326  1  0.58370917  0.66209439  0.76260066  1
  H+  H327  1  0.90629420  0.35520200  0.28997081  1
  H+  H328  1  0.08180148  0.42057139  0.39873664  1
  H+  H329  1  0.87981378  0.10712040  0.98904377  1
  H+  H330  1  0.31762381  0.41644186  0.06412326  1
  H+  H331  1  0.83935776  0.42761459  0.06026670  1
  H+  H332  1  0.45188854  0.13449826  0.23271620  1
  H+  H333  1  0.56978935  0.42656441  0.10116510  1
  H+  H334  1  0.17271929  0.31648532  0.55050890  1
  H+  H335  1  0.82330112  0.90332891  0.43740422  1
  H+  H336  1  0.36455929  0.14230900  0.67219321  1
  H+  H337  1  0.16678170  0.33742980  0.90124740  1
  H+  H338  1  0.31770072  0.65864381  0.07997449  1
  H+  H339  1  0.15672910  0.57503753  0.26046722  1
  H+  H340  1  0.91642692  0.34068642  0.60533606  1
  H+  H341  1  0.83473159  0.68040022  0.09703075  1
  H+  H342  1  0.58387552  0.91766333  0.43672271  1
  H+  H343  1  0.06772296  0.13774184  0.05939859  1
  H+  H344  1  0.11084146  0.37525131  0.48874489  1
  H+  H345  1  0.92831941  0.31328917  0.21375471  1
  H+  H346  1  0.88172247  0.61363260  0.33671985  1
  H+  H347  1  0.27483875  0.13881515  0.49783544  1
  H+  H348  1  0.07802746  0.92218913  0.43625630  1
  H+  H349  1  0.42154195  0.08992234  0.93362913  1
  H+  H350  1  0.91576826  0.82750162  0.57030647  1
  H+  H351  1  0.41148938  0.33518379  0.23130521  1
  H+  H352  1  0.37965496  0.75412576  0.15727812  1
  H+  H353  1  0.58120490  0.41223689  0.39793373  1
  H+  H354  1  0.84001146  0.91866360  0.10241468  1
  H+  H355  1  0.58216743  0.15683083  0.72791462  1
  H+  H356  1  0.84848857  0.86158451  0.67569193  1
  H+  H357  1  0.67452925  0.34558169  0.57261217  1
  H+  H358  1  0.60397174  0.51029245  0.00679575  1
  H+  H359  1  0.82399074  0.65855223  0.74027104  1
  H+  H360  1  0.16245354  0.07110372  0.93147992  1
  H+  H361  1  0.08905665  0.15388993  0.42366738  1
  H+  H362  1  0.40963971  0.84395927  0.29003992  1
  H+  H363  1  0.41055093  0.33370679  0.90007391  1
  H+  H364  1  0.12701007  0.77819202  0.66181704  1
  H+  H365  1  0.61942626  0.88478010  0.34254716  1
  H+  H366  1  0.07684748  0.41771316  0.77268887  1
  H+  H367  1  0.55565090  0.14085956  0.43490568  1
  H+  H368  1  0.86667758  -0.02331072  0.16330839  1
  H+  H369  1  0.33646013  0.42662222  0.77274593  1
  H+  H370  1  0.66557957  0.32663130  0.27258619  1
  H+  H371  1  0.89122984  0.05832926  0.89586674  1
  H+  H372  1  0.68844170  0.02457631  0.62265065  1
  H+  H373  1  0.91321363  0.83378172  0.26831831  1
  H+  H374  1  0.16753207  0.84676947  0.56467389  1
  H+  H375  1  0.59704736  0.91202099  0.10367844  1
  H+  H376  1  0.31696644  0.63670112  0.39602205  1
  H+  H377  1  0.41046959  0.82624065  0.56311678  1
  H+  H378  1  0.16372460  0.57189949  0.56434297  1
  H+  H379  1  0.34888876  0.42324351  0.42963649  1
  H+  H380  1  0.13731605  0.86675355  0.83306618  1
  H+  H381  1  0.05846735  0.89034951  0.06084667  1
  H+  H382  1  0.89198540  0.37573972  0.51042014  1
  H+  H383  1  0.36456499  0.22896350  0.82746181  1
  O2-  O384  1  0.06931836  0.12472327  0.14811146  1
  O2-  O385  1  0.09360867  0.16006226  0.46834692  1
  O2-  O386  1  0.13224952  0.19079793  0.80987204  1
  O2-  O387  1  0.08083285  0.42531601  0.14065593  1
  O2-  O388  1  0.08155212  0.40728543  0.47646388  1
  O2-  O389  1  0.08076805  0.41515645  0.81763644  1
  O2-  O390  1  0.06778493  0.66219215  0.14494390  1
  O2-  O391  1  0.10141670  0.67949386  0.51412065  1
  O2-  O392  1  0.08489629  0.66826549  0.81123168  1
  O2-  O393  1  0.06119232  0.92133572  0.14236142  1
  O2-  O394  1  0.08298163  0.92144140  0.48229884  1
  O2-  O395  1  0.07926270  0.91578478  0.82073306  1
  O2-  O396  1  0.34133355  0.17889715  0.14085478  1
  O2-  O397  1  0.33583813  0.17030790  0.48293628  1
  O2-  O398  1  0.33630180  0.16805655  0.81318345  1
  O2-  O399  1  0.33778336  0.43524696  0.14395606  1
  O2-  O400  1  0.34405116  0.41772102  0.47487007  1
  O2-  O401  1  0.33780120  0.42683065  0.81788106  1
  O2-  O402  1  0.32724288  0.66455261  0.16671873  1
  O2-  O403  1  0.33442979  0.66174537  0.47584670  1
  O2-  O404  1  0.32635698  0.67060512  0.81890602  1
  O2-  O405  1  0.33811485  0.91671644  0.15552833  1
  O2-  O406  1  0.37820624  0.90289744  0.42002046  1
  O2-  O407  1  0.34450679  0.92603504  0.83012638  1
  O2-  O408  1  0.55480456  0.10877153  0.12697083  1
  O2-  O409  1  0.55184696  0.14037690  0.48043480  1
  O2-  O410  1  0.57875673  0.16206324  0.80380935  1
  O2-  O411  1  0.57662278  0.41508909  0.14428575  1
  O2-  O412  1  0.58637788  0.41657055  0.47478790  1
  O2-  O413  1  0.58327675  0.42421776  0.81761530  1
  O2-  O414  1  0.60026203  0.68874305  0.13440316  1
  O2-  O415  1  0.61770209  0.67414647  0.47392236  1
  O2-  O416  1  0.58135868  0.66200302  0.80798457  1
  O2-  O417  1  0.59076023  0.91286000  0.14924679  1
  O2-  O418  1  0.58129158  0.91684328  0.48202682  1
  O2-  O419  1  0.57373702  0.90732554  0.81902694  1
  O2-  O420  1  0.82915624  0.15587626  0.14054116  1
  O2-  O421  1  0.82966236  0.18080238  0.48951036  1
  O2-  O422  1  0.81576984  0.15059018  0.80761117  1
  O2-  O423  1  0.83221351  0.41645531  0.14605462  1
  O2-  O424  1  0.84122956  0.42595976  0.48835672  1
  O2-  O425  1  0.82746176  0.42245304  0.80230898  1
  O2-  O426  1  0.83192704  0.66282604  0.14103861  1
  O2-  O427  1  0.84077333  0.66699452  0.48570268  1
  O2-  O428  1  0.82649066  0.65962707  0.80968263  1
  O2-  O429  1  0.83795311  0.91626819  0.14797968  1
  O2-  O430  1  0.81702256  0.89860687  0.48212056  1
  O2-  O431  1  0.83294917  0.88608150  0.81298646  1
  O2-  O432  1  0.17945869  0.07718258  0.19722468  1
  O2-  O433  1  0.17197080  0.08123810  0.52279105  1
  O2-  O434  1  0.17424491  0.08184055  0.85770591  1
  O2-  O435  1  0.19890730  0.41082556  0.20502220  1
  O2-  O436  1  0.17061805  0.31907869  0.50584447  1
  O2-  O437  1  0.17505449  0.34513862  0.85608460  1
  O2-  O438  1  0.15798202  0.59115259  0.18079533  1
  O2-  O439  1  0.16587497  0.56936172  0.51886867  1
  O2-  O440  1  0.16147808  0.58184346  0.85714496  1
  O2-  O441  1  0.15692670  0.82897989  0.18126188  1
  O2-  O442  1  0.17036328  0.84255745  0.51981768  1
  O2-  O443  1  0.16798316  0.83521948  0.84559259  1
  O2-  O444  1  0.47616329  0.16782744  0.19432157  1
  O2-  O445  1  0.40947930  0.08180663  0.52450833  1
  O2-  O446  1  0.42188376  0.08780981  0.85725484  1
  O2-  O447  1  0.41292185  0.34140205  0.18615196  1
  O2-  O448  1  0.42283908  0.33526690  0.52409164  1
  O2-  O449  1  0.41417317  0.33444148  0.85461553  1
  O2-  O450  1  0.43210965  0.59904184  0.17608096  1
  O2-  O451  1  0.40484101  0.57844062  0.53033216  1
  O2-  O452  1  0.41730918  0.59201695  0.85269913  1
  O2-  O453  1  0.41882709  0.82260753  0.14833403  1
  O2-  O454  1  0.41357951  0.82308344  0.51810497  1
  O2-  O455  1  0.41791004  0.83188252  0.87620014  1
  O2-  O456  1  0.66757994  0.07749793  0.18743268  1
  O2-  O457  1  0.64072844  0.08064775  0.52070503  1
  O2-  O458  1  0.65425106  0.07547192  0.85170252  1
  O2-  O459  1  0.66325624  0.33173079  0.18565714  1
  O2-  O460  1  0.68536579  0.35162206  0.52805313  1
  O2-  O461  1  0.66001020  0.33268198  0.84306583  1
  O2-  O462  1  0.66903532  0.58420459  0.17801601  1
  O2-  O463  1  0.67751637  0.58068876  0.51815538  1
  O2-  O464  1  0.66572955  0.59115063  0.86132197  1
  O2-  O465  1  0.67490250  0.83904076  0.19412221  1
  O2-  O466  1  0.65927473  0.82967197  0.52570151  1
  O2-  O467  1  0.67325614  0.82918027  0.84683062  1
  O2-  O468  1  0.91302134  0.07983441  0.19147138  1
  O2-  O469  1  0.93768344  0.10341015  0.49718209  1
  O2-  O470  1  0.87689807  0.04926144  0.85176929  1
  O2-  O471  1  0.92200803  0.32942982  0.17266756  1
  O2-  O472  1  0.91887811  0.34112947  0.52523447  1
  O2-  O473  1  0.91911395  0.30671456  0.86953631  1
  O2-  O474  1  0.90879998  0.58045042  0.17029649  1
  O2-  O475  1  0.92830887  0.59167300  0.52740572  1
  O2-  O476  1  0.91832584  0.58655013  0.85100028  1
  O2-  O477  1  0.90907145  0.82634240  0.18926612  1
  O2-  O478  1  0.91645732  0.82754850  0.52611551  1
  O2-  O479  1  0.92831463  0.85768189  0.89440891  1
  O2-  O480  1  0.18434185  0.09726452  0.31707831  1
  O2-  O481  1  0.16453168  0.07917443  0.64676473  1
  O2-  O482  1  0.15652597  0.06694982  0.97740454  1
  O2-  O483  1  0.16310688  0.32952020  0.35020528  1
  O2-  O484  1  0.18598988  0.36579375  0.63688300  1
  O2-  O485  1  0.15283273  0.32227795  0.97768381  1
  O2-  O486  1  0.15222252  0.56977307  0.30568555  1
  O2-  O487  1  0.15454882  0.58084224  0.64215301  1
  O2-  O488  1  0.16380105  0.57442897  0.98086768  1
  O2-  O489  1  0.14832069  0.81578587  0.30281956  1
  O2-  O490  1  0.15404016  0.83817259  0.64620501  1
  O2-  O491  1  0.11360384  0.79766110  0.96266294  1
  O2-  O492  1  0.41600284  0.08370511  0.30319329  1
  O2-  O493  1  0.41469865  0.09022204  0.64426288  1
  O2-  O494  1  0.42560912  0.09650863  0.97930801  1
  O2-  O495  1  0.41583450  0.33076808  0.31083576  1
  O2-  O496  1  0.41638938  0.34142582  0.64986096  1
  O2-  O497  1  0.40224913  0.33331521  0.97756782  1
  O2-  O498  1  0.42965620  0.59059969  0.30106067  1
  O2-  O499  1  0.42093178  0.60444816  0.64353229  1
  O2-  O500  1  0.47657206  0.58006289  1.01796318  1
  O2-  O501  1  0.42003425  0.82605862  0.32933612  1
  O2-  O502  1  0.40382522  0.82612873  0.64386218  1
  O2-  O503  1  0.43289598  0.84029373  0.99995265  1
  O2-  O504  1  0.66250138  0.07898045  0.31212829  1
  O2-  O505  1  0.67118402  0.06783440  0.62742107  1
  O2-  O506  1  0.66577199  0.06712599  0.97586912  1
  O2-  O507  1  0.65974926  0.32167477  0.31734595  1
  O2-  O508  1  0.66247260  0.33381221  0.65256467  1
  O2-  O509  1  0.70920952  0.30746705  0.94927274  1
  O2-  O510  1  0.66281734  0.56697430  0.30189457  1
  O2-  O511  1  0.66893031  0.57947115  0.64350219  1
  O2-  O512  1  0.68576974  0.64292103  0.97890236  1
  O2-  O513  1  0.66898743  0.83046204  0.31575753  1
  O2-  O514  1  0.65595865  0.84242311  0.64849284  1
  O2-  O515  1  0.66015680  0.78471991  1.02284425  1
  O2-  O516  1  0.89440434  0.07809902  0.31369597  1
  O2-  O517  1  0.90933275  0.08860870  0.61550058  1
  O2-  O518  1  0.90484897  0.07136743  0.97451438  1
  O2-  O519  1  0.91205848  0.33997326  0.33146280  1
  O2-  O520  1  0.91469452  0.33744977  0.65058304  1
  O2-  O521  1  0.91135333  0.33110873  0.98560341  1
  O2-  O522  1  0.90732187  0.58131042  0.32016465  1
  O2-  O523  1  0.91407717  0.58895874  0.65053192  1
  O2-  O524  1  0.93169211  0.60279175  0.97629356  1
  O2-  O525  1  0.91456181  0.83651567  0.31357496  1
  O2-  O526  1  0.88035961  0.84861639  0.70554900  1
  O2-  O527  1  0.91273573  0.74016434  0.98888662  1
  O2-  O528  1  0.07083609  0.14629601  0.01507596  1
  O2-  O529  1  0.06300207  0.15802456  0.34304850  1
  O2-  O530  1  0.08181166  0.16826180  0.67380260  1
  O2-  O531  1  0.08017705  0.41033285  0.02196033  1
  O2-  O532  1  0.07712379  0.41452495  0.35337182  1
  O2-  O533  1  0.07398237  0.42020957  0.69240338  1
  O2-  O534  1  0.08251321  0.65724275  0.02711950  1
  O2-  O535  1  0.07979209  0.66612973  0.33997938  1
  O2-  O536  1  0.07863656  0.67081101  0.68708612  1
  O2-  O537  1  0.05290329  0.88756536  0.01624424  1
  O2-  O538  1  0.07569646  0.92755341  0.36433883  1
  O2-  O539  1  0.06412647  0.91732928  0.69558956  1
  O2-  O540  1  0.33141820  0.16609040  0.01809758  1
  O2-  O541  1  0.35108482  0.17199859  0.36248608  1
  O2-  O542  1  0.33416116  0.17271437  0.68773052  1
  O2-  O543  1  0.30704575  0.40611552  0.01981429  1
  O2-  O544  1  0.34711779  0.42529501  0.34920894  1
  O2-  O545  1  0.34091510  0.42976883  0.69064864  1
  O2-  O546  1  0.31643571  0.66142360  0.03550935  1
  O2-  O547  1  0.29843297  0.60961261  0.35547244  1
  O2-  O548  1  0.31041091  0.65874634  0.69708674  1
  O2-  O549  1  0.42885240  0.97567210  0.05457387  1
  O2-  O550  1  0.27437502  0.93244076  0.35517064  1
  O2-  O551  1  0.33061289  0.92872919  0.67354302  1
  O2-  O552  1  0.59464270  0.16450092  0.01066329  1
  O2-  O553  1  0.57325311  0.15131917  0.35869215  1
  O2-  O554  1  0.58306999  0.15996732  0.68206568  1
  O2-  O555  1  0.55099017  0.47148480  0.02882523  1
  O2-  O556  1  0.57950032  0.40969009  0.35210269  1
  O2-  O557  1  0.58017668  0.41707567  0.69271350  1
  O2-  O558  1  0.49316573  0.62824709  -0.02736809  1
  O2-  O559  1  0.58994835  0.66308322  0.34747475  1
  O2-  O560  1  0.59303166  0.66579118  0.68469852  1
  O2-  O561  1  0.59968405  0.90208044  0.02764637  1
  O2-  O562  1  0.58864706  0.91463782  0.35739781  1
  O2-  O563  1  0.56400429  0.90869276  0.69266330  1
  O2-  O564  1  0.83097922  0.16173317  0.01523392  1
  O2-  O565  1  0.82368197  0.16793113  0.36250394  1
  O2-  O566  1  0.82914960  0.16480635  0.68058139  1
  O2-  O567  1  0.84923480  0.43713867  0.01615252  1
  O2-  O568  1  0.81823567  0.41731510  0.36873160  1
  O2-  O569  1  0.83020654  0.41641638  0.68601302  1
  O2-  O570  1  0.84182655  0.72794837  0.02985806  1
  O2-  O571  1  0.81692848  0.68518745  0.36285076  1
  O2-  O572  1  0.82675270  0.66642462  0.69346112  1
  O2-  O573  1  0.83747747  0.91495064  0.02506458  1
  O2-  O574  1  0.83045713  0.91196853  0.35492082  1
  O2-  O575  1  0.95808973  1.07706671  0.74656006  1
