# generated using pymatgen
data_H2O
_symmetry_space_group_name_H-M   'P 1'
_cell_length_a   17.99131833
_cell_length_b   17.98718280
_cell_length_c   22.00767512
_cell_angle_alpha   90.00401585
_cell_angle_beta   89.99458274
_cell_angle_gamma   120.00210820
_symmetry_Int_Tables_number   1
_chemical_formula_structural   H2O
_chemical_formula_sum   'H384 O192'
_cell_volume   6167.67819074
_cell_formula_units_Z   192
loop_
 _symmetry_equiv_pos_site_id
 _symmetry_equiv_pos_as_xyz
  1  'x, y, z'
loop_
 _atom_type_symbol
 _atom_type_oxidation_number
  H+  1.0
  O2-  -2.0
loop_
 _atom_site_type_symbol
 _atom_site_label
 _atom_site_symmetry_multiplicity
 _atom_site_fract_x
 _atom_site_fract_y
 _atom_site_fract_z
 _atom_site_occupancy
  H+  H0  1  0.60454917  0.63944340  0.67314198  1
  H+  H1  1  0.88445511  1.02545900  0.16353674  1
  H+  H2  1  0.14913062  0.33199141  1.02041277  1
  H+  H3  1  0.92076072  0.11463184  0.04150745  1
  H+  H4  1  0.61186234  0.39215717  0.99768530  1
  H+  H5  1  0.34405893  0.69236298  0.04531354  1
  H+  H6  1  0.85966398  0.86348145  1.01921058  1
  H+  H7  1  0.71846160  0.62172753  0.17218979  1
  H+  H8  1  0.85962013  -0.02078706  0.67841106  1
  H+  H9  1  0.10301942  0.39737050  0.68295269  1
  H+  H10  1  0.41343170  0.33612968  0.89585790  1
  H+  H11  1  0.43010177  0.34270900  0.58308310  1
  H+  H12  1  1.02057854  0.63619383  0.32549545  1
  H+  H13  1  0.41463436  0.58940428  0.90091059  1
  H+  H14  1  0.12381466  0.35301658  0.52217656  1
  H+  H15  1  0.28427769  0.14969400  0.33479521  1
  H+  H16  1  0.61057435  0.72448493  -0.00091984  1
  H+  H17  1  0.38861573  0.39748238  0.17385682  1
  H+  H18  1  0.83204086  0.10761579  0.87608592  1
  H+  H19  1  0.57117110  0.96178024  0.48339672  1
  H+  H20  1  0.88110665  0.84601420  0.50003377  1
  H+  H21  1  0.10634501  0.47848027  -0.00454711  1
  H+  H22  1  0.66012052  0.58049651  0.26381994  1
  H+  H23  1  0.97313322  0.11451741  0.15906004  1
  H+  H24  1  0.11716436  0.72426693  0.68963626  1
  H+  H25  1  0.10496537  0.63571560  0.50957585  1
  H+  H26  1  0.38532106  0.80451144  0.18465288  1
  H+  H27  1  0.96175742  0.36787231  0.99130724  1
  H+  H28  1  0.10496855  0.49470479  0.67532562  1
  H+  H29  1  1.01824628  0.63772664  0.50685494  1
  H+  H30  1  0.77146905  0.38464918  0.35191194  1
  H+  H31  1  0.83235567  0.85026961  0.82484440  1
  H+  H32  1  0.86038506  0.15288060  0.48831421  1
  H+  H33  1  0.39350695  0.62968824  0.33005175  1
  H+  H34  1  0.35809107  0.48155671  0.67533386  1
  H+  H35  1  0.60887698  0.88580851  0.67680973  1
  H+  H36  1  0.38089355  0.11646886  -0.01255734  1
  H+  H37  1  0.84285052  0.63489792  0.15631899  1
  H+  H38  1  0.10082131  0.87374500  0.16376859  1
  H+  H39  1  0.72161640  0.61135765  0.50779613  1
  H+  H40  1  0.88278546  0.61400175  0.98889531  1
  H+  H41  1  0.76085128  0.15030846  0.82359575  1
  H+  H42  1  0.86906318  0.95089838  0.00284092  1
  H+  H43  1  0.39165362  0.77059569  0.33656858  1
  H+  H44  1  0.62553233  0.26623643  0.35363776  1
  H+  H45  1  0.12832255  0.62024369  0.67886827  1
  H+  H46  1  0.61532225  -0.02032700  0.33026299  1
  H+  H47  1  0.82378109  0.13464044  -0.01757023  1
  H+  H48  1  0.72717628  0.11450422  0.66396905  1
  H+  H49  1  0.19181967  0.33965443  0.30782071  1
  H+  H50  1  0.85319713  0.22329066  0.32211868  1
  H+  H51  1  0.38109317  0.01653925  0.50238536  1
  H+  H52  1  0.86195682  0.03693186  0.53200366  1
  H+  H53  1  0.24783167  0.10171051  0.15488651  1
  H+  H54  1  0.01438767  0.87998786  0.33578046  1
  H+  H55  1  0.60641437  0.39170339  0.14137679  1
  H+  H56  1  0.97386987  0.37356411  0.50400502  1
  H+  H57  1  0.47887277  0.87769284  0.67459410  1
  H+  H58  1  0.98305124  0.06720791  0.97145604  1
  H+  H59  1  0.09964992  0.13055278  0.34586743  1
  H+  H60  1  0.89455535  0.57298745  0.26886019  1
  H+  H61  1  0.14276421  0.33150126  0.62540552  1
  H+  H62  1  0.25775276  0.58695947  0.18074268  1
  H+  H63  1  0.19063954  0.32420681  0.54097696  1
  H+  H64  1  0.61586450  0.38167290  0.50853921  1
  H+  H65  1  0.21642136  0.61201800  0.67316530  1
  H+  H66  1  0.40017291  0.41008578  0.33872225  1
  H+  H67  1  0.22329326  0.86381570  0.32446300  1
  H+  H68  1  0.74268438  0.88215191  0.18083425  1
  H+  H69  1  0.35414726  0.38997178  0.67598879  1
  H+  H70  1  0.08991883  0.37058340  0.33249575  1
  H+  H71  1  0.86518243  0.14325288  0.68077916  1
  H+  H72  1  0.85529887  0.72164005  0.34047255  1
  H+  H73  1  0.51499180  0.38086801  0.51853720  1
  H+  H74  1  0.48059947  0.61010668  0.99130593  1
  H+  H75  1  0.08424361  0.20855953  0.49855612  1
  H+  H76  1  0.86982651  0.27983987  0.99007341  1
  H+  H77  1  0.27116331  0.63586805  0.34291667  1
  H+  H78  1  0.41091614  0.55101041  0.32564896  1
  H+  H79  1  0.61516638  0.39181389  0.34971125  1
  H+  H80  1  0.35522294  0.12944779  0.67176997  1
  H+  H81  1  0.14234905  0.03545304  0.64679228  1
  H+  H82  1  0.63056259  0.77419574  0.66229818  1
  H+  H83  1  0.50899802  0.63633548  0.15125703  1
  H+  H84  1  0.39214952  0.78900733  0.97475642  1
  H+  H85  1  0.98074567  0.59996912  0.67205625  1
  H+  H86  1  0.10814902  0.87783752  0.49447060  1
  H+  H87  1  0.78045748  0.63592078  0.82382383  1
  H+  H88  1  0.66049833  0.32744477  0.29662300  1
  H+  H89  1  0.11593511  0.46959475  0.15073250  1
  H+  H90  1  0.21650608  0.60674878  0.52318179  1
  H+  H91  1  0.64858927  0.87441933  0.18107175  1
  H+  H92  1  0.91351156  0.33192685  0.59847357  1
  H+  H93  1  0.12506083  0.48162889  0.50467850  1
  H+  H94  1  0.97362046  0.85388784  0.50519277  1
  H+  H95  1  0.60830578  0.13320387  0.34705280  1
  H+  H96  1  0.95747394  0.10901645  0.51257561  1
  H+  H97  1  0.61727662  0.47631993  0.50665098  1
  H+  H98  1  0.14443082  0.12335981  0.65769565  1
  H+  H99  1  0.23398776  0.88425952  0.65977518  1
  H+  H100  1  0.47936710  0.62679010  0.50884899  1
  H+  H101  1  -0.02587162  0.37432843  0.16170159  1
  H+  H102  1  0.63182241  0.61027643  0.32565476  1
  H+  H103  1  0.59616709  0.21392840  0.67057891  1
  H+  H104  1  0.22004440  0.61876766  0.84485982  1
  H+  H105  1  0.65377191  0.89854266  0.51060790  1
  H+  H106  1  0.36062896  0.64505090  0.67798500  1
  H+  H107  1  0.36906321  0.08102259  0.16982404  1
  H+  H108  1  0.09145005  0.72522218  0.17459186  1
  H+  H109  1  0.27815858  0.13578613  0.47156124  1
  H+  H110  1  0.60896758  0.73616665  0.49265846  1
  H+  H111  1  0.70574600  0.11355886  -0.00608499  1
  H+  H112  1  0.10635139  0.25153578  0.31796431  1
  H+  H113  1  0.47469340  0.11032476  0.32665235  1
  H+  H114  1  0.63405043  0.53040499  0.17091336  1
  H+  H115  1  0.88036116  0.52119528  0.51399672  1
  H+  H116  1  0.36538778  0.88789569  0.33474166  1
  H+  H117  1  0.11019517  0.63724179  0.32380631  1
  H+  H118  1  0.51219350  0.89469477  1.00025238  1
  H+  H119  1  0.63227699  0.61112564  0.50627301  1
  H+  H120  1  0.11281278  0.10798916  0.99933897  1
  H+  H121  1  0.23225022  0.37074853  0.84467167  1
  H+  H122  1  0.35763806  0.63323301  0.50154535  1
  H+  H123  1  0.26375905  0.39209780  0.15724183  1
  H+  H124  1  0.36701796  0.39927568  0.82836319  1
  H+  H125  1  0.16599224  0.23187776  0.82981797  1
  H+  H126  1  0.87652916  0.36353616  0.31735288  1
  H+  H127  1  0.33885862  0.62762802  0.09425406  1
  H+  H128  1  0.52362394  0.39179603  0.82749476  1
  H+  H129  1  0.95491429  0.05636163  0.81479625  1
  H+  H130  1  0.72080184  0.86682088  0.50401491  1
  H+  H131  1  0.21914011  0.85683374  0.50670325  1
  H+  H132  1  0.40285907  0.72637642  0.18709169  1
  H+  H133  1  0.65706686  0.90827965  0.85374324  1
  H+  H134  1  0.38503157  0.28576824  0.83234110  1
  H+  H135  1  0.11211609  0.23244646  0.69126151  1
  H+  H136  1  0.52194696  0.87906306  0.33369100  1
  H+  H137  1  0.60237108  0.96707985  0.15807874  1
  H+  H138  1  0.85830138  0.71819529  0.49789858  1
  H+  H139  1  0.61440919  0.97809144  0.67794033  1
  H+  H140  1  0.86410756  0.72523758  0.00524410  1
  H+  H141  1  0.63128932  0.09403857  0.50648872  1
  H+  H142  1  0.72840468  0.37146090  0.99127010  1
  H+  H143  1  0.38813140  0.60159715  0.00208513  1
  H+  H144  1  0.61503247  0.11207837  0.99420964  1
  H+  H145  1  0.18639951  0.60897117  0.16296678  1
  H+  H146  1  0.38307961  0.53371573  0.84057115  1
  H+  H147  1  0.30681275  0.39461759  0.48053277  1
  H+  H148  1  0.39528093  0.28196930  0.32125121  1
  H+  H149  1  0.65496267  0.07406764  0.26495120  1
  H+  H150  1  0.82875028  0.41675725  0.43932745  1
  H+  H151  1  0.62823401  0.73435253  0.33905766  1
  H+  H152  1  0.50540716  0.14290427  0.82305782  1
  H+  H153  1  0.39702971  0.53418335  0.51134974  1
  H+  H154  1  0.63599282  0.61850482  -0.01342428  1
  H+  H155  1  0.87037636  0.38139805  0.15262750  1
  H+  H156  1  0.77094075  0.63944368  0.00071976  1
  H+  H157  1  0.91230174  0.83311422  0.60149236  1
  H+  H158  1  0.61174439  0.38929247  0.82872490  1
  H+  H159  1  0.00844463  0.12550263  0.33276563  1
  H+  H160  1  0.12736411  0.10321976  0.48335190  1
  H+  H161  1  0.00198091  0.07567573  0.82151613  1
  H+  H162  1  0.12728141  0.61549117  0.84294158  1
  H+  H163  1  0.63662321  0.53014590  0.98350899  1
  H+  H164  1  0.02428191  0.89254527  0.66403749  1
  H+  H165  1  0.67283235  0.84733528  0.94404480  1
  H+  H166  1  0.08449743  0.88736742  0.06631650  1
  H+  H167  1  0.13201098  0.01638811  0.47960742  1
  H+  H168  1  0.58174705  0.41822106  0.73396675  1
  H+  H169  1  0.38561021  0.78450900  0.83818797  1
  H+  H170  1  0.35723218  0.73267870  0.68154777  1
  H+  H171  1  0.36299615  0.64888907  0.83383395  1
  H+  H172  1  0.90390960  0.82464485  0.26185064  1
  H+  H173  1  0.65496782  0.32338115  0.08020156  1
  H+  H174  1  0.87977334  0.07347703  1.04705447  1
  H+  H175  1  0.71949538  0.10473546  0.32203158  1
  H+  H176  1  0.94939961  0.61175144  0.17845157  1
  H+  H177  1  0.13531559  0.51928250  0.32436510  1
  H+  H178  1  0.39083329  0.31330573  0.16581985  1
  H+  H179  1  0.52043177  0.63960768  0.82429201  1
  H+  H180  1  0.21942997  0.58785333  0.99323000  1
  H+  H181  1  0.33170361  0.42578698  0.77026622  1
  H+  H182  1  0.61878954  0.49081589  0.33258269  1
  H+  H183  1  0.72381955  0.84867538  1.00224249  1
  H+  H184  1  0.61931708  0.12262221  0.83758779  1
  H+  H185  1  0.38432642  0.27434702  0.66468018  1
  H+  H186  1  0.84719222  0.37583463  0.67363022  1
  H+  H187  1  0.87971949  0.60885167  0.51524571  1
  H+  H188  1  0.11772207  -0.04827310  1.00940767  1
  H+  H189  1  0.35061119  0.96232724  0.14827916  1
  H+  H190  1  0.85763840  0.13649421  0.32327905  1
  H+  H191  1  0.37118411  0.47742153  0.00392783  1
  H+  H192  1  0.41025942  0.37514058  0.51868324  1
  H+  H193  1  0.62477436  0.10349139  0.16977646  1
  H+  H194  1  0.40876325  0.06302924  0.22926240  1
  H+  H195  1  0.46261952  0.82908193  0.44926189  1
  H+  H196  1  0.85548979  0.23318129  0.82660120  1
  H+  H197  1  0.62979155  0.27538334  0.83985691  1
  H+  H198  1  0.07702946  0.63168957  0.18451181  1
  H+  H199  1  0.12989464  0.76758582  0.51355645  1
  H+  H200  1  0.13309254  0.84559940  -0.01687665  1
  H+  H201  1  0.21483154  0.08320662  0.97726922  1
  H+  H202  1  0.86543922  0.49277861  0.00259892  1
  H+  H203  1  0.53397670  0.65436261  0.33556445  1
  H+  H204  1  0.60343339  -0.01045750  0.82585206  1
  H+  H205  1  0.66524148  0.07379303  0.60637267  1
  H+  H206  1  -0.02361151  0.36693140  0.83995254  1
  H+  H207  1  0.62642271  0.26520716  0.13805751  1
  H+  H208  1  0.88877285  0.28186487  0.49748476  1
  H+  H209  1  0.32135150  0.42320385  0.35118620  1
  H+  H210  1  0.63965838  0.52935940  0.83424751  1
  H+  H211  1  0.87815953  0.60759880  0.33098859  1
  H+  H212  1  0.88959060  0.76666937  0.84125701  1
  H+  H213  1  0.21100340  0.85414077  0.16761014  1
  H+  H214  1  0.11034462  0.38752045  0.83784826  1
  H+  H215  1  0.36580383  0.13680291  0.48172751  1
  H+  H216  1  0.60392530  0.12922964  0.67367175  1
  H+  H217  1  0.16743050  0.08696016  0.39357144  1
  H+  H218  1  0.25753570  0.89607560  0.85541972  1
  H+  H219  1  0.09675773  -0.03975445  0.15591241  1
  H+  H220  1  0.52420500  0.39217216  0.33383656  1
  H+  H221  1  0.85188708  0.22186517  0.15246640  1
  H+  H222  1  0.98538507  0.61261604  0.83855104  1
  H+  H223  1  0.12076334  0.20120895  -0.00234132  1
  H+  H224  1  0.21587761  0.37449034  0.67651880  1
  H+  H225  1  0.47265070  0.36560832  0.67056948  1
  H+  H226  1  0.62145103  0.88662638  0.33256930  1
  H+  H227  1  0.00774338  0.39204723  0.66760062  1
  H+  H228  1  0.60373291  0.99454923  0.00587434  1
  H+  H229  1  0.87602629  0.01777501  0.30235847  1
  H+  H230  1  0.57181276  0.91878445  0.06618735  1
  H+  H231  1  0.52469187  0.40437952  0.15242086  1
  H+  H232  1  0.38512957  0.94147682  0.67394105  1
  H+  H233  1  0.38465032  0.35809392  -0.00630325  1
  H+  H234  1  1.02692494  0.65792739  1.01151233  1
  H+  H235  1  0.36400810  -0.02370877  0.33444736  1
  H+  H236  1  0.51887937  0.12343829  0.50042972  1
  H+  H237  1  0.36430375  0.88749510  0.48415040  1
  H+  H238  1  0.66589693  0.33503000  0.93319385  1
  H+  H239  1  0.34484982  0.15072852  0.82260470  1
  H+  H240  1  0.88522460  0.86810890  0.65946198  1
  H+  H241  1  0.76878712  0.37548374  0.13811019  1
  H+  H242  1  0.98213567  0.11866749  0.67851099  1
  H+  H243  1  0.96411298  0.36213432  0.31421852  1
  H+  H244  1  0.98207178  0.85010338  0.99432762  1
  H+  H245  1  0.47173124  0.35620468  0.98834347  1
  H+  H246  1  0.85783346  0.94385519  0.45509519  1
  H+  H247  1  0.52472940  0.86824914  0.15951703  1
  H+  H248  1  0.87043515  0.85333895  0.31877432  1
  H+  H249  1  0.60745034  0.47718833  0.67430124  1
  H+  H250  1  0.27100867  0.13842445  0.66495425  1
  H+  H251  1  0.13377231  0.77360387  0.31870971  1
  H+  H252  1  0.51140436  0.12233115  0.15591984  1
  H+  H253  1  0.84867701  0.72730048  0.67274591  1
  H+  H254  1  0.86939683  0.63418183  0.82387428  1
  H+  H255  1  0.87282535  0.76916018  0.16908520  1
  H+  H256  1  0.08194277  0.37916618  -0.01390929  1
  H+  H257  1  0.11027238  0.47668234  0.83791014  1
  H+  H258  1  0.34119438  0.17896528  0.16076925  1
  H+  H259  1  0.10815542  0.21748755  0.14424514  1
  H+  H260  1  0.10448075  0.88100761  0.33473542  1
  H+  H261  1  0.86594776  0.52038504  0.17050415  1
  H+  H262  1  0.60947385  0.63989748  0.82064437  1
  H+  H263  1  0.76776028  0.63265488  0.34107830  1
  H+  H264  1  0.71393437  0.10431978  0.17010263  1
  H+  H265  1  0.33553787  0.87067955  0.12915788  1
  H+  H266  1  0.59636042  0.63528423  0.15651861  1
  H+  H267  1  0.86379365  0.89078106  0.16285881  1
  H+  H268  1  0.62540908  0.35631795  0.66213430  1
  H+  H269  1  0.23261275  0.86624429  -0.03029450  1
  H+  H270  1  0.86078533  0.39836048  1.00154628  1
  H+  H271  1  0.12174321  0.10390758  0.16360121  1
  H+  H272  1  0.11155574  0.90160411  0.88747876  1
  H+  H273  1  0.76960831  0.89064206  0.67008161  1
  H+  H274  1  0.73568189  0.88966759  0.84878934  1
  H+  H275  1  0.51304715  0.14145117  -0.00075293  1
  H+  H276  1  0.88677006  0.27313047  0.65965995  1
  H+  H277  1  0.12173978  0.35239019  0.15727537  1
  H+  H278  1  0.35993165  0.89249604  0.98725387  1
  H+  H279  1  0.34789161  0.71660434  0.49889114  1
  H+  H280  1  0.85771805  0.38588814  0.82483725  1
  H+  H281  1  0.77580761  0.01233348  0.90064861  1
  H+  H282  1  0.72255445  0.36234199  0.84004314  1
  H+  H283  1  0.71606509  0.61602604  0.66518568  1
  H+  H284  1  0.71859732  0.35456279  0.51084662  1
  H+  H285  1  0.36743452  0.03348176  0.83818989  1
  H+  H286  1  0.96631594  0.85319177  0.17123457  1
  H+  H287  1  0.47415741  0.61963001  0.66732397  1
  H+  H288  1  0.60664869  0.22832074  0.00160607  1
  H+  H289  1  0.11445177  0.89242995  0.66339887  1
  H+  H290  1  0.13227194  0.01523257  0.93482954  1
  H+  H291  1  0.81836839  0.16103966  0.05306029  1
  H+  H292  1  0.91597846  0.82604732  0.93832465  1
  H+  H293  1  0.33106287  0.67531607  0.77428328  1
  H+  H294  1  0.85890928  0.47438164  0.34205594  1
  H+  H295  1  0.65918361  0.83605678  0.60350996  1
  H+  H296  1  0.08054129  0.15064565  0.08757370  1
  H+  H297  1  0.91781231  0.58508548  0.93045225  1
  H+  H298  1  0.12050281  0.97533860  0.73974398  1
  H+  H299  1  0.34494113  0.89827793  0.83735074  1
  H+  H300  1  0.16520313  0.83557397  0.23462942  1
  H+  H301  1  0.24179531  0.35646367  0.99926511  1
  H+  H302  1  0.92219926  0.57547974  0.61220031  1
  H+  H303  1  0.72026961  0.37069773  0.23071778  1
  H+  H304  1  0.57595581  0.15338817  0.40973907  1
  H+  H305  1  0.65851627  0.32264282  0.57085295  1
  H+  H306  1  0.41544497  0.59174901  0.60799015  1
  H+  H307  1  0.16389279  0.57648932  0.93181116  1
  H+  H308  1  0.76215227  0.94964742  0.35800738  1
  H+  H309  1  0.82666923  0.65961850  0.43824695  1
  H+  H310  1  0.82470325  0.66483640  0.72917464  1
  H+  H311  1  0.67067051  0.59176040  0.89165015  1
  H+  H312  1  0.41393992  0.85320074  0.61979350  1
  H+  H313  1  0.34846596  0.17756524  0.39033618  1
  H+  H314  1  0.79126459  0.86984561  0.41552173  1
  H+  H315  1  0.57700218  0.67066545  0.73357479  1
  H+  H316  1  0.16880715  0.45396790  0.45548593  1
  H+  H317  1  0.06626912  0.67668318  0.07612395  1
  H+  H318  1  0.84063641  0.17992063  0.42350209  1
  H+  H319  1  0.81996966  0.66711475  0.09466747  1
  H+  H320  1  0.32853020  0.18081678  0.75920535  1
  H+  H321  1  0.35243927  0.21987999  0.00040379  1
  H+  H322  1  0.33942384  0.42314536  0.06610225  1
  H+  H323  1  0.92610058  0.09897722  0.61771259  1
  H+  H324  1  0.68628008  0.85563868  0.26303911  1
  H+  H325  1  0.89156130  0.52534319  0.83854248  1
  H+  H326  1  0.82237790  0.41235380  0.76703589  1
  H+  H327  1  0.46018637  0.08504475  0.66646946  1
  H+  H328  1  0.91159600  0.34640336  0.22277166  1
  H+  H329  1  0.40632251  0.59951752  0.23055041  1
  H+  H330  1  0.42583000  0.34958747  0.26383794  1
  H+  H331  1  0.13063956  0.02090567  0.34148288  1
  H+  H332  1  0.96862018  0.86253856  0.85536314  1
  H+  H333  1  0.17748711  0.57467785  0.26512716  1
  H+  H334  1  0.40459549  0.06767507  0.56442381  1
  H+  H335  1  0.14616506  0.06159482  0.77501867  1
  H+  H336  1  0.56841757  0.16683096  0.76584462  1
  H+  H337  1  0.85614709  0.46786576  0.67534581  1
  H+  H338  1  0.90940186  0.33850346  0.89513153  1
  H+  H339  1  0.85602828  0.38668123  0.49853658  1
  H+  H340  1  0.42700053  0.81545317  0.27259334  1
  H+  H341  1  0.34638395  0.48863322  0.16073213  1
  H+  H342  1  0.38433533  0.02960014  0.98028307  1
  H+  H343  1  0.31648333  0.15162464  0.05569890  1
  H+  H344  1  0.22211380  0.18902453  0.81148266  1
  H+  H345  1  0.38316950  0.44088032  0.43581994  1
  H+  H346  1  0.17322716  0.32943731  0.90300127  1
  H+  H347  1  0.58145870  0.92331850  0.77080985  1
  H+  H348  1  0.32372208  0.66089834  0.40601430  1
  H+  H349  1  0.85584705  0.13550458  0.15189055  1
  H+  H350  1  0.32857371  0.91394629  0.42779951  1
  H+  H351  1  0.47584595  0.87641299  0.83499601  1
  H+  H352  1  0.40768126  0.10045384  0.89153170  1
  H+  H353  1  0.91520991  0.08553378  0.24895842  1
  H+  H354  1  0.89871372  0.04509836  0.93440169  1
  H+  H355  1  0.08664178  0.66393183  0.75445763  1
  H+  H356  1  0.60842583  0.21189404  0.50080590  1
  H+  H357  1  0.83953075  0.42336023  0.08331161  1
  H+  H358  1  0.11200631  0.17077295  0.74200946  1
  H+  H359  1  0.80696005  0.88273938  0.76514518  1
  H+  H360  1  0.42244045  0.85054703  0.91569805  1
  H+  H361  1  0.69461760  0.39347796  0.22891193  1
  H+  H362  1  0.57701720  0.66198692  0.05760189  1
  H+  H363  1  0.71330559  0.35412942  0.66327028  1
  H+  H364  1  0.15592135  0.57692532  0.58258345  1
  H+  H365  1  0.07306509  0.89876502  0.43277460  1
  H+  H366  1  0.05607314  0.15969705  0.43426933  1
  H+  H367  1  0.10925928  0.96779166  0.84096550  1
  H+  H368  1  0.07364742  0.41442713  0.08943406  1
  H+  H369  1  0.10670815  0.71436370  0.83433871  1
  H+  H370  1  0.58004623  0.42593763  0.05389082  1
  H+  H371  1  0.56730246  0.15182205  0.09470625  1
  H+  H372  1  0.17205102  0.83661538  0.60414122  1
  H+  H373  1  0.82903283  0.17452477  0.73517021  1
  H+  H374  1  0.14617222  0.07340783  0.22515833  1
  H+  H375  1  0.58431116  0.67645855  0.43382482  1
  H+  H376  1  0.38949012  0.11583731  0.32020068  1
  H+  H377  1  0.47654779  0.83377686  0.51950356  1
  H+  H378  1  0.83350875  0.91486701  0.10101052  1
  H+  H379  1  0.31920949  0.91652351  0.04419879  1
  H+  H380  1  0.06402772  0.40359685  0.39192540  1
  H+  H381  1  0.14254609  0.31660239  0.21696254  1
  H+  H382  1  0.65712101  0.58241478  0.60553125  1
  H+  H383  1  0.65079572  0.09114871  0.89540385  1
  O2-  O384  1  0.07793828  0.15527026  0.13352729  1
  O2-  O385  1  0.05490660  0.15125876  0.47909175  1
  O2-  O386  1  0.16390646  0.18175076  0.80905389  1
  O2-  O387  1  0.07303778  0.41136893  0.13505706  1
  O2-  O388  1  0.11582351  0.42969932  0.47921863  1
  O2-  O389  1  0.07733292  0.41525237  0.82531666  1
  O2-  O390  1  0.05323789  0.66271501  0.16356786  1
  O2-  O391  1  0.07970287  0.66947690  0.49410596  1
  O2-  O392  1  0.08054783  0.65683246  0.81656984  1
  O2-  O393  1  0.06849024  0.89911292  0.14356131  1
  O2-  O394  1  0.07508022  0.90507328  0.47784526  1
  O2-  O395  1  0.08623774  0.94041154  0.88218611  1
  O2-  O396  1  0.30842270  0.12418375  0.13996846  1
  O2-  O397  1  0.33988878  0.16687967  0.46067729  1
  O2-  O398  1  0.32533764  0.18870976  0.80398997  1
  O2-  O399  1  0.32573710  0.42822920  0.14630512  1
  O2-  O400  1  0.36889520  0.43222761  0.48024094  1
  O2-  O401  1  0.33408491  0.42816267  0.81552168  1
  O2-  O402  1  0.35357166  0.63614664  0.16735315  1
  O2-  O403  1  0.31988797  0.65633097  0.48622234  1
  O2-  O404  1  0.33350765  0.68062614  0.81937964  1
  O2-  O405  1  0.31173005  0.90850258  0.12454426  1
  O2-  O406  1  0.32932495  0.91331894  0.47329819  1
  O2-  O407  1  0.31282567  0.92874166  0.83228423  1
  O2-  O408  1  0.57150507  0.15433065  0.14014870  1
  O2-  O409  1  0.57987410  0.15157081  0.48539684  1
  O2-  O410  1  0.56783727  0.17128576  0.81104456  1
  O2-  O411  1  0.58300692  0.43042756  0.13428316  1
  O2-  O412  1  0.58371958  0.41287834  0.49646338  1
  O2-  O413  1  0.58378116  0.42055812  0.81151669  1
  O2-  O414  1  0.56715260  0.66095345  0.13420050  1
  O2-  O415  1  0.58064951  0.67553689  0.47910933  1
  O2-  O416  1  0.57739326  0.66713382  0.80438106  1
  O2-  O417  1  0.58035179  0.90889789  0.13953599  1
  O2-  O418  1  0.63385940  0.98703019  0.48595303  1
  O2-  O419  1  0.57717954  0.92707778  0.81591433  1
  O2-  O420  1  0.82089851  0.16188916  0.13824143  1
  O2-  O421  1  0.84411845  0.19127122  0.46758719  1
  O2-  O422  1  0.82186937  0.17199262  0.81226874  1
  O2-  O423  1  0.83300628  0.41151837  0.13256041  1
  O2-  O424  1  0.82255300  0.41404158  0.48432546  1
  O2-  O425  1  0.82411598  0.41416399  0.81256804  1
  O2-  O426  1  0.81707941  0.66893672  0.14065354  1
  O2-  O427  1  0.82349359  0.65728696  0.48344839  1
  O2-  O428  1  0.84101971  0.66659561  0.80899022  1
  O2-  O429  1  0.83549338  0.92277586  0.14726785  1
  O2-  O430  1  0.81343809  0.88355285  0.45775864  1
  O2-  O431  1  0.78658493  0.85760988  0.80582205  1
  O2-  O432  1  0.14897440  0.07053470  0.18097830  1
  O2-  O433  1  0.16348212  0.07926336  0.46978647  1
  O2-  O434  1  0.14883940  0.00894176  0.77733917  1
  O2-  O435  1  0.15351648  0.32358956  0.17247724  1
  O2-  O436  1  0.13039643  0.30800579  0.54458030  1
  O2-  O437  1  0.17181926  0.33087267  0.85829699  1
  O2-  O438  1  0.19199987  0.56517910  0.18541092  1
  O2-  O439  1  0.15612130  0.57153058  0.53701045  1
  O2-  O440  1  0.16049967  0.58533663  0.86030265  1
  O2-  O441  1  0.15512355  0.82756014  0.18899543  1
  O2-  O442  1  0.16138258  0.83128999  0.52510092  1
  O2-  O443  1  0.16110798  0.84519866  0.89213830  1
  O2-  O444  1  0.40571799  0.05731682  0.18383186  1
  O2-  O445  1  0.41318697  0.07568255  0.51993622  1
  O2-  O446  1  0.40174425  0.09762129  0.84658319  1
  O2-  O447  1  0.42250364  0.36831191  0.18659404  1
  O2-  O448  1  0.43954976  0.34631184  0.53697565  1
  O2-  O449  1  0.41804394  0.34498518  0.85102469  1
  O2-  O450  1  0.39870203  0.58954284  0.18551957  1
  O2-  O451  1  0.41888269  0.59427677  0.52474045  1
  O2-  O452  1  0.41295506  0.59414220  0.85580079  1
  O2-  O453  1  0.42974662  0.79272589  0.19876212  1
  O2-  O454  1  0.44781659  0.84702900  0.48708286  1
  O2-  O455  1  0.41544801  0.84636700  0.85218306  1
  O2-  O456  1  0.65409627  0.07290773  0.18637801  1
  O2-  O457  1  0.65875108  0.06259369  0.52529136  1
  O2-  O458  1  0.65294553  0.09423478  0.85059742  1
  O2-  O459  1  0.66071300  0.32677177  0.12452535  1
  O2-  O460  1  0.65733483  0.32258724  0.52497604  1
  O2-  O461  1  0.66281358  0.33424230  0.85787492  1
  O2-  O462  1  0.65971772  0.58759862  0.19102499  1
  O2-  O463  1  0.66006334  0.57946096  0.52200902  1
  O2-  O464  1  0.67181176  0.59099986  0.84630473  1
  O2-  O465  1  0.68646407  0.85884473  0.20366432  1
  O2-  O466  1  0.66324863  0.85002112  0.52031986  1
  O2-  O467  1  0.70524002  0.91062470  0.87713295  1
  O2-  O468  1  0.91384021  0.08798581  0.17644189  1
  O2-  O469  1  0.90438735  0.09764765  0.53553156  1
  O2-  O470  1  0.82132244  0.07219401  0.91312223  1
  O2-  O471  1  0.91237332  0.34699385  0.17629770  1
  O2-  O472  1  0.91561884  0.33975599  0.51970103  1
  O2-  O473  1  0.91249743  0.33664940  0.85024000  1
  O2-  O474  1  0.88686676  0.57684966  0.18965314  1
  O2-  O475  1  0.91187376  0.58078115  0.53014919  1
  O2-  O476  1  0.92275596  0.58492502  0.85451177  1
  O2-  O477  1  0.90646300  0.82808675  0.18767133  1
  O2-  O478  1  0.91272300  0.82187832  0.52071514  1
  O2-  O479  1  0.90647055  0.82322958  0.86127930  1
  O2-  O480  1  0.16239696  0.08467198  0.34772944  1
  O2-  O481  1  0.17615743  0.09811267  0.63799319  1
  O2-  O482  1  0.15173980  0.04626364  0.97550486  1
  O2-  O483  1  0.13091904  0.31061998  0.29801582  1
  O2-  O484  1  0.15201584  0.34421855  0.66941340  1
  O2-  O485  1  0.17869981  0.31947942  0.98841881  1
  O2-  O486  1  0.17167692  0.57906432  0.30977667  1
  O2-  O487  1  0.15536788  0.58350863  0.65938925  1
  O2-  O488  1  0.16114840  0.56484424  0.97753090  1
  O2-  O489  1  0.16412117  0.83722369  0.30776823  1
  O2-  O490  1  0.17425318  0.84129863  0.64947731  1
  O2-  O491  1  0.16953026  0.82742940  0.95705210  1
  O2-  O492  1  0.41649391  0.08118967  0.30767909  1
  O2-  O493  1  0.40066976  0.05516134  0.64799590  1
  O2-  O494  1  0.41683000  0.09222461  0.97141166  1
  O2-  O495  1  0.42947853  0.34526606  0.30899639  1
  O2-  O496  1  0.41253544  0.33681784  0.65346401  1
  O2-  O497  1  0.40967026  0.32384912  0.97658861  1
  O2-  O498  1  0.42940968  0.60900890  0.30921101  1
  O2-  O499  1  0.41198651  0.58910139  0.65294298  1
  O2-  O500  1  0.41731522  0.57586082  0.97920118  1
  O2-  O501  1  0.42714896  0.82872516  0.31714657  1
  O2-  O502  1  0.41600173  0.85404473  0.66397909  1
  O2-  O503  1  0.42256290  0.85013732  0.96522127  1
  O2-  O504  1  0.65678537  0.07109025  0.31054156  1
  O2-  O505  1  0.66539417  0.08059643  0.65105348  1
  O2-  O506  1  0.64365538  0.07845143  0.98091568  1
  O2-  O507  1  0.65575137  0.32916494  0.34096204  1
  O2-  O508  1  0.65263878  0.32279637  0.64747412  1
  O2-  O509  1  0.66663271  0.33646189  0.97947528  1
  O2-  O510  1  0.65843094  0.57611372  0.31035632  1
  O2-  O511  1  0.65349813  0.58170257  0.65041242  1
  O2-  O512  1  0.66955386  0.59125061  0.97085035  1
  O2-  O513  1  0.67887590  0.84781490  0.31482566  1
  O2-  O514  1  0.66062883  0.83610424  0.64845820  1
  O2-  O515  1  0.66464958  0.82395154  0.98601423  1
  O2-  O516  1  0.91041414  0.07967274  0.29519214  1
  O2-  O517  1  0.92200583  0.09218267  0.66240830  1
  O2-  O518  1  0.93139232  0.01972716  0.95286011  1
  O2-  O519  1  0.90544705  0.33504601  0.29605689  1
  O2-  O520  1  0.91679364  0.33397435  0.64384331  1
  O2-  O521  1  0.90090992  0.34092144  0.97658175  1
  O2-  O522  1  0.90393233  0.57426041  0.31361818  1
  O2-  O523  1  0.92241122  0.56189447  0.65571629  1
  O2-  O524  1  0.91258837  0.58205170  0.97640368  1
  O2-  O525  1  0.90311196  0.82530958  0.30806887  1
  O2-  O526  1  0.91585260  0.83719634  0.64644590  1
  O2-  O527  1  0.92025906  0.82395861  0.98384321  1
  O2-  O528  1  0.08622297  0.14243278  0.01411633  1
  O2-  O529  1  0.06585500  0.16090396  0.35228821  1
  O2-  O530  1  0.08915780  0.17084426  0.70026647  1
  O2-  O531  1  0.06652437  0.41371577  0.01162538  1
  O2-  O532  1  0.06582461  0.40677363  0.34729125  1
  O2-  O533  1  0.06856099  0.42798755  0.68635300  1
  O2-  O534  1  0.07852928  0.69811909  0.03442343  1
  O2-  O535  1  0.08350450  0.67302360  0.32960168  1
  O2-  O536  1  0.08888507  0.66434707  0.70387609  1
  O2-  O537  1  0.09062690  0.88946759  0.02119732  1
  O2-  O538  1  0.07365844  0.90959416  0.35225271  1
  O2-  O539  1  0.08734430  0.92812055  0.67159184  1
  O2-  O540  1  0.32104410  0.15703240  0.01106668  1
  O2-  O541  1  0.34676039  0.18130554  0.34341413  1
  O2-  O542  1  0.33199927  0.16725245  0.68216010  1
  O2-  O543  1  0.34066390  0.41682635  0.02129129  1
  O2-  O544  1  0.38273480  0.44968581  0.35904527  1
  O2-  O545  1  0.32395683  0.42074048  0.68995038  1
  O2-  O546  1  0.32845915  0.63245599  0.04905763  1
  O2-  O547  1  0.33043699  0.66767176  0.36103360  1
  O2-  O548  1  0.32683017  0.67146419  0.69364387  1
  O2-  O549  1  0.32481527  0.91944593  -0.00088848  1
  O2-  O550  1  0.33314591  0.91555732  0.34949327  1
  O2-  O551  1  0.35182106  0.97156551  0.67981929  1
  O2-  O552  1  0.57291081  0.16828131  0.01742097  1
  O2-  O553  1  0.57752218  0.16131194  0.36406982  1
  O2-  O554  1  0.56704511  0.15350188  0.68615716  1
  O2-  O555  1  0.57826358  0.42054785  0.00882245  1
  O2-  O556  1  0.58486742  0.42685807  0.35161137  1
  O2-  O557  1  0.57774985  0.41565764  0.68842116  1
  O2-  O558  1  0.57862977  0.66130156  0.01201869  1
  O2-  O559  1  0.59243333  0.67401167  0.35287357  1
  O2-  O560  1  0.57560962  0.67186678  0.68683268  1
  O2-  O561  1  0.57111818  0.92881794  0.02053518  1
  O2-  O562  1  0.58646141  0.91561026  0.34569414  1
  O2-  O563  1  0.58007380  0.91742700  0.69290301  1
  O2-  O564  1  0.80867319  0.16939730  0.00972657  1
  O2-  O565  1  0.82549055  0.16405008  0.33916627  1
  O2-  O566  1  0.83224230  0.17341375  0.68944877  1
  O2-  O567  1  0.83375100  0.43040558  0.02082356  1
  O2-  O568  1  0.83439167  0.41388427  0.35793721  1
  O2-  O569  1  0.81685873  0.40542180  0.68846800  1
  O2-  O570  1  0.82909941  0.66369557  0.01989410  1
  O2-  O571  1  0.82704205  0.66226989  0.35750666  1
  O2-  O572  1  0.81215679  0.66675009  0.68541501  1
  O2-  O573  1  0.83338532  0.89911280  0.03015252  1
  O2-  O574  1  0.76739590  0.90193870  0.34052438  1
  O2-  O575  1  0.82951929  0.91622858  0.68557984  1
