# generated using pymatgen
data_H2O
_symmetry_space_group_name_H-M   'P 1'
_cell_length_a   17.99920489
_cell_length_b   17.99490440
_cell_length_c   22.01730749
_cell_angle_alpha   90.00422453
_cell_angle_beta   89.99490956
_cell_angle_gamma   120.00447838
_symmetry_Int_Tables_number   1
_chemical_formula_structural   H2O
_chemical_formula_sum   'H384 O192'
_cell_volume   6175.58496999
_cell_formula_units_Z   192
loop_
 _symmetry_equiv_pos_site_id
 _symmetry_equiv_pos_as_xyz
  1  'x, y, z'
loop_
 _atom_type_symbol
 _atom_type_oxidation_number
  H+  1.0
  O2-  -2.0
loop_
 _atom_site_type_symbol
 _atom_site_label
 _atom_site_symmetry_multiplicity
 _atom_site_fract_x
 _atom_site_fract_y
 _atom_site_fract_z
 _atom_site_occupancy
  H+  H0  1  0.63006413  0.84508891  0.50994866  1
  H+  H1  1  0.66562082  1.07134067  0.92871861  1
  H+  H2  1  0.02160758  0.38156233  0.15457466  1
  H+  H3  1  0.25522210  0.62290239  0.64068194  1
  H+  H4  1  0.11572586  0.49062986  0.84277033  1
  H+  H5  1  0.36829897  0.73505688  0.84721618  1
  H+  H6  1  0.85678073  0.63112157  0.15822140  1
  H+  H7  1  0.85542756  0.17596038  0.67425743  1
  H+  H8  1  0.62572034  0.88589947  0.82697165  1
  H+  H9  1  0.07134994  0.40717213  0.88208987  1
  H+  H10  1  0.47477643  0.36107658  0.32393543  1
  H+  H11  1  0.11927700  0.74668931  0.34691045  1
  H+  H12  1  0.07936501  0.92515465  0.41782517  1
  H+  H13  1  0.41847607  0.50382088  0.67781302  1
  H+  H14  1  0.59009916  0.67727539  0.06892528  1
  H+  H15  1  0.36599563  0.90080328  0.66308722  1
  H+  H16  1  0.41181172  0.57561553  0.52815468  1
  H+  H17  1  0.57129965  0.15772869  0.74306520  1
  H+  H18  1  -0.01986829  0.11068375  0.84028019  1
  H+  H19  1  0.36617504  0.13761544  0.66885009  1
  H+  H20  1  0.77904169  0.14845682  0.47971931  1
  H+  H21  1  0.53111642  0.62647559  0.47569424  1
  H+  H22  1  0.87936066  0.89050815  0.98738315  1
  H+  H23  1  0.61629726  0.12702930  0.01034696  1
  H+  H24  1  0.38273306  0.12276512  0.33141492  1
  H+  H25  1  0.19020109  0.89498297  0.84886959  1
  H+  H26  1  0.41161338  0.06468987  0.16949066  1
  H+  H27  1  0.72596765  0.10274701  0.98580069  1
  H+  H28  1  0.47682713  0.60224090  0.99716076  1
  H+  H29  1  -0.04033716  0.31822804  0.66874932  1
  H+  H30  1  0.90509979  0.03815580  0.99474942  1
  H+  H31  1  0.22776508  0.11142220  0.83230247  1
  H+  H32  1  0.36281280  0.46968215  0.00601914  1
  H+  H33  1  -0.03382593  0.35316384  -0.01197958  1
  H+  H34  1  0.39304003  1.03038821  0.49484749  1
  H+  H35  1  0.35110506  0.37084718  0.67685543  1
  H+  H36  1  0.96581376  0.11185707  0.31134681  1
  H+  H37  1  -0.03409836  0.36732214  0.51778076  1
  H+  H38  1  0.47551179  0.62312190  0.32109768  1
  H+  H39  1  0.38815599  0.36547438  0.31573973  1
  H+  H40  1  0.96647832  0.82436678  0.31029439  1
  H+  H41  1  0.65171917  0.63224868  0.17978248  1
  H+  H42  1  0.10980741  0.47823017  0.49647366  1
  H+  H43  1  0.87864854  0.11311038  0.31892105  1
  H+  H44  1  0.10795382  0.72593163  0.82215995  1
  H+  H45  1  0.89175066  0.11082401  0.84710353  1
  H+  H46  1  0.41145546  0.87064587  0.48000028  1
  H+  H47  1  0.86275735  -0.02435346  0.32657129  1
  H+  H48  1  0.77925501  0.65036688  0.67330600  1
  H+  H49  1  0.92475926  0.31930771  0.22020477  1
  H+  H50  1  0.54217299  0.68375383  0.16461131  1
  H+  H51  1  0.71838285  0.09101035  0.67120986  1
  H+  H52  1  0.63398734  0.51819810  0.99727807  1
  H+  H53  1  0.88898386  0.63552889  0.67480400  1
  H+  H54  1  0.59438264  0.37476408  0.49508941  1
  H+  H55  1  0.49658507  0.89630006  0.64309338  1
  H+  H56  1  0.28305493  0.63925033  0.48355344  1
  H+  H57  1  0.35558608  0.63550590  0.32324326  1
  H+  H58  1  0.10626463  0.47275722  0.00265668  1
  H+  H59  1  0.12052408  0.60269330  0.17505534  1
  H+  H60  1  0.39911664  0.07665863  0.89496941  1
  H+  H61  1  0.86542763  0.46154480  0.15604254  1
  H+  H62  1  0.36865543  0.97339466  0.82281579  1
  H+  H63  1  0.09851766  0.71884845  0.17512917  1
  H+  H64  1  0.35202876  0.22931936  0.15641754  1
  H+  H65  1  0.26829093  0.14391706  0.34069460  1
  H+  H66  1  0.13755323  0.36423849  -0.01080301  1
  H+  H67  1  0.10340983  0.72129339  0.67471436  1
  H+  H68  1  0.66154792  0.05129515  0.32891464  1
  H+  H69  1  0.83988047  0.62547613  0.33998057  1
  H+  H70  1  0.38088054  0.03332999  0.32813133  1
  H+  H71  1  0.13139242  0.11101153  0.17528279  1
  H+  H72  1  0.14662717  0.77961755  -0.00337488  1
  H+  H73  1  0.65445054  0.32861307  0.89609012  1
  H+  H74  1  0.13182043  0.25325646  0.52048775  1
  H+  H75  1  0.84874692  0.21357682  0.82681046  1
  H+  H76  1  0.07190146  0.91001409  0.93597352  1
  H+  H77  1  0.52056535  0.40093753  0.67366616  1
  H+  H78  1  0.61151962  0.39286766  0.82625199  1
  H+  H79  1  0.50807174  0.13645647  0.82747279  1
  H+  H80  1  0.73373024  0.61503912  0.84781138  1
  H+  H81  1  0.16210741  0.62515822  0.50742943  1
  H+  H82  1  0.14040049  0.35827361  0.83620433  1
  H+  H83  1  0.15313304  0.74672992  0.50366896  1
  H+  H84  1  0.52412321  0.39403087  0.82854985  1
  H+  H85  1  0.01337520  0.89557472  0.66875357  1
  H+  H86  1  0.38005877  0.35113933  0.49879558  1
  H+  H87  1  0.11000931  0.88277589  0.49833542  1
  H+  H88  1  0.53177024  0.10014748  0.53051247  1
  H+  H89  1  0.13612831  1.03222964  0.33174728  1
  H+  H90  1  0.65338464  0.86463339  0.30741947  1
  H+  H91  1  0.36861320  0.71113396  0.00072313  1
  H+  H92  1  0.65630191  0.07505196  0.61401486  1
  H+  H93  1  0.52867504  0.12610930  1.01750866  1
  H+  H94  1  0.87200509  0.13738139  -0.00658306  1
  H+  H95  1  0.77616725  0.95658431  0.02649184  1
  H+  H96  1  0.47206891  0.93016728  0.32886807  1
  H+  H97  1  0.57319581  0.91445084  0.11219083  1
  H+  H98  1  0.77159511  0.35115657  0.66858795  1
  H+  H99  1  0.35702168  0.46870985  0.46761956  1
  H+  H100  1  0.63296488  0.25808611  0.67082362  1
  H+  H101  1  0.86994184  0.31489526  0.66558634  1
  H+  H102  1  0.89684594  0.35589465  0.30799121  1
  H+  H103  1  0.65605592  0.64929913  0.67335939  1
  H+  H104  1  0.35581455  0.74437698  0.68319360  1
  H+  H105  1  0.13114058  0.61993115  0.83860092  1
  H+  H106  1  -0.03419141  0.07155404  0.62065984  1
  H+  H107  1  0.63664995  0.85519268  0.66639382  1
  H+  H108  1  0.88698725  0.89354880  0.65950663  1
  H+  H109  1  0.37282838  0.47790795  0.15616032  1
  H+  H110  1  0.25439795  0.66439437  0.63909262  1
  H+  H111  1  0.86833686  0.21919419  0.14468490  1
  H+  H112  1  0.47998921  0.11549378  0.66695052  1
  H+  H113  1  0.27400182  0.13705767  0.00575642  1
  H+  H114  1  0.14072848  0.63014585  0.32015280  1
  H+  H115  1  0.38595401  0.36002296  0.83993442  1
  H+  H116  1  0.77234656  0.88082993  0.81664151  1
  H+  H117  1  0.30213429  0.95780543  0.12412592  1
  H+  H118  1  0.90798759  0.57699016  0.88980880  1
  H+  H119  1  0.84859632  -0.03917650  0.16317576  1
  H+  H120  1  0.58153426  0.24399155  0.52565959  1
  H+  H121  1  0.60406441  0.12311624  0.68658276  1
  H+  H122  1  0.86339684  0.63813765  0.82440665  1
  H+  H123  1  0.87748384  0.98265188  0.48821956  1
  H+  H124  1  0.86935970  0.88941453  0.32846299  1
  H+  H125  1  0.10633288  0.13249093  0.33287770  1
  H+  H126  1  0.83555621  0.36690286  0.52227588  1
  H+  H127  1  0.38937395  0.36476738  0.17028499  1
  H+  H128  1  0.89000904  0.35212064  0.16488815  1
  H+  H129  1  0.84206135  0.66984952  0.44168133  1
  H+  H130  1  -0.03176851  0.60758756  0.83120029  1
  H+  H131  1  0.86462680  0.23566678  0.49061586  1
  H+  H132  1  0.86363680  0.12794533  0.14477155  1
  H+  H133  1  0.63842949  0.28070435  0.32820396  1
  H+  H134  1  0.44099709  0.59320857  0.65267329  1
  H+  H135  1  1.02781576  0.37805626  0.34000803  1
  H+  H136  1  0.71343377  0.35422451  0.98464943  1
  H+  H137  1  0.78562303  0.15390037  0.34018050  1
  H+  H138  1  0.88801829  0.77339137  0.84275857  1
  H+  H139  1  0.23810218  0.12490207  0.51103438  1
  H+  H140  1  0.63488140  0.65080293  0.83537231  1
  H+  H141  1  0.35919427  0.21607157  0.49556986  1
  H+  H142  1  0.66054629  0.78069961  0.66688641  1
  H+  H143  1  0.83402967  0.07711616  0.68669874  1
  H+  H144  1  0.35662296  0.79295334  0.15081577  1
  H+  H145  1  0.64673202  0.13094415  0.33869227  1
  H+  H146  1  0.17432745  0.09329778  0.92851631  1
  H+  H147  1  0.27688715  0.86073578  0.00083453  1
  H+  H148  1  0.36270786  0.92054476  0.14497455  1
  H+  H149  1  0.64549136  0.52490419  0.65797072  1
  H+  H150  1  0.84515269  0.71594345  0.33753762  1
  H+  H151  1  0.07683351  0.66575352  0.76248190  1
  H+  H152  1  0.22526017  0.39051641  0.54546059  1
  H+  H153  1  0.37209957  0.62947220  0.70269775  1
  H+  H154  1  0.87072117  0.51004481  0.32157380  1
  H+  H155  1  0.59675224  0.22628325  0.82677810  1
  H+  H156  1  0.76626513  0.86219904  0.16057377  1
  H+  H157  1  0.63977221  0.52047570  0.50180602  1
  H+  H158  1  0.31399174  1.03440011  0.47424875  1
  H+  H159  1  0.13275252  0.11277951  0.65892338  1
  H+  H160  1  0.77289736  0.62261869  0.00637203  1
  H+  H161  1  0.86049285  0.88004476  0.81348200  1
  H+  H162  1  0.60815983  -0.03568246  0.68089974  1
  H+  H163  1  0.88412254  0.76618634  0.16707663  1
  H+  H164  1  0.39190688  0.12885516  0.99229098  1
  H+  H165  1  0.77034481  0.63558978  0.15986533  1
  H+  H166  1  0.27248331  0.37700664  0.82832203  1
  H+  H167  1  0.85880548  0.50678191  0.53850541  1
  H+  H168  1  0.53948139  0.87451745  1.01541051  1
  H+  H169  1  0.72247152  0.83980451  0.98954364  1
  H+  H170  1  0.73503211  0.85483164  0.31114116  1
  H+  H171  1  0.96458105  0.60554699  0.17116528  1
  H+  H172  1  0.01894215  0.92184617  0.36215365  1
  H+  H173  1  0.38830268  0.53169911  0.31390106  1
  H+  H174  1  0.33831305  0.58916356  0.71785614  1
  H+  H175  1  0.63717374  1.02229194  0.17450011  1
  H+  H176  1  0.13716950  0.36375258  0.32959492  1
  H+  H177  1  0.14433671  0.12074157  0.98998417  1
  H+  H178  1  0.51630316  0.14433982  0.34261470  1
  H+  H179  1  0.11261984  0.12992384  0.81968827  1
  H+  H180  1  0.78351745  0.92651048  0.66848213  1
  H+  H181  1  0.36874303  0.10385787  0.83447902  1
  H+  H182  1  0.32749668  0.75777961  0.30616597  1
  H+  H183  1  0.14224204  0.86649872  0.98357331  1
  H+  H184  1  0.58652167  0.67395009  0.39309541  1
  H+  H185  1  0.67998435  0.32191805  0.52338503  1
  H+  H186  1  0.71054217  0.60909674  0.32987706  1
  H+  H187  1  -0.03117551  0.10011861  0.16605748  1
  H+  H188  1  0.07679126  0.45475801  0.68322104  1
  H+  H189  1  0.27516204  0.39175072  0.32146442  1
  H+  H190  1  0.22080743  0.35949174  0.67877828  1
  H+  H191  1  0.38862621  0.03061666  0.65714954  1
  H+  H192  1  0.15155633  0.13776201  0.51983672  1
  H+  H193  1  0.96253108  0.88216911  0.99028780  1
  H+  H194  1  0.11920739  0.21160711  0.45560263  1
  H+  H195  1  0.67143252  0.33794670  0.26684372  1
  H+  H196  1  0.13897126  1.02091850  0.83520099  1
  H+  H197  1  0.37246083  0.72817335  0.47602041  1
  H+  H198  1  0.11388546  0.97361697  0.16888318  1
  H+  H199  1  0.61332969  0.62814410  0.01642368  1
  H+  H200  1  0.61098427  0.47451453  0.15666025  1
  H+  H201  1  0.60503200  0.47462156  0.33870413  1
  H+  H202  1  0.17787886  0.82978951  0.90008270  1
  H+  H203  1  0.22785405  0.36580724  0.17104584  1
  H+  H204  1  0.08487778  0.58607463  0.65795347  1
  H+  H205  1  0.12241064  0.86115347  0.18436473  1
  H+  H206  1  0.32469319  0.84449051  0.31340623  1
  H+  H207  1  0.84646992  0.37461653  0.98818884  1
  H+  H208  1  0.11155926  0.21782877  0.81888009  1
  H+  H209  1  0.13022222  0.86430306  0.66244072  1
  H+  H210  1  0.63348479  0.75374501  -0.01349158  1
  H+  H211  1  0.27468194  0.13431534  0.67013564  1
  H+  H212  1  0.39329853  0.83275339  0.99558902  1
  H+  H213  1  0.11748577  0.87266554  0.34075662  1
  H+  H214  1  0.38446801  0.27072354  0.65786039  1
  H+  H215  1  0.52448639  0.38448226  0.15780022  1
  H+  H216  1  0.64909382  0.77960484  0.83552100  1
  H+  H217  1  0.17859860  0.57966360  0.56307577  1
  H+  H218  1  0.32834756  0.16548866  0.06834067  1
  H+  H219  1  0.56586331  0.63632988  0.68585926  1
  H+  H220  1  0.89114122  0.86900600  0.50509213  1
  H+  H221  1  0.54716562  0.88850399  0.47355219  1
  H+  H222  1  0.09380363  0.67355012  0.11220554  1
  H+  H223  1  0.47251462  0.36005216  0.99303103  1
  H+  H224  1  0.15568412  0.58277427  0.25597515  1
  H+  H225  1  1.00505468  0.63883846  0.68001193  1
  H+  H226  1  0.48079108  0.92861714  0.29542725  1
  H+  H227  1  0.62450716  0.68306902  0.77055010  1
  H+  H228  1  0.62873773  0.26354556  -0.00544592  1
  H+  H229  1  0.84971332  0.46853634  0.81864055  1
  H+  H230  1  0.60393697  0.37754593  1.00348319  1
  H+  H231  1  0.95159851  0.60309982  0.31363000  1
  H+  H232  1  0.13176794  0.02181327  0.65746677  1
  H+  H233  1  0.49931660  0.86991543  0.84373265  1
  H+  H234  1  0.99473779  0.12539719  0.51876617  1
  H+  H235  1  0.61301158  0.38969700  0.33776968  1
  H+  H236  1  0.77085009  0.37684274  0.33119501  1
  H+  H237  1  0.39643003  0.61025403  0.16414232  1
  H+  H238  1  0.22816027  0.36586661  0.99007504  1
  H+  H239  1  -0.12063778  0.60536103  -0.01099585  1
  H+  H240  1  0.38684781  0.60020195  0.99587594  1
  H+  H241  1  0.10103682  0.38832954  0.50919562  1
  H+  H242  1  0.64413380  0.36082307  0.17508265  1
  H+  H243  1  0.61380606  0.72941093  0.33083209  1
  H+  H244  1  0.10475176  0.21625059  0.67225208  1
  H+  H245  1  0.05009770  0.65748069  0.37778765  1
  H+  H246  1  0.26937255  0.37943910  0.45839919  1
  H+  H247  1  0.29227464  0.87736695  0.82285103  1
  H+  H248  1  0.35785837  0.37844361  0.00559163  1
  H+  H249  1  0.72904093  0.10498025  0.16137078  1
  H+  H250  1  0.25680162  0.90349827  0.34808779  1
  H+  H251  1  0.96675251  0.60103467  0.98436564  1
  H+  H252  1  0.61546758  -0.03002281  1.01358904  1
  H+  H253  1  0.90769476  0.31559084  0.57576850  1
  H+  H254  1  0.38384747  0.27048787  0.99469960  1
  H+  H255  1  0.14869039  0.65272816  1.01953839  1
  H+  H256  1  0.12425800  0.23228954  1.00539114  1
  H+  H257  1  0.34825137  0.68521561  0.19547335  1
  H+  H258  1  0.87931352  0.26143817  0.98470826  1
  H+  H259  1  0.11515457  0.39017048  0.15640231  1
  H+  H260  1  0.22197693  0.11489427  0.17481068  1
  H+  H261  1  0.64454975  0.61146611  0.49958279  1
  H+  H262  1  0.35389941  0.14297896  0.16279476  1
  H+  H263  1  0.12902488  0.35878453  0.68337641  1
  H+  H264  1  0.64211761  0.52779666  0.84626049  1
  H+  H265  1  0.95623963  0.35879273  0.83567648  1
  H+  H266  1  0.10929754  0.22475424  0.15986864  1
  H+  H267  1  0.57322711  0.17419852  0.40229661  1
  H+  H268  1  0.38590324  0.60912245  0.47125264  1
  H+  H269  1  0.89796116  0.26852926  0.31852429  1
  H+  H270  1  0.04649508  0.13505787  0.38507445  1
  H+  H271  1  0.36784939  0.60200296  0.84566816  1
  H+  H272  1  0.12012981  -0.01550775  0.98243166  1
  H+  H273  1  0.02507877  0.88476864  0.16373968  1
  H+  H274  1  0.60939324  0.71714179  0.49384826  1
  H+  H275  1  0.22700676  0.61696252  0.31730851  1
  H+  H276  1  0.08560721  0.86241220  0.81029235  1
  H+  H277  1  1.01977266  0.88272343  0.50096179  1
  H+  H278  1  0.47103814  0.35764361  0.50325058  1
  H+  H279  1  0.23929244  0.89470973  0.51673880  1
  H+  H280  1  0.56688954  0.91321508  0.32902489  1
  H+  H281  1  0.12212806  0.51153526  0.17267239  1
  H+  H282  1  0.84509654  0.37788911  0.82567257  1
  H+  H283  1  0.71456544  0.35932355  0.83616179  1
  H+  H284  1  0.88474477  0.85611925  0.16760975  1
  H+  H285  1  0.22599253  0.60409848  -0.00935382  1
  H+  H286  1  0.36196942  0.22698023  0.82358306  1
  H+  H287  1  0.41193340  0.87298868  0.84375638  1
  H+  H288  1  0.22035920  0.86537794  0.66590183  1
  H+  H289  1  0.46421180  0.11071679  0.57046754  1
  H+  H290  1  0.85130958  0.17989126  0.39549399  1
  H+  H291  1  0.15836518  0.33994037  0.59720829  1
  H+  H292  1  0.33465991  0.41494637  0.09894614  1
  H+  H293  1  0.85766663  0.74804030  0.67841078  1
  H+  H294  1  0.07223434  0.14974473  0.72559838  1
  H+  H295  1  0.88797469  0.77824737  0.51347715  1
  H+  H296  1  0.38473227  0.62573086  0.59120959  1
  H+  H297  1  0.64625065  0.81251239  0.57400475  1
  H+  H298  1  0.78033585  0.63744913  0.49781259  1
  H+  H299  1  0.63418317  0.14238849  0.17440588  1
  H+  H300  1  0.77922805  0.37442410  0.16396276  1
  H+  H301  1  0.40940831  0.33063663  0.59918252  1
  H+  H302  1  0.01049633  0.88088024  0.82768023  1
  H+  H303  1  0.21108701  0.74334822  0.04911665  1
  H+  H304  1  0.64677830  0.27169922  0.18152869  1
  H+  H305  1  0.06428859  0.40804529  0.74741315  1
  H+  H306  1  0.88118496  0.60166077  0.52266620  1
  H+  H307  1  0.57995099  0.90623384  0.73998751  1
  H+  H308  1  0.83486281  0.65342977  0.06323321  1
  H+  H309  1  0.16198696  0.58776002  0.93493463  1
  H+  H310  1  0.43045486  0.59267194  0.22555715  1
  H+  H311  1  0.66109664  0.58211830  0.23453339  1
  H+  H312  1  0.63048775  0.97825131  0.82350027  1
  H+  H313  1  0.93543250  0.09202436  0.93122793  1
  H+  H314  1  0.68074585  0.58173183  0.59598222  1
  H+  H315  1  0.32969725  0.40395306  0.73996326  1
  H+  H316  1  0.35895323  0.23180382  0.34148342  1
  H+  H317  1  0.32576769  0.94355026  0.40117282  1
  H+  H318  1  0.33880290  0.69884972  0.78395646  1
  H+  H319  1  0.58014499  0.43116206  0.73250631  1
  H+  H320  1  0.08680630  0.16805462  0.09996853  1
  H+  H321  1  0.43506358  0.82100008  0.93543290  1
  H+  H322  1  0.57602206  0.41111823  0.43309659  1
  H+  H323  1  0.89541429  0.56905656  0.22491658  1
  H+  H324  1  0.16724076  0.33732498  0.22958645  1
  H+  H325  1  0.33362220  0.16919500  0.76232664  1
  H+  H326  1  0.50593170  0.90059605  0.16354098  1
  H+  H327  1  0.33969631  0.89903027  0.05685092  1
  H+  H328  1  0.79785872  0.40240377  0.47250072  1
  H+  H329  1  0.67350419  0.83472162  0.89602329  1
  H+  H330  1  0.62232768  0.61017963  0.32494014  1
  H+  H331  1  0.91160518  0.84186651  0.89830064  1
  H+  H332  1  0.57887180  0.41064616  0.06360649  1
  H+  H333  1  0.41456637  0.32778132  0.89827778  1
  H+  H334  1  0.32511849  0.66452518  0.38316340  1
  H+  H335  1  0.14414612  0.83899288  0.28032588  1
  H+  H336  1  0.16509698  0.32602321  0.89570887  1
  H+  H337  1  0.83909846  0.94900112  0.72740578  1
  H+  H338  1  0.65757604  0.77863284  0.22319923  1
  H+  H339  1  0.44016690  0.85518306  0.54381674  1
  H+  H340  1  0.41484016  0.10269677  0.23565535  1
  H+  H341  1  0.82025750  0.92357221  0.07323622  1
  H+  H342  1  0.17382886  0.09238611  0.57982255  1
  H+  H343  1  0.07208349  0.92033940  0.72775057  1
  H+  H344  1  0.35632522  0.82828940  0.21741110  1
  H+  H345  1  0.90552958  0.07546151  0.22309926  1
  H+  H346  1  0.83275897  0.67769011  0.77064971  1
  H+  H347  1  0.49491470  0.96577443  0.60225681  1
  H+  H348  1  0.34036688  0.42051889  0.37651125  1
  H+  H349  1  0.90897376  0.82024083  0.25486562  1
  H+  H350  1  0.90914879  0.85104721  0.60339711  1
  H+  H351  1  0.84737514  0.92663735  0.42747693  1
  H+  H352  1  0.64866801  0.32121064  0.61657226  1
  H+  H353  1  0.90687470  0.58746909  0.62016488  1
  H+  H354  1  0.20480717  0.84880857  0.19636598  1
  H+  H355  1  0.44188965  0.80481165  0.71657470  1
  H+  H356  1  0.34034658  0.91764431  0.72870574  1
  H+  H357  1  0.41769299  0.33034578  0.22807719  1
  H+  H358  1  0.13932305  0.69649825  0.44186287  1
  H+  H359  1  0.35633377  0.47075175  0.82968086  1
  H+  H360  1  0.13809557  0.27575116  0.32327098  1
  H+  H361  1  0.84532882  0.39651725  0.38050505  1
  H+  H362  1  0.83121100  0.38696804  0.72558086  1
  H+  H363  1  0.31979885  0.16302663  0.43459771  1
  H+  H364  1  0.25804239  0.62412360  0.16690693  1
  H+  H365  1  0.40388143  0.57019846  0.89985075  1
  H+  H366  1  0.82279458  0.14337015  0.77326277  1
  H+  H367  1  0.17641951  0.84565806  0.57319100  1
  H+  H368  1  0.84857882  0.46417474  -0.01519683  1
  H+  H369  1  0.03239365  0.51103757  0.61277339  1
  H+  H370  1  0.03659514  0.14292756  0.00477742  1
  H+  H371  1  0.62190523  0.92599825  0.38777176  1
  H+  H372  1  0.16338937  0.08505752  0.26755384  1
  H+  H373  1  0.42788561  0.66650616  0.58810103  1
  H+  H374  1  0.83486654  0.15994410  0.05202582  1
  H+  H375  1  0.47659712  0.17140380  0.95487953  1
  H+  H376  1  0.63302930  0.97731412  0.47693033  1
  H+  H377  1  0.59561765  0.16922453  0.11960994  1
  H+  H378  1  0.33199500  0.65597738  0.06146955  1
  H+  H379  1  0.90129198  0.32445424  0.89612490  1
  H+  H380  1  0.22428192  0.62641501  0.84404220  1
  H+  H381  1  0.07687083  0.40242980  0.40384368  1
  H+  H382  1  0.07853294  0.41274601  0.06086175  1
  H+  H383  1  0.66825713  0.58331343  0.94119118  1
  O2-  O384  1  0.08017677  0.16417968  0.14528370  1
  O2-  O385  1  0.10936070  0.19663430  0.49853572  1
  O2-  O386  1  0.08103629  0.15790639  0.80327926  1
  O2-  O387  1  0.08409631  0.41982996  0.14145126  1
  O2-  O388  1  0.07253276  0.41565646  0.48794004  1
  O2-  O389  1  0.08371160  0.42527364  0.83967420  1
  O2-  O390  1  0.07498716  0.66125599  0.15559061  1
  O2-  O391  1  0.13260160  0.68850580  0.48597688  1
  O2-  O392  1  0.07771093  0.66555658  0.80908293  1
  O2-  O393  1  0.08780484  0.91256731  0.15569677  1
  O2-  O394  1  0.07855103  0.91068114  0.48210544  1
  O2-  O395  1  0.07221689  0.90868872  0.80979836  1
  O2-  O396  1  0.31906425  0.16768772  0.14371364  1
  O2-  O397  1  0.32032612  0.15646292  0.48001614  1
  O2-  O398  1  0.32931396  0.16634896  0.80779318  1
  O2-  O399  1  0.33636183  0.41678545  0.14466290  1
  O2-  O400  1  0.33155132  0.40638667  0.45589953  1
  O2-  O401  1  0.33321408  0.40938280  0.81441497  1
  O2-  O402  1  0.32077111  0.65889807  0.15695442  1
  O2-  O403  1  0.33857963  0.66831191  0.46023484  1
  O2-  O404  1  0.32876208  0.67898812  0.82684770  1
  O2-  O405  1  0.35903151  0.96485704  0.11906849  1
  O2-  O406  1  0.33423891  0.99300445  0.47755065  1
  O2-  O407  1  0.35076807  0.91432031  0.80682832  1
  O2-  O408  1  0.60541951  0.17713664  0.16363885  1
  O2-  O409  1  0.61394735  0.07436511  0.53852040  1
  O2-  O410  1  0.56775993  0.16555356  0.81261166  1
  O2-  O411  1  0.58489845  0.41450602  0.14234070  1
  O2-  O412  1  0.57310530  0.41262887  0.47837876  1
  O2-  O413  1  0.58442573  0.42760890  0.81388396  1
  O2-  O414  1  0.59307296  0.73324568  0.14494365  1
  O2-  O415  1  0.59320754  0.66311715  0.46856475  1
  O2-  O416  1  0.61269216  0.68462188  0.81450141  1
  O2-  O417  1  0.56583073  0.91610593  0.15728273  1
  O2-  O418  1  0.60876409  0.91671161  0.46298679  1
  O2-  O419  1  0.59370167  0.91605979  0.81117426  1
  O2-  O420  1  0.83685627  0.15990601  0.12720814  1
  O2-  O421  1  0.84043891  0.17979616  0.46917076  1
  O2-  O422  1  0.83181685  0.15299231  0.81789241  1
  O2-  O423  1  0.83909420  0.39936180  0.14883781  1
  O2-  O424  1  0.79365694  0.38798213  0.51531868  1
  O2-  O425  1  0.81607299  0.40697100  0.80679799  1
  O2-  O426  1  0.83053055  0.66601978  0.14441667  1
  O2-  O427  1  0.84272201  0.67018827  0.48656295  1
  O2-  O428  1  0.83520682  0.67308170  0.81601533  1
  O2-  O429  1  0.82456640  0.90182715  0.14509009  1
  O2-  O430  1  0.85018719  0.92374313  0.47209914  1
  O2-  O431  1  0.82393876  0.89683379  0.79107198  1
  O2-  O432  1  0.16214429  0.08233379  0.19250356  1
  O2-  O433  1  0.17752240  0.10160252  0.53167679  1
  O2-  O434  1  0.16802389  0.08093441  0.84988683  1
  O2-  O435  1  0.16659310  0.33633823  0.18420412  1
  O2-  O436  1  0.16479049  0.34783629  0.55023771  1
  O2-  O437  1  0.16511518  0.32315113  0.85003151  1
  O2-  O438  1  0.15173224  0.57282723  0.19023443  1
  O2-  O439  1  0.18453498  0.58459965  0.51862489  1
  O2-  O440  1  0.16243579  0.59226226  0.85731988  1
  O2-  O441  1  0.14380497  0.82255513  0.20529525  1
  O2-  O442  1  0.18130930  0.84806529  0.52763814  1
  O2-  O443  1  0.18195865  0.83743765  0.85425075  1
  O2-  O444  1  0.41319342  0.11281050  0.19157192  1
  O2-  O445  1  0.48723252  0.11744607  0.52812702  1
  O2-  O446  1  0.39482105  0.06965746  0.85004510  1
  O2-  O447  1  0.41860333  0.33229276  0.18270661  1
  O2-  O448  1  0.40971494  0.32342736  0.51781285  1
  O2-  O449  1  0.41571526  0.32798515  0.85287684  1
  O2-  O450  1  0.43703405  0.59340356  0.18010580  1
  O2-  O451  1  0.41078461  0.57199385  0.48381412  1
  O2-  O452  1  0.39065441  0.56380824  0.85582927  1
  O2-  O453  1  0.37827485  0.84581142  0.17447554  1
  O2-  O454  1  0.43350245  0.83720200  0.49999647  1
  O2-  O455  1  0.43934988  0.84176981  0.86143537  1
  O2-  O456  1  0.67595007  0.08382309  0.18533924  1
  O2-  O457  1  0.65919192  0.08454976  0.48862097  1
  O2-  O458  1  0.69303475  0.07901845  0.85038418  1
  O2-  O459  1  0.67553577  0.33540996  0.19502316  1
  O2-  O460  1  0.61937390  0.30643978  0.53024831  1
  O2-  O461  1  0.65371336  0.33210127  0.85086571  1
  O2-  O462  1  0.66500971  0.58674958  0.18901784  1
  O2-  O463  1  0.67415440  0.58116390  0.51585699  1
  O2-  O464  1  0.67474725  0.58588171  0.86562473  1
  O2-  O465  1  0.66643341  0.75251606  0.18506351  1
  O2-  O466  1  0.61994501  0.79376399  0.53283782  1
  O2-  O467  1  0.67462269  0.84136971  0.85062845  1
  O2-  O468  1  0.90702346  0.06825227  0.17798686  1
  O2-  O469  1  0.93919624  0.08243099  0.53674824  1
  O2-  O470  1  0.92607771  0.08618118  0.86386791  1
  O2-  O471  1  0.92387856  0.32183245  0.17489543  1
  O2-  O472  1  0.90576285  0.33261539  0.53246819  1
  O2-  O473  1  0.89696444  0.32420071  0.85021724  1
  O2-  O474  1  0.90195287  0.57315380  0.18015679  1
  O2-  O475  1  0.90185292  0.56757569  0.54484185  1
  O2-  O476  1  0.90711672  0.57700323  0.84430800  1
  O2-  O477  1  0.91536791  0.82681025  0.18381725  1
  O2-  O478  1  0.91829974  0.83929169  0.52701378  1
  O2-  O479  1  0.92063010  0.83610768  0.85386171  1
  O2-  O480  1  0.16424089  0.09079032  0.31343773  1
  O2-  O481  1  0.16613229  0.08372849  0.64404380  1
  O2-  O482  1  0.17377135  0.08961836  0.97385133  1
  O2-  O483  1  0.16862238  0.33599896  0.30941537  1
  O2-  O484  1  0.15877210  0.32980053  0.66485591  1
  O2-  O485  1  0.16835824  0.33521431  0.97287783  1
  O2-  O486  1  0.16343593  0.59302581  0.30350436  1
  O2-  O487  1  0.08543501  0.53668851  0.63627262  1
  O2-  O488  1  0.16417446  0.58191801  0.98016621  1
  O2-  O489  1  0.14805527  0.84250264  0.32591531  1
  O2-  O490  1  0.16075021  0.83350589  0.64940307  1
  O2-  O491  1  0.17282665  0.83430586  0.97330310  1
  O2-  O492  1  0.41518738  0.09491419  0.31593507  1
  O2-  O493  1  0.42298770  0.09162605  0.64421752  1
  O2-  O494  1  0.43238493  0.11522154  0.96938429  1
  O2-  O495  1  0.41479336  0.32929864  0.30741163  1
  O2-  O496  1  0.40830235  0.33144752  0.64428574  1
  O2-  O497  1  0.41179518  0.32990970  0.97749745  1
  O2-  O498  1  0.41658894  0.59388594  0.30213785  1
  O2-  O499  1  0.46654007  0.55766708  0.66058455  1
  O2-  O500  1  0.41694476  0.56999734  0.98086043  1
  O2-  O501  1  0.31331128  0.79739084  0.28490003  1
  O2-  O502  1  0.45947919  0.90522715  0.61328187  1
  O2-  O503  1  0.42824956  0.80794916  0.98013892  1
  O2-  O504  1  0.68876370  0.11406415  0.32624825  1
  O2-  O505  1  0.65679702  0.06736174  0.65850361  1
  O2-  O506  1  0.66404303  0.07285400  0.97413685  1
  O2-  O507  1  0.67350498  0.34094006  0.31345231  1
  O2-  O508  1  0.67025515  0.31811494  0.65678683  1
  O2-  O509  1  0.64913062  0.32082697  0.97564991  1
  O2-  O510  1  0.65181525  0.57799658  0.31157692  1
  O2-  O511  1  0.68567585  0.58456590  0.64097112  1
  O2-  O512  1  0.66576658  0.58062322  0.98695504  1
  O2-  O513  1  0.67507892  0.82537798  0.29470043  1
  O2-  O514  1  0.67642379  0.83788095  0.64864914  1
  O2-  O515  1  0.66723622  0.81193632  0.96859193  1
  O2-  O516  1  0.90445764  0.07947822  0.29990317  1
  O2-  O517  1  0.96941971  0.04451308  0.58273804  1
  O2-  O518  1  0.93901319  0.09690643  0.97848297  1
  O2-  O519  1  0.93062995  0.32783471  0.29891744  1
  O2-  O520  1  0.90258215  0.28473088  0.64979317  1
  O2-  O521  1  0.90785036  0.32300344  0.97007591  1
  O2-  O522  1  0.89002052  0.56999502  0.30644996  1
  O2-  O523  1  0.91520413  0.59973379  0.66480153  1
  O2-  O524  1  0.90965450  0.57647420  0.96693793  1
  O2-  O525  1  0.91042406  0.81789798  0.30158142  1
  O2-  O526  1  0.91022845  0.85555479  0.64890556  1
  O2-  O527  1  0.90492691  0.85699705  0.97253055  1
  O2-  O528  1  0.09728581  0.17235232  0.02130635  1
  O2-  O529  1  0.07227612  0.16095143  0.34619403  1
  O2-  O530  1  0.07684838  0.15373011  0.68025981  1
  O2-  O531  1  0.07757738  0.41136427  0.01541265  1
  O2-  O532  1  0.08549806  0.40443387  0.35940981  1
  O2-  O533  1  0.06611079  0.40032621  0.70352568  1
  O2-  O534  1  0.14939953  0.70076508  0.04386971  1
  O2-  O535  1  0.10611241  0.68630811  0.35815679  1
  O2-  O536  1  0.07046770  0.66204506  0.69101223  1
  O2-  O537  1  0.08660999  0.91963368  -0.02096945  1
  O2-  O538  1  0.07734369  0.93390230  0.36979794  1
  O2-  O539  1  0.07495249  0.92092512  0.68270276  1
  O2-  O540  1  0.33359733  0.16675022  0.02263861  1
  O2-  O541  1  0.32710288  0.17208278  0.35877133  1
  O2-  O542  1  0.33491781  0.16687729  0.68483681  1
  O2-  O543  1  0.32797089  0.40895116  0.02154775  1
  O2-  O544  1  0.33829242  0.42459651  0.33162973  1
  O2-  O545  1  0.32424736  0.40361744  0.69426635  1
  O2-  O546  1  0.32969681  0.65042569  0.01717324  1
  O2-  O547  1  0.31832205  0.65929808  0.33787917  1
  O2-  O548  1  0.37942299  0.77478058  0.72128555  1
  O2-  O549  1  0.31586696  0.85081538  0.02706988  1
  O2-  O550  1  0.31906666  0.92908477  0.35723451  1
  O2-  O551  1  0.33117716  0.92130950  0.68406477  1
  O2-  O552  1  0.58934989  0.15817758  0.02967402  1
  O2-  O553  1  0.57718847  0.17659911  0.35814595  1
  O2-  O554  1  0.57208475  0.15316716  0.69655725  1
  O2-  O555  1  0.57567385  0.41033533  0.01819043  1
  O2-  O556  1  0.57731796  0.41376901  0.35346788  1
  O2-  O557  1  0.58046723  0.43487500  0.68754116  1
  O2-  O558  1  0.57909897  0.65684927  0.02654098  1
  O2-  O559  1  0.57753101  0.67009802  0.34778167  1
  O2-  O560  1  0.62748000  0.67918327  0.69272612  1
  O2-  O561  1  0.59236245  0.91567917  0.03684453  1
  O2-  O562  1  0.62561184  0.93273887  0.34211999  1
  O2-  O563  1  0.57266886  0.90239957  0.69366335  1
  O2-  O564  1  0.83419513  0.16061818  0.00628021  1
  O2-  O565  1  0.84891555  0.17623615  0.34952139  1
  O2-  O566  1  0.81682656  0.12050192  0.69522975  1
  O2-  O567  1  0.81294419  0.40333290  -0.00329736  1
  O2-  O568  1  0.83607895  0.40785336  0.33880562  1
  O2-  O569  1  0.83230938  0.37201738  0.68252039  1
  O2-  O570  1  0.83415484  0.64715434  0.01852250  1
  O2-  O571  1  0.81469067  0.65872796  0.35749740  1
  O2-  O572  1  0.83507798  0.68891297  0.69450575  1
  O2-  O573  1  0.81911204  0.93865930  0.02913121  1
  O2-  O574  1  0.83621100  0.91590714  0.34331086  1
  O2-  O575  1  0.84107277  0.96917141  0.68425339  1
