# generated using pymatgen
data_H2O
_symmetry_space_group_name_H-M   'P 1'
_cell_length_a   17.97935575
_cell_length_b   17.97267850
_cell_length_c   21.96988160
_cell_angle_alpha   89.97849648
_cell_angle_beta   89.98727428
_cell_angle_gamma   119.99440345
_symmetry_Int_Tables_number   1
_chemical_formula_structural   H2O
_chemical_formula_sum   'H384 O192'
_cell_volume   6148.50724791
_cell_formula_units_Z   192
loop_
 _symmetry_equiv_pos_site_id
 _symmetry_equiv_pos_as_xyz
  1  'x, y, z'
loop_
 _atom_type_symbol
 _atom_type_oxidation_number
  H+  1.0
  O2-  -2.0
loop_
 _atom_site_type_symbol
 _atom_site_label
 _atom_site_symmetry_multiplicity
 _atom_site_fract_x
 _atom_site_fract_y
 _atom_site_fract_z
 _atom_site_occupancy
  H+  H0  1  0.01473837  0.38492278  0.32676871  1
  H+  H1  1  0.16648375  0.91446110  0.67879386  1
  H+  H2  1  0.63193394  0.87472165  0.91997027  1
  H+  H3  1  0.12482944  0.72674718  0.49240315  1
  H+  H4  1  0.37256793  0.21350717  0.16735915  1
  H+  H5  1  0.14906446  1.07195634  0.56808567  1
  H+  H6  1  0.29114847  0.16866124  0.81464901  1
  H+  H7  1  0.54936346  0.09751848  0.84276575  1
  H+  H8  1  0.36663668  0.12816932  0.50009079  1
  H+  H9  1  0.03434961  0.12762879  0.83874258  1
  H+  H10  1  0.48560326  0.10938105  0.50330754  1
  H+  H11  1  0.36701048  0.47901261  0.33181390  1
  H+  H12  1  0.15804449  0.78393438  0.66124961  1
  H+  H13  1  0.11546532  0.97896150  0.49893827  1
  H+  H14  1  0.48315614  0.87408412  0.84297453  1
  H+  H15  1  0.07678376  0.41771327  0.38239924  1
  H+  H16  1  0.87618301  0.27658267  0.50574067  1
  H+  H17  1  0.76056193  0.39488901  0.51857025  1
  H+  H18  1  0.32878762  0.42244328  0.72329521  1
  H+  H19  1  0.76940139  0.13844917  0.33631370  1
  H+  H20  1  0.75211335  0.37752015  0.32589808  1
  H+  H21  1  0.85454107  0.38236627  0.66586529  1
  H+  H22  1  0.37407933  1.00021542  0.81972826  1
  H+  H23  1  0.36823248  0.38917673  0.00222307  1
  H+  H24  1  0.77676531  0.39516006  0.16169508  1
  H+  H25  1  0.60500024  0.87552717  0.48183485  1
  H+  H26  1  0.89366818  0.29872883  0.66197225  1
  H+  H27  1  0.79910322  0.39611195  0.84368900  1
  H+  H28  1  0.23100049  0.86641180  0.50237136  1
  H+  H29  1  -0.01849719  0.87023445  0.67080027  1
  H+  H30  1  0.01689672  0.37685418  0.00645586  1
  H+  H31  1  0.52942360  0.38776846  0.68563638  1
  H+  H32  1  0.38181446  0.36408827  0.35229168  1
  H+  H33  1  0.84025342  0.89036445  0.67928797  1
  H+  H34  1  0.74239598  0.60115674  0.66018261  1
  H+  H35  1  0.02519983  0.89662439  0.50603330  1
  H+  H36  1  0.88563289  0.60689454  0.50394848  1
  H+  H37  1  0.12134573  0.14223336  0.49462387  1
  H+  H38  1  0.81983400  0.61002699  0.41058855  1
  H+  H39  1  0.35438248  0.21524213  0.35343932  1
  H+  H40  1  0.62764644  0.46268050  0.68585832  1
  H+  H41  1  0.83943428  0.47069630  0.67847866  1
  H+  H42  1  0.13405317  0.77708607  0.02355298  1
  H+  H43  1  0.46941102  0.35028667  0.17580899  1
  H+  H44  1  0.02575198  -0.07082228  0.80405680  1
  H+  H45  1  0.14959656  0.11359820  -0.01112623  1
  H+  H46  1  0.73410511  0.84016042  0.63465873  1
  H+  H47  1  0.13643832  0.26257578  0.99127335  1
  H+  H48  1  0.59682649  0.23219576  0.33070073  1
  H+  H49  1  0.11545326  0.77726892  0.17060760  1
  H+  H50  1  0.20265265  0.86448218  0.16615887  1
  H+  H51  1  0.38886045  0.07776095  0.92584190  1
  H+  H52  1  0.37801329  0.14597957  0.66997618  1
  H+  H53  1  0.84896883  0.69873052  0.08878094  1
  H+  H54  1  0.15144498  0.12401113  0.83573649  1
  H+  H55  1  0.19469128  0.24337758  0.13196419  1
  H+  H56  1  0.55059323  0.27483092  0.27696966  1
  H+  H57  1  0.88816803  0.84369919  0.82577652  1
  H+  H58  1  0.75130292  0.37138832  0.67611702  1
  H+  H59  1  0.10984558  0.22519187  0.33674527  1
  H+  H60  1  0.38004604  0.10202404  0.33403173  1
  H+  H61  1  0.75238911  0.11243015  0.83875938  1
  H+  H62  1  0.62812644  0.91695068  0.33102924  1
  H+  H63  1  0.60952433  0.15617383  0.99788273  1
  H+  H64  1  0.62265828  0.34768602  0.68022479  1
  H+  H65  1  0.78804470  0.95967409  0.70212566  1
  H+  H66  1  0.85385024  0.47511109  0.52689023  1
  H+  H67  1  0.85960072  0.13110920  0.93920875  1
  H+  H68  1  0.84598725  0.97240496  0.15146456  1
  H+  H69  1  0.61756249  0.00034313  0.33278919  1
  H+  H70  1  0.61255222  0.87626554  0.66885305  1
  H+  H71  1  0.61554765  0.21941635  0.68829639  1
  H+  H72  1  0.10288304  0.96798345  0.34173304  1
  H+  H73  1  0.88769660  0.67556692  0.00744139  1
  H+  H74  1  0.49157845  0.62945090  0.16734771  1
  H+  H75  1  0.62940195  0.12561387  0.32698813  1
  H+  H76  1  0.69652033  0.23129975  0.45922972  1
  H+  H77  1  0.73466724  0.04829662  0.63163227  1
  H+  H78  1  1.02694736  0.12100861  0.15693355  1
  H+  H79  1  0.22430980  0.60548335  1.01391947  1
  H+  H80  1  0.38263362  0.01385531  0.33633429  1
  H+  H81  1  0.21535798  0.35668744  0.31949057  1
  H+  H82  1  0.38627937  0.14040282  0.82564380  1
  H+  H83  1  0.29025668  0.89031711  0.66873254  1
  H+  H84  1  0.51536871  0.38195881  0.48527845  1
  H+  H85  1  0.12632188  0.35451879  0.31700851  1
  H+  H86  1  0.09898609  0.97683580  0.16039314  1
  H+  H87  1  0.36962906  0.35014225  0.49556193  1
  H+  H88  1  0.57931444  0.97574777  0.16564913  1
  H+  H89  1  0.60874455  0.74559247  0.70482765  1
  H+  H90  1  0.40649146  0.52851777  0.51814964  1
  H+  H91  1  0.60607844  0.73092998  0.15667256  1
  H+  H92  1  0.16896834  0.87834145  0.89318077  1
  H+  H93  1  0.63945752  0.61652593  0.16687619  1
  H+  H94  1  0.87308335  0.36512636  0.50738395  1
  H+  H95  1  0.33949051  0.66766035  0.10335034  1
  H+  H96  1  0.27143580  0.87690203  0.35095713  1
  H+  H97  1  0.05128612  0.91024313  0.81748644  1
  H+  H98  1  0.88916717  0.54523983  1.00369407  1
  H+  H99  1  0.61746098  0.24917877  0.00396887  1
  H+  H100  1  0.40924580  0.82473244  0.23625181  1
  H+  H101  1  0.71578148  0.21180831  0.10085200  1
  H+  H102  1  0.66206133  0.28607405  0.85925261  1
  H+  H103  1  0.53957508  0.62407105  0.49387587  1
  H+  H104  1  0.51956878  0.13377931  0.34919929  1
  H+  H105  1  0.25123194  0.41302796  0.48990772  1
  H+  H106  1  0.47195945  0.84842326  0.65856257  1
  H+  H107  1  0.91945679  0.07868119  0.23023128  1
  H+  H108  1  0.12114534  0.01427182  0.66043213  1
  H+  H109  1  1.02987401  0.10458535  0.99466707  1
  H+  H110  1  0.88660023  0.79146380  0.44894001  1
  H+  H111  1  0.88785404  0.16540304  0.67483853  1
  H+  H112  1  0.35640873  0.96801910  0.16603156  1
  H+  H113  1  0.41022881  0.77671740  0.33374194  1
  H+  H114  1  0.13532937  0.85601513  0.34225557  1
  H+  H115  1  0.84295631  0.33839298  0.17938045  1
  H+  H116  1  0.20058479  0.61415403  0.66829119  1
  H+  H117  1  0.63066767  0.62995097  0.48832140  1
  H+  H118  1  0.15753086  0.37203591  0.66940090  1
  H+  H119  1  0.36992785  0.14404713  0.00504564  1
  H+  H120  1  0.59652692  0.36730071  0.33432234  1
  H+  H121  1  0.93482893  0.58534866  0.90927383  1
  H+  H122  1  0.77405118  0.13180411  0.49308265  1
  H+  H123  1  0.71573749  0.86639434  0.16447538  1
  H+  H124  1  0.13122468  0.10786777  0.32659655  1
  H+  H125  1  0.16292933  0.57250136  0.95580512  1
  H+  H126  1  0.37524548  0.33379873  0.17567023  1
  H+  H127  1  0.11538123  0.22574343  0.83770029  1
  H+  H128  1  0.09912841  0.38026420  0.48952031  1
  H+  H129  1  0.37087714  0.64227939  1.01161230  1
  H+  H130  1  0.20284554  0.36035111  0.83435204  1
  H+  H131  1  0.10643280  0.64645164  0.17270284  1
  H+  H132  1  0.96359193  0.59255701  0.32315314  1
  H+  H133  1  0.21460500  0.61098878  0.86259439  1
  H+  H134  1  0.86902390  0.99924118  0.34742744  1
  H+  H135  1  0.24176448  0.36876872  0.65492702  1
  H+  H136  1  0.10168528  0.45975977  0.14828976  1
  H+  H137  1  0.48259588  0.58885643  0.72689119  1
  H+  H138  1  0.37934247  0.23556796  0.66661322  1
  H+  H139  1  0.34778197  0.93122243  0.76585277  1
  H+  H140  1  0.88893255  0.71543698  0.71621290  1
  H+  H141  1  0.31321807  0.65514743  0.34987159  1
  H+  H142  1  0.62406735  0.62302487  0.33212539  1
  H+  H143  1  0.40244759  0.32710285  0.43435303  1
  H+  H144  1  0.91125090  0.56538510  0.25703042  1
  H+  H145  1  0.11362896  0.75619041  0.83577962  1
  H+  H146  1  0.12977478  0.76477549  0.34337141  1
  H+  H147  1  0.84191146  0.46411869  0.32903887  1
  H+  H148  1  0.58491648  0.41000575  0.43267131  1
  H+  H149  1  0.34460569  0.87497641  0.16270628  1
  H+  H150  1  0.87038754  0.40749263  1.00841584  1
  H+  H151  1  0.79891652  0.66842593  0.74913165  1
  H+  H152  1  0.62327402  0.58287192  0.72423172  1
  H+  H153  1  0.82247614  0.79097988  0.67260496  1
  H+  H154  1  0.12826042  0.51017999  0.51472179  1
  H+  H155  1  0.14342663  -0.02089950  0.96204213  1
  H+  H156  1  0.84790335  0.59335328  0.67751953  1
  H+  H157  1  0.14076427  0.27796270  0.50725441  1
  H+  H158  1  0.34636327  0.73065328  0.67579737  1
  H+  H159  1  0.64226254  0.38658661  0.00589630  1
  H+  H160  1  0.39790090  0.01917130  0.50609383  1
  H+  H161  1  0.23736869  0.10814930  0.17375887  1
  H+  H162  1  0.90372388  0.11769815  0.16923388  1
  H+  H163  1  0.64273068  0.10936075  0.50038723  1
  H+  H164  1  0.70085543  0.60954967  0.93651336  1
  H+  H165  1  0.39592198  0.37500286  0.66657577  1
  H+  H166  1  0.97699830  0.11781553  0.33072540  1
  H+  H167  1  0.21803650  0.10404948  0.33046502  1
  H+  H168  1  0.39105516  0.62516101  0.17211680  1
  H+  H169  1  0.09690745  0.69383219  0.73954092  1
  H+  H170  1  0.92045679  0.81428332  0.98497531  1
  H+  H171  1  0.88191734  0.31560122  0.27242121  1
  H+  H172  1  0.40939415  0.64295246  0.50197682  1
  H+  H173  1  0.67579222  0.89968756  0.80943201  1
  H+  H174  1  0.02769649  0.65836170  0.83514116  1
  H+  H175  1  0.87086165  0.22326077  0.16229472  1
  H+  H176  1  0.08064869  0.26538980  0.11711467  1
  H+  H177  1  0.88738172  0.11955995  0.32862026  1
  H+  H178  1  0.32346634  0.63442450  0.68905869  1
  H+  H179  1  0.88830375  0.68074335  0.14832336  1
  H+  H180  1  0.96567172  0.87749315  0.17457856  1
  H+  H181  1  0.24220807  0.87996465  0.85058837  1
  H+  H182  1  0.14810903  0.60557989  0.51595757  1
  H+  H183  1  0.30724931  0.48826474  0.81406237  1
  H+  H184  1  0.38902693  0.52668547  0.99229090  1
  H+  H185  1  0.81880656  0.70699366  0.84311741  1
  H+  H186  1  0.72937299  0.62006832  0.16180042  1
  H+  H187  1  0.47372218  0.85804410  0.50329459  1
  H+  H188  1  0.62169351  0.91683215  -0.01737649  1
  H+  H189  1  0.94624527  -0.03923339  0.96109161  1
  H+  H190  1  0.74246698  0.84431831  0.05238448  1
  H+  H191  1  0.36382886  0.88743787  1.00873089  1
  H+  H192  1  0.40070607  0.10313199  0.17760105  1
  H+  H193  1  0.13253668  0.35020834  0.99150847  1
  H+  H194  1  0.82590520  0.08544764  -0.06750034  1
  H+  H195  1  0.22519347  0.10525397  0.51568680  1
  H+  H196  1  0.77535674  0.24735342  0.20627132  1
  H+  H197  1  0.28830042  0.15253592  1.01097911  1
  H+  H198  1  0.72965053  0.59821025  0.31612170  1
  H+  H199  1  0.79158815  0.89416682  0.34412854  1
  H+  H200  1  0.13874907  0.48532077  0.69714007  1
  H+  H201  1  0.87196275  0.29311475  1.00601874  1
  H+  H202  1  0.95456454  0.67213815  0.55034647  1
  H+  H203  1  0.65876009  0.62206564  -0.00342882  1
  H+  H204  1  0.85599346  0.22854115  0.34120981  1
  H+  H205  1  0.41783889  0.60530620  0.65564604  1
  H+  H206  1  0.10667837  0.64280529  0.68158037  1
  H+  H207  1  0.75408723  0.88208450  0.48719168  1
  H+  H208  1  0.39118163  0.86330115  0.65868561  1
  H+  H209  1  0.89757080  0.28078958  0.85806360  1
  H+  H210  1  0.83207647  0.16730323  0.43367135  1
  H+  H211  1  0.36970517  0.73159922  1.01341784  1
  H+  H212  1  0.53074828  0.64041575  1.00715191  1
  H+  H213  1  0.99240322  0.14269604  0.66968186  1
  H+  H214  1  0.37960116  -0.02040611  0.67001173  1
  H+  H215  1  0.41455820  0.29912286  0.82376897  1
  H+  H216  1  0.61247967  0.46508321  0.33611147  1
  H+  H217  1  0.83998965  0.76360218  0.45693174  1
  H+  H218  1  0.00926170  0.38304746  0.84771535  1
  H+  H219  1  0.60941088  0.38549484  0.15215815  1
  H+  H220  1  0.47188368  0.36167655  0.35479895  1
  H+  H221  1  1.01327318  0.38507816  0.48788906  1
  H+  H222  1  0.85037168  0.18542328  0.76149911  1
  H+  H223  1  0.23997490  0.62996048  0.18133747  1
  H+  H224  1  0.90664028  0.82504543  0.26627195  1
  H+  H225  1  0.61106359  0.96232145  0.66687704  1
  H+  H226  1  0.48848545  0.11097039  0.66532443  1
  H+  H227  1  0.07978243  0.14410502  0.05787238  1
  H+  H228  1  0.87503789  0.47404673  0.16846622  1
  H+  H229  1  0.01454983  0.73811939  0.76602990  1
  H+  H230  1  0.86252874  0.62005329  0.32428077  1
  H+  H231  1  0.91479232  0.52025123  0.85256855  1
  H+  H232  1  0.00763852  0.62566396  0.16839954  1
  H+  H233  1  0.36539201  0.72614240  0.16510511  1
  H+  H234  1  0.82873169  0.95654360  0.77418395  1
  H+  H235  1  0.13942508  0.86252565  0.50614956  1
  H+  H236  1  0.63941630  0.72889767  0.70733113  1
  H+  H237  1  0.41185788  0.61979203  0.32438216  1
  H+  H238  1  0.86556052  0.35595639  0.33106523  1
  H+  H239  1  0.66972018  0.12287030  0.84096384  1
  H+  H240  1  0.39695725  0.28108358  0.99433989  1
  H+  H241  1  0.62024565  0.35716715  0.51788458  1
  H+  H242  1  1.03566009  0.14849506  0.49859717  1
  H+  H243  1  0.87752036  0.78821837  0.17053585  1
  H+  H244  1  0.13044610  0.51742164  0.86318740  1
  H+  H245  1  0.34024934  0.91607263  0.43644268  1
  H+  H246  1  0.35871554  0.21306931  0.49076641  1
  H+  H247  1  0.36893602  0.01850797  0.98580770  1
  H+  H248  1  0.49605694  0.61126565  0.31787490  1
  H+  H249  1  0.62470167  0.13538456  0.68722147  1
  H+  H250  1  0.58227558  0.91940232  0.42690282  1
  H+  H251  1  0.60041425  0.89742539  0.16425888  1
  H+  H252  1  0.36534128  0.88323610  0.49667113  1
  H+  H253  1  0.14608185  0.46827229  0.14014700  1
  H+  H254  1  0.47423687  0.14512145  0.84169963  1
  H+  H255  1  0.99721148  0.85510946  0.64474735  1
  H+  H256  1  0.85800251  0.92853509  0.50299965  1
  H+  H257  1  0.03979330  0.63699242  0.49958182  1
  H+  H258  1  0.63333488  0.27570839  0.51527511  1
  H+  H259  1  0.89935241  0.05628031  0.67774840  1
  H+  H260  1  0.47782115  0.87588662  -0.00047260  1
  H+  H261  1  0.61733856  0.02831645  0.99644278  1
  H+  H262  1  0.10538197  0.09483855  0.65687976  1
  H+  H263  1  0.12921017  0.23847219  0.67809702  1
  H+  H264  1  0.61575507  0.71734078  0.88206503  1
  H+  H265  1  0.67486979  0.75827516  0.31945232  1
  H+  H266  1  0.38605247  0.48656796  0.66651238  1
  H+  H267  1  0.24601091  0.72214890  0.32186718  1
  H+  H268  1  0.61800278  0.12203506  0.16336260  1
  H+  H269  1  0.97443632  0.97287920  0.56771381  1
  H+  H270  1  0.79617343  0.16241354  0.67281975  1
  H+  H271  1  0.55337781  0.39015391  0.78777464  1
  H+  H272  1  0.11162695  0.63586261  0.34194783  1
  H+  H273  1  0.90380672  0.13011829  0.51327980  1
  H+  H274  1  0.48544830  0.87360031  0.32567266  1
  H+  H275  1  0.42442666  0.58632345  0.82446170  1
  H+  H276  1  0.63126667  0.57567019  0.75662967  1
  H+  H277  1  0.53263870  0.39935521  1.02990248  1
  H+  H278  1  0.62922115  -0.01489831  0.82346209  1
  H+  H279  1  0.98277182  0.62726827  1.00431718  1
  H+  H280  1  0.74279874  0.15651981  1.02329251  1
  H+  H281  1  0.38341625  0.71616479  0.49689102  1
  H+  H282  1  0.35608448  0.74481649  0.83682939  1
  H+  H283  1  0.80168348  0.68010270  0.00327309  1
  H+  H284  1  0.27659918  0.38407871  0.00187357  1
  H+  H285  1  0.63325689  0.51110521  0.50578289  1
  H+  H286  1  0.60814924  0.47301472  0.15079727  1
  H+  H287  1  0.84479869  0.88513702  0.15716334  1
  H+  H288  1  0.06686011  0.33631020  0.08361583  1
  H+  H289  1  0.89479650  0.88584199  0.58703101  1
  H+  H290  1  0.67172295  0.08724182  0.93848488  1
  H+  H291  1  0.11034551  0.45957295  0.01674985  1
  H+  H292  1  0.63163764  0.01356197  0.50031634  1
  H+  H293  1  0.66811558  0.57245052  0.25761651  1
  H+  H294  1  0.84018505  0.42951099  0.07039799  1
  H+  H295  1  0.85988929  0.71016281  0.33192713  1
  H+  H296  1  0.15269261  0.55155962  0.20475931  1
  H+  H297  1  0.86977835  0.57369428  0.17781326  1
  H+  H298  1  0.59768361  0.65702617  0.39200343  1
  H+  H299  1  0.31135000  0.68364720  0.77980130  1
  H+  H300  1  0.10631884  0.42625021  0.75737401  1
  H+  H301  1  0.22370143  0.86442984  1.01823011  1
  H+  H302  1  0.12963613  0.88641739  -0.01852664  1
  H+  H303  1  0.81950005  0.18445699  0.07439467  1
  H+  H304  1  0.63040202  0.75441519  0.49139787  1
  H+  H305  1  0.54633654  0.63815851  0.78284429  1
  H+  H306  1  0.63609265  0.08770304  0.26322303  1
  H+  H307  1  0.31806107  0.38688282  0.09006968  1
  H+  H308  1  0.19534303  0.10487466  0.92935378  1
  H+  H309  1  0.09903910  0.38176371  0.84393051  1
  H+  H310  1  0.07345611  0.91296875  0.40288680  1
  H+  H311  1  0.58763177  0.92110789  0.76554664  1
  H+  H312  1  0.32181347  0.14521623  0.40484099  1
  H+  H313  1  0.23185267  0.44938043  0.76331944  1
  H+  H314  1  0.62963825  0.72048924  0.02076781  1
  H+  H315  1  0.08782578  0.88471196  0.15831019  1
  H+  H316  1  -0.03983693  0.84747376  0.32767803  1
  H+  H317  1  0.09605005  0.17721491  0.73787729  1
  H+  H318  1  0.89118436  0.00652183  0.96459724  1
  H+  H319  1  0.34757905  0.16200521  0.10503442  1
  H+  H320  1  0.88430239  0.38879351  0.84736054  1
  H+  H321  1  0.29675371  0.51008603  0.46806409  1
  H+  H322  1  0.17446540  0.08214947  0.23233285  1
  H+  H323  1  0.67841600  0.07275041  0.59190004  1
  H+  H324  1  1.01236952  0.88214252  0.95447298  1
  H+  H325  1  0.41323502  0.83369851  0.94163903  1
  H+  H326  1  0.58491380  0.15186835  0.78155146  1
  H+  H327  1  0.79653193  0.52066266  0.44294668  1
  H+  H328  1  0.72728079  0.58332207  0.49494791  1
  H+  H329  1  0.73165101  0.38567032  1.00198104  1
  H+  H330  1  0.43979712  0.35839698  0.60882293  1
  H+  H331  1  0.66110010  0.28748981  0.15970381  1
  H+  H332  1  0.45256723  0.57723276  0.58225536  1
  H+  H333  1  0.11209870  0.63175102  0.02023027  1
  H+  H334  1  0.16359466  0.32347529  0.90318453  1
  H+  H335  1  0.43503488  0.08585422  0.60243279  1
  H+  H336  1  0.46332594  0.85702721  0.17427626  1
  H+  H337  1  0.37678950  0.66951233  0.40630953  1
  H+  H338  1  0.33553862  0.92114566  0.06689864  1
  H+  H339  1  0.57562800  0.66296733  0.09897830  1
  H+  H340  1  0.34803567  0.18929936  0.75283199  1
  H+  H341  1  0.52828558  0.06690404  0.19532718  1
  H+  H342  1  0.16775557  0.04450996  0.83322883  1
  H+  H343  1  0.90003289  0.82901800  0.89648991  1
  H+  H344  1  0.68317098  0.65533693  0.84388045  1
  H+  H345  1  0.65336832  0.32592737  0.22468816  1
  H+  H346  1  0.18372861  0.83769538  0.59778920  1
  H+  H347  1  0.07768660  0.66154082  0.07729681  1
  H+  H348  1  0.76314859  0.79986808  0.28437085  1
  H+  H349  1  0.90682247  0.34749730  0.59837157  1
  H+  H350  1  0.57132551  0.93204708  0.05950248  1
  H+  H351  1  0.73409315  0.91821832  0.60503760  1
  H+  H352  1  0.14216973  0.56575493  0.61156910  1
  H+  H353  1  0.69633086  0.85284951  0.99225051  1
  H+  H354  1  0.64543355  0.31794565  0.61642364  1
  H+  H355  1  0.67375699  0.77856338  0.82863756  1
  H+  H356  1  0.32111480  0.43509590  0.39391235  1
  H+  H357  1  0.09745447  0.90115955  0.72560843  1
  H+  H358  1  0.11572527  0.11945123  0.15591820  1
  H+  H359  1  0.42892279  0.59320680  0.23258218  1
  H+  H360  1  0.66719211  0.82984034  0.22631545  1
  H+  H361  1  0.60940430  0.18580924  0.42221549  1
  H+  H362  1  0.69306274  0.55802415  0.59869240  1
  H+  H363  1  0.41516897  0.06973063  0.24134542  1
  H+  H364  1  0.01101741  0.72806663  0.69715664  1
  H+  H365  1  0.21211259  0.64326624  0.27746652  1
  H+  H366  1  0.96875645  0.20559796  0.81399255  1
  H+  H367  1  0.95122564  0.23360555  0.12577861  1
  H+  H368  1  0.40080950  0.88640387  0.84179657  1
  H+  H369  1  0.68199378  0.35445815  0.90980138  1
  H+  H370  1  0.43728574  0.34521974  0.93713984  1
  H+  H371  1  0.16594006  0.33806140  0.56719808  1
  H+  H372  1  0.08474971  0.16889288  0.39848106  1
  H+  H373  1  0.91876473  0.34012010  0.94027622  1
  H+  H374  1  0.65550312  0.81905641  0.54897239  1
  H+  H375  1  0.88664575  0.57608567  0.61872143  1
  H+  H376  1  0.62553277  0.19694687  0.08200171  1
  H+  H377  1  0.93693625  0.11246397  0.57581218  1
  H+  H378  1  0.40791756  0.58388564  0.93299044  1
  H+  H379  1  0.82812125  0.93588923  0.41979819  1
  H+  H380  1  0.36335536  0.87903078  0.34470504  1
  H+  H381  1  0.35977857  0.61889930  0.84518582  1
  H+  H382  1  0.07413817  0.65149441  0.40193443  1
  H+  H383  1  0.41571131  0.82619231  0.56405619  1
  O2-  O384  1  0.08444666  0.14706503  0.13680345  1
  O2-  O385  1  0.09464852  0.17587092  0.47937017  1
  O2-  O386  1  0.09038046  0.16397067  0.82001892  1
  O2-  O387  1  0.05155967  0.29867115  0.12034639  1
  O2-  O388  1  0.07301843  0.41303239  0.47212957  1
  O2-  O389  1  0.07372234  0.41573202  0.82856318  1
  O2-  O390  1  0.06938169  0.66508362  0.15304503  1
  O2-  O391  1  0.09619490  0.66508128  0.47936451  1
  O2-  O392  1  0.07044983  0.70902723  0.80919001  1
  O2-  O393  1  0.05769319  0.91743960  0.14755525  1
  O2-  O394  1  0.08129137  0.91608361  0.48681979  1
  O2-  O395  1  -0.00855177  0.75337487  0.72861688  1
  O2-  O396  1  0.34536972  0.15341495  0.15017796  1
  O2-  O397  1  0.32875098  0.14974327  0.48484869  1
  O2-  O398  1  0.35116164  0.19885619  0.79895739  1
  O2-  O399  1  0.29736184  0.35691086  0.13119913  1
  O2-  O400  1  0.30492268  0.46021779  0.46965384  1
  O2-  O401  1  0.27058563  0.43651253  0.78808646  1
  O2-  O402  1  0.33780239  0.66428805  0.14998137  1
  O2-  O403  1  0.37394804  0.66156070  0.47867579  1
  O2-  O404  1  0.31909450  0.68336277  0.82436246  1
  O2-  O405  1  0.32121215  0.91040946  0.14643560  1
  O2-  O406  1  0.34042435  0.91928390  0.48242006  1
  O2-  O407  1  0.35070485  0.93799458  0.81097001  1
  O2-  O408  1  0.66270700  0.20481801  0.12103178  1
  O2-  O409  1  0.63493528  0.19488887  0.46644429  1
  O2-  O410  1  0.59001869  0.15430704  0.82694349  1
  O2-  O411  1  0.57193030  0.41056148  0.14307364  1
  O2-  O412  1  0.57839611  0.40918369  0.47853179  1
  O2-  O413  1  0.53851371  0.36848321  0.83028325  1
  O2-  O414  1  0.57485942  0.66803432  0.14596019  1
  O2-  O415  1  0.59651787  0.65551465  0.47147871  1
  O2-  O416  1  0.63848811  0.71679568  0.84198184  1
  O2-  O417  1  0.56118890  0.91722741  0.14957315  1
  O2-  O418  1  0.57915519  0.91223664  0.47203916  1
  O2-  O419  1  0.59549113  0.92318349  0.81035030  1
  O2-  O420  1  0.88853219  0.19059463  0.13501471  1
  O2-  O421  1  0.83383732  0.17057737  0.47918476  1
  O2-  O422  1  0.85162722  0.17748089  0.80750824  1
  O2-  O423  1  0.83712917  0.41275860  0.14960620  1
  O2-  O424  1  0.81940394  0.42569732  0.50076765  1
  O2-  O425  1  0.85911892  0.42308803  0.82850613  1
  O2-  O426  1  0.84094542  0.68880336  0.13547060  1
  O2-  O427  1  0.80910633  0.57933996  0.45158323  1
  O2-  O428  1  0.78523401  0.64576562  0.82543985  1
  O2-  O429  1  0.81129742  0.91102189  0.13938924  1
  O2-  O430  1  0.81334383  0.93014768  0.47652289  1
  O2-  O431  1  0.79950188  0.93712699  0.81841224  1
  O2-  O432  1  0.17609713  0.08343552  0.18702843  1
  O2-  O433  1  0.16237478  0.07856568  0.52270692  1
  O2-  O434  1  0.19297539  0.10381561  0.84702590  1
  O2-  O435  1  0.24844166  0.26891217  0.10817744  1
  O2-  O436  1  0.16263248  0.33844423  0.52170214  1
  O2-  O437  1  0.15120438  0.31650571  0.85806394  1
  O2-  O438  1  0.18664016  0.61418335  0.20585419  1
  O2-  O439  1  0.16056822  0.56505628  0.53766883  1
  O2-  O440  1  0.16044741  0.57411456  0.88432762  1
  O2-  O441  1  0.14360937  0.83862429  0.18230142  1
  O2-  O442  1  0.17088429  0.83207738  0.51797908  1
  O2-  O443  1  0.18805445  0.84239204  0.87211377  1
  O2-  O444  1  0.42287478  0.06713268  0.19666989  1
  O2-  O445  1  0.42883302  0.08055424  0.52203811  1
  O2-  O446  1  0.41214677  0.10562526  0.84265801  1
  O2-  O447  1  0.41183788  0.31362851  0.19416885  1
  O2-  O448  1  0.40334930  0.32474978  0.48141822  1
  O2-  O449  1  0.45371533  0.35885612  0.84004576  1
  O2-  O450  1  0.42680868  0.59712529  0.18592737  1
  O2-  O451  1  0.45264794  0.58336862  0.53429820  1
  O2-  O452  1  0.37787771  0.57586288  0.85493190  1
  O2-  O453  1  0.40305344  0.82080614  0.19110577  1
  O2-  O454  1  0.41350567  0.82546439  0.51854720  1
  O2-  O455  1  0.42331316  0.84910924  0.85751055  1
  O2-  O456  1  0.58580528  0.07204931  0.19292456  1
  O2-  O457  1  0.66443303  0.07289260  0.51838342  1
  O2-  O458  1  0.69114579  0.08358357  0.85204255  1
  O2-  O459  1  0.67037988  0.34088188  0.18071907  1
  O2-  O460  1  0.65006359  0.32926384  0.53836926  1
  O2-  O461  1  0.69104424  0.34787396  0.86560625  1
  O2-  O462  1  0.67046861  0.58616205  0.17875915  1
  O2-  O463  1  0.67488217  0.57182879  0.51791541  1
  O2-  O464  1  0.69950592  0.61020014  0.85202660  1
  O2-  O465  1  0.65537751  0.83461967  0.18307353  1
  O2-  O466  1  0.65214935  0.81642625  0.50370774  1
  O2-  O467  1  0.71293343  0.87445443  0.79815419  1
  O2-  O468  1  0.92146133  0.07621467  0.18532036  1
  O2-  O469  1  0.93989172  0.10841740  0.53079238  1
  O2-  O470  1  0.91553602  0.14986915  0.81413804  1
  O2-  O471  1  0.83716086  0.28498138  0.20172717  1
  O2-  O472  1  0.90610365  0.33708813  0.52090661  1
  O2-  O473  1  0.92837479  0.33835430  0.87528186  1
  O2-  O474  1  0.91532240  0.56385979  0.19207494  1
  O2-  O475  1  0.92843985  0.61286970  0.53622286  1
  O2-  O476  1  0.95022643  0.58219672  0.86666425  1
  O2-  O477  1  0.90310457  0.84561334  0.19038422  1
  O2-  O478  1  0.92951622  0.91840288  0.55072246  1
  O2-  O479  1  0.86305704  0.80251677  0.85874042  1
  O2-  O480  1  0.15912477  0.07463133  0.31279590  1
  O2-  O481  1  0.10336739  0.04699270  0.63304056  1
  O2-  O482  1  0.18842045  0.09259329  0.97358168  1
  O2-  O483  1  0.15486860  0.32039041  0.30738527  1
  O2-  O484  1  0.17822963  0.33835978  0.64569366  1
  O2-  O485  1  0.16743850  0.32358155  0.97745460  1
  O2-  O486  1  0.22350521  0.66027288  0.32164807  1
  O2-  O487  1  0.14042564  0.57192768  0.65725233  1
  O2-  O488  1  0.16291967  0.57164021  1.00245343  1
  O2-  O489  1  0.17008214  0.82722205  0.33914952  1
  O2-  O490  1  0.19266683  0.84347716  0.64263747  1
  O2-  O491  1  0.16110530  0.84050607  1.02530537  1
  O2-  O492  1  0.41418369  0.07463169  0.32144283  1
  O2-  O493  1  0.42986736  0.08420204  0.64755234  1
  O2-  O494  1  0.38883255  0.07761308  0.97052676  1
  O2-  O495  1  0.40870601  0.32887348  0.36436626  1
  O2-  O496  1  0.43160550  0.34737777  0.65236233  1
  O2-  O497  1  0.42422567  0.34285510  0.98074252  1
  O2-  O498  1  0.43536131  0.58597905  0.30303057  1
  O2-  O499  1  0.44497855  0.57078600  0.64998307  1
  O2-  O500  1  0.41931407  0.58749744  0.97777077  1
  O2-  O501  1  0.42403970  0.83349320  0.31567946  1
  O2-  O502  1  0.41224594  0.82376851  0.64305585  1
  O2-  O503  1  0.41308048  0.83157596  0.98660962  1
  O2-  O504  1  0.65579910  0.09334975  0.30662391  1
  O2-  O505  1  0.69272113  0.06737840  0.63581744  1
  O2-  O506  1  0.65695630  0.09181631  0.98086316  1
  O2-  O507  1  0.60726219  0.30009646  0.29592506  1
  O2-  O508  1  0.65115523  0.31579116  0.66160328  1
  O2-  O509  1  0.67143139  0.35643306  0.98650647  1
  O2-  O510  1  0.66751361  0.56890498  0.30310452  1
  O2-  O511  1  0.70559913  0.54530615  0.64013439  1
  O2-  O512  1  0.70787538  0.61801006  0.98090270  1
  O2-  O513  1  0.71980998  0.81318524  0.29938988  1
  O2-  O514  1  0.69383538  0.86162652  0.62133868  1
  O2-  O515  1  0.66434450  0.90516635  0.95582662  1
  O2-  O516  1  0.91531671  0.08578357  0.31607055  1
  O2-  O517  1  0.93108752  0.11548563  0.65557815  1
  O2-  O518  1  0.94925980  0.01767279  0.95733271  1
  O2-  O519  1  0.89717348  0.32598534  0.31655935  1
  O2-  O520  1  0.90782843  0.35498451  0.64362680  1
  O2-  O521  1  0.91722850  0.34805345  0.98832495  1
  O2-  O522  1  0.90495601  0.56570350  0.30547325  1
  O2-  O523  1  0.88038369  0.56611955  0.66290588  1
  O2-  O524  1  0.92269326  0.60610592  0.98940293  1
  O2-  O525  1  0.90130019  0.81204389  0.31092695  1
  O2-  O526  1  0.82334883  0.83898208  0.65006039  1
  O2-  O527  1  0.94941790  0.86542147  0.95752253  1
  O2-  O528  1  0.08451790  0.15127713  0.01269397  1
  O2-  O529  1  0.07914011  0.16384063  0.35324916  1
  O2-  O530  1  0.09347351  0.17771894  0.69286327  1
  O2-  O531  1  0.07805953  0.39543942  0.01914601  1
  O2-  O532  1  0.07651346  0.41453186  0.33753207  1
  O2-  O533  1  0.14314553  0.43936559  0.71954915  1
  O2-  O534  1  0.08253726  0.66421428  0.03177027  1
  O2-  O535  1  0.06794144  0.64953313  0.35667746  1
  O2-  O536  1  0.10016347  0.69256314  0.69384196  1
  O2-  O537  1  0.11457738  0.91798063  -0.05101611  1
  O2-  O538  1  0.07182623  0.90797132  0.35789046  1
  O2-  O539  1  0.14725717  0.94724979  0.70468398  1
  O2-  O540  1  0.34904682  0.18135928  0.02514445  1
  O2-  O541  1  0.32385089  0.15193469  0.35965959  1
  O2-  O542  1  0.34711966  0.17606354  0.68262527  1
  O2-  O543  1  0.33599161  0.41763851  0.01856468  1
  O2-  O544  1  0.33090538  0.42214466  0.35151390  1
  O2-  O545  1  0.34356084  0.41953400  0.68017431  1
  O2-  O546  1  0.34180431  0.67136956  0.03088084  1
  O2-  O547  1  0.37411243  0.67407515  0.36015049  1
  O2-  O548  1  0.30493190  0.67569777  0.69764268  1
  O2-  O549  1  0.33485573  0.92028989  0.02149710  1
  O2-  O550  1  0.33496776  0.90978360  0.36186856  1
  O2-  O551  1  0.35070441  0.91916200  0.68569303  1
  O2-  O552  1  0.58773958  0.18927471  0.02044547  1
  O2-  O553  1  0.58206025  0.17341293  0.35711666  1
  O2-  O554  1  0.58892010  0.15768135  0.70303633  1
  O2-  O555  1  0.59458762  0.43373113  0.04000521  1
  O2-  O556  1  0.58110184  0.40834203  0.35705918  1
  O2-  O557  1  0.58637213  0.40644231  0.70520892  1
  O2-  O558  1  0.58465686  0.65825273  0.03006862  1
  O2-  O559  1  0.59998725  0.66035258  0.34646442  1
  O2-  O560  1  0.48950585  0.59057781  0.77208528  1
  O2-  O561  1  0.56544802  0.93736394  0.01563516  1
  O2-  O562  1  0.59269716  0.93838912  0.34863964  1
  O2-  O563  1  0.57999455  0.90346933  0.68407454  1
  O2-  O564  1  0.78735078  0.20455782  0.04897318  1
  O2-  O565  1  0.82773697  0.16574691  0.35418999  1
  O2-  O566  1  0.85453140  0.19580035  0.68950602  1
  O2-  O567  1  0.83980587  0.43693158  0.02544223  1
  O2-  O568  1  0.80807730  0.40402501  0.34569907  1
  O2-  O569  1  0.81495829  0.40601886  0.68643137  1
  O2-  O570  1  0.86284476  0.71259243  0.01991757  1
  O2-  O571  1  0.82933821  0.64704474  0.34307106  1
  O2-  O572  1  0.82491113  0.68818109  0.70777143  1
  O2-  O573  1  0.71274085  0.81375940  0.01541586  1
  O2-  O574  1  0.84053213  0.93947459  0.36839851  1
  O2-  O575  1  0.84613327  0.97104593  0.70997156  1
