# generated using pymatgen
data_H2O
_symmetry_space_group_name_H-M   'P 1'
_cell_length_a   17.98813256
_cell_length_b   17.98872130
_cell_length_c   21.98686546
_cell_angle_alpha   90.00392206
_cell_angle_beta   89.97298669
_cell_angle_gamma   120.02568659
_symmetry_Int_Tables_number   1
_chemical_formula_structural   H2O
_chemical_formula_sum   'H384 O192'
_cell_volume   6159.81682751
_cell_formula_units_Z   192
loop_
 _symmetry_equiv_pos_site_id
 _symmetry_equiv_pos_as_xyz
  1  'x, y, z'
loop_
 _atom_type_symbol
 _atom_type_oxidation_number
  H+  1.0
  O2-  -2.0
loop_
 _atom_site_type_symbol
 _atom_site_label
 _atom_site_symmetry_multiplicity
 _atom_site_fract_x
 _atom_site_fract_y
 _atom_site_fract_z
 _atom_site_occupancy
  H+  H0  1  0.08904422  0.15554021  0.49910972  1
  H+  H1  1  0.88934858  0.87643791  0.32062000  1
  H+  H2  1  0.88472008  0.76294001  0.17108698  1
  H+  H3  1  1.02202338  0.13828716  0.66446265  1
  H+  H4  1  0.62544471  0.73868578  0.82498653  1
  H+  H5  1  0.51514216  0.12942484  0.49724039  1
  H+  H6  1  0.60596733  0.46848771  0.15938897  1
  H+  H7  1  0.39041522  0.52345552  0.60187946  1
  H+  H8  1  0.37261995  0.89301946  0.82717878  1
  H+  H9  1  0.36783089  0.64115390  0.15966012  1
  H+  H10  1  0.88375443  0.60971597  0.99867313  1
  H+  H11  1  0.14649552  0.52666652  0.17391704  1
  H+  H12  1  0.63314560  0.26738840  0.66095193  1
  H+  H13  1  0.71174940  0.10757101  0.50187735  1
  H+  H14  1  0.88512953  0.89658684  0.15027164  1
  H+  H15  1  0.61272452  0.76368123  0.17897891  1
  H+  H16  1  0.61512994  0.48013000  0.67188893  1
  H+  H17  1  0.64834082  0.24985832  0.17131003  1
  H+  H18  1  0.61601988  0.22128160  0.34225276  1
  H+  H19  1  0.88980071  0.54648977  0.85378730  1
  H+  H20  1  0.95971960  0.47169727  0.10785969  1
  H+  H21  1  0.22808494  0.60991234  0.84157758  1
  H+  H22  1  0.57610738  0.91987510  0.42073976  1
  H+  H23  1  0.11983218  0.90175086  0.33688670  1
  H+  H24  1  -0.00128920  0.36691506  0.17727653  1
  H+  H25  1  0.85576773  0.73538524  0.67698696  1
  H+  H26  1  0.14441763  0.85691745  0.65140807  1
  H+  H27  1  0.85880938  0.62226049  0.16073070  1
  H+  H28  1  0.23891432  0.37482794  0.16923511  1
  H+  H29  1  0.98201058  0.88501838  0.32054412  1
  H+  H30  1  0.85275560  0.97304889  0.34484704  1
  H+  H31  1  0.90596606  0.32795978  0.68383538  1
  H+  H32  1  0.23910118  0.11066008  1.00927696  1
  H+  H33  1  0.52245051  0.12877941  0.67038901  1
  H+  H34  1  1.03462926  0.42050598  0.50907666  1
  H+  H35  1  0.60348030  0.22013416  0.49625176  1
  H+  H36  1  0.13874908  0.07440723  0.50395673  1
  H+  H37  1  0.14111164  0.27554354  0.65675379  1
  H+  H38  1  0.63722835  0.10984826  0.33119170  1
  H+  H39  1  0.47738791  0.62722171  0.84400933  1
  H+  H40  1  0.90947911  0.07286664  0.58293323  1
  H+  H41  1  0.72133483  0.60786047  0.50999358  1
  H+  H42  1  0.12434247  0.14339516  0.16244271  1
  H+  H43  1  0.02091877  0.63383812  0.01482541  1
  H+  H44  1  0.34942248  0.18254568  0.06892973  1
  H+  H45  1  0.86011361  0.72018576  0.00960237  1
  H+  H46  1  0.51435446  0.88268443  0.48896648  1
  H+  H47  1  0.24474639  0.90440897  0.02004811  1
  H+  H48  1  0.91628787  0.83187543  0.22644389  1
  H+  H49  1  0.28436900  0.38988105  0.65396882  1
  H+  H50  1  0.76906450  0.41096785  0.81172523  1
  H+  H51  1  0.87526173  0.41906988  0.61642303  1
  H+  H52  1  0.38159855  0.28240142  0.17380973  1
  H+  H53  1  0.11586609  0.23052952  0.33976204  1
  H+  H54  1  0.39041460  1.03552962  0.83674749  1
  H+  H55  1  0.02796471  0.99197687  0.72628163  1
  H+  H56  1  0.13539168  0.50081390  0.32598772  1
  H+  H57  1  0.38857198  0.75860105  0.31861712  1
  H+  H58  1  0.27736134  0.38195436  1.00417328  1
  H+  H59  1  0.39065256  0.86666271  0.65609910  1
  H+  H60  1  0.98416581  0.61639740  0.83776964  1
  H+  H61  1  0.61854746  0.89617708  0.00760128  1
  H+  H62  1  0.35657107  0.37578912  0.81127077  1
  H+  H63  1  0.62167857  0.10530379  0.50673057  1
  H+  H64  1  0.14283511  0.12235425  0.32849300  1
  H+  H65  1  0.11699158  0.70038243  0.32475869  1
  H+  H66  1  0.72181569  0.35614125  0.64997661  1
  H+  H67  1  0.72602437  0.35229430  0.32792200  1
  H+  H68  1  0.62737372  0.10684513  0.81134808  1
  H+  H69  1  0.51413178  0.12451128  -0.00692781  1
  H+  H70  1  0.02709639  0.64175360  0.66620725  1
  H+  H71  1  0.76129657  0.88700252  0.33792507  1
  H+  H72  1  0.60338554  0.21129498  1.00338001  1
  H+  H73  1  0.47738882  0.87382310  0.16793111  1
  H+  H74  1  0.33055965  0.17090491  0.76552894  1
  H+  H75  1  0.85500679  0.62459096  0.34641767  1
  H+  H76  1  0.54771650  0.78986905  -0.04008093  1
  H+  H77  1  0.63745363  0.53936097  0.84119093  1
  H+  H78  1  0.93706487  1.04060407  0.82583406  1
  H+  H79  1  0.12145201  0.99066142  0.34112566  1
  H+  H80  1  0.37363273  0.88589422  0.49163151  1
  H+  H81  1  0.27338556  0.63757619  0.67395683  1
  H+  H82  1  0.39360954  0.52006096  0.99372115  1
  H+  H83  1  0.28609229  0.13861050  0.49658773  1
  H+  H84  1  0.86173243  0.11325046  0.66211190  1
  H+  H85  1  0.16843731  0.56555420  0.26858447  1
  H+  H86  1  0.88157018  0.51031765  0.33177124  1
  H+  H87  1  0.38449564  0.27194092  0.84069025  1
  H+  H88  1  0.36598040  0.23546532  0.34059718  1
  H+  H89  1  -0.02806343  0.59666000  0.32902747  1
  H+  H90  1  0.21269931  0.11293488  0.83216132  1
  H+  H91  1  0.39741893  0.76886235  0.50334121  1
  H+  H92  1  0.60859223  0.88578004  0.34173261  1
  H+  H93  1  0.39613073  0.04294456  0.17596362  1
  H+  H94  1  1.02692464  0.88568298  0.83472591  1
  H+  H95  1  0.11526960  0.88544055  0.17128065  1
  H+  H96  1  0.39445407  0.12861267  0.32795203  1
  H+  H97  1  0.27576285  0.61933879  0.34336326  1
  H+  H98  1  0.62513950  0.42044767  0.82227970  1
  H+  H99  1  0.09857506  0.60320566  0.82227047  1
  H+  H100  1  0.62937317  0.77907421  0.33148840  1
  H+  H101  1  0.87226195  0.88821117  0.83829751  1
  H+  H102  1  0.61182775  0.38855055  0.67361992  1
  H+  H103  1  0.37163974  0.03377864  0.99490550  1
  H+  H104  1  0.61306226  0.12790558  0.66438683  1
  H+  H105  1  0.60433681  -0.01903144  0.48840471  1
  H+  H106  1  0.14019086  0.51936160  0.65573218  1
  H+  H107  1  0.87950207  0.21572664  0.81888325  1
  H+  H108  1  0.28987152  0.63945077  0.49434755  1
  H+  H109  1  0.06440901  0.93406001  0.74934813  1
  H+  H110  1  0.28191026  0.88852236  0.67432667  1
  H+  H111  1  0.88880965  0.23195694  0.17147091  1
  H+  H112  1  0.12761794  0.39363709  0.15823496  1
  H+  H113  1  0.91205122  0.36769628  0.17278908  1
  H+  H114  1  0.64252914  0.86199835  0.83675755  1
  H+  H115  1  0.12837064  0.28703677  0.50044257  1
  H+  H116  1  0.86281889  0.01593307  0.49796370  1
  H+  H117  1  0.86067964  0.22569634  0.34001013  1
  H+  H118  1  0.04570884  0.14039503  0.00368769  1
  H+  H119  1  0.37014712  0.48911800  0.15581399  1
  H+  H120  1  0.88904402  0.11432450  0.33642533  1
  H+  H121  1  0.89705593  0.24341623  0.65884952  1
  H+  H122  1  0.15097131  0.37019292  0.32666955  1
  H+  H123  1  0.36901970  0.15018613  0.16315417  1
  H+  H124  1  0.94913392  0.11008103  0.49407207  1
  H+  H125  1  0.06455192  0.16090856  0.73129934  1
  H+  H126  1  0.99273673  0.62593897  0.50031672  1
  H+  H127  1  -0.00370271  0.11977649  0.18803396  1
  H+  H128  1  0.68539460  0.15439859  0.19587493  1
  H+  H129  1  0.37328857  0.23001334  0.49468214  1
  H+  H130  1  0.89255269  0.98754789  0.15962899  1
  H+  H131  1  0.02373425  0.88065847  0.16665610  1
  H+  H132  1  0.63600864  0.34893187  0.32077438  1
  H+  H133  1  0.42338143  0.33841679  0.93503517  1
  H+  H134  1  0.53112310  0.23615169  0.85728212  1
  H+  H135  1  0.28356020  0.89345679  0.82865788  1
  H+  H136  1  0.27774487  0.14529579  0.15930593  1
  H+  H137  1  0.90028469  0.01188979  0.63911999  1
  H+  H138  1  0.38825005  0.77330625  0.83279993  1
  H+  H139  1  0.27710639  0.38797914  0.49383759  1
  H+  H140  1  0.38971501  1.02399506  0.66503359  1
  H+  H141  1  0.74330637  0.10351687  0.82844775  1
  H+  H142  1  0.68278340  0.71173641  0.37290363  1
  H+  H143  1  0.37487331  0.23933898  1.00730301  1
  H+  H144  1  1.03992186  0.37778763  0.67526118  1
  H+  H145  1  0.12685222  0.72697836  0.48893504  1
  H+  H146  1  0.46982171  0.85191285  0.32097588  1
  H+  H147  1  0.84248968  0.41344351  0.05344346  1
  H+  H148  1  0.35409175  0.13788043  0.82587737  1
  H+  H149  1  0.73052190  0.62443045  0.84450010  1
  H+  H150  1  0.76983377  0.63125949  0.00865395  1
  H+  H151  1  0.38908974  0.36519076  0.64977849  1
  H+  H152  1  0.95845728  0.10463840  0.91808499  1
  H+  H153  1  0.80878922  0.12100529  0.02761942  1
  H+  H154  1  0.47292260  0.36354666  0.83959992  1
  H+  H155  1  0.78594654  0.89445101  0.84067658  1
  H+  H156  1  0.14076738  0.02532504  0.17536190  1
  H+  H157  1  0.52117591  0.37741538  0.33602064  1
  H+  H158  1  0.36807404  0.47783584  0.34201643  1
  H+  H159  1  0.99719301  0.34928702  0.83954286  1
  H+  H160  1  0.63022844  0.50560878  0.32338424  1
  H+  H161  1  0.86157117  0.42624985  0.86166413  1
  H+  H162  1  0.62924346  0.60250696  0.51094970  1
  H+  H163  1  0.38831922  0.11087855  0.50901878  1
  H+  H164  1  0.71850753  0.35610114  0.98944410  1
  H+  H165  1  0.51552383  0.20017758  0.15236457  1
  H+  H166  1  0.23329023  0.86862988  0.18456705  1
  H+  H167  1  0.62470395  0.30093118  0.82971971  1
  H+  H168  1  0.59480116  0.93770751  0.10438854  1
  H+  H169  1  0.38898271  0.36760936  0.32883547  1
  H+  H170  1  0.12103229  0.63906043  0.16925368  1
  H+  H171  1  0.36779727  0.22923714  0.66816167  1
  H+  H172  1  0.86114845  0.64473863  0.49494623  1
  H+  H173  1  0.27815133  0.14134347  0.66973262  1
  H+  H174  1  0.71225344  0.84579119  0.51016640  1
  H+  H175  1  0.72307623  0.13756049  0.97162465  1
  H+  H176  1  0.63336901  0.52503863  0.00036401  1
  H+  H177  1  0.11633561  0.24609819  0.83614602  1
  H+  H178  1  0.76427053  0.61797706  0.34160956  1
  H+  H179  1  0.16310458  0.31206466  0.89249217  1
  H+  H180  1  0.14904154  0.80941556  0.36172127  1
  H+  H181  1  0.62321029  0.64735006  0.83012187  1
  H+  H182  1  0.59920634  0.66512126  0.41284551  1
  H+  H183  1  0.14115224  0.38054914  0.50870328  1
  H+  H184  1  0.12959717  0.60505800  0.99503225  1
  H+  H185  1  0.17809343  0.82803453  0.59416663  1
  H+  H186  1  0.62704596  -0.01105375  1.00170570  1
  H+  H187  1  0.80740476  0.96764565  0.70342635  1
  H+  H188  1  0.90921653  0.34955692  0.84203387  1
  H+  H189  1  0.14591753  0.51468358  0.84341294  1
  H+  H190  1  0.75208695  0.33124497  0.49237949  1
  H+  H191  1  0.14685601  0.27197756  0.99282486  1
  H+  H192  1  0.77150070  0.13519508  0.34143292  1
  H+  H193  1  1.02648416  0.38072881  1.00720156  1
  H+  H194  1  0.48175074  0.61133891  0.32362465  1
  H+  H195  1  0.23332739  0.12472679  0.32864183  1
  H+  H196  1  0.86162211  0.47038332  0.99551238  1
  H+  H197  1  0.40334491  0.75825226  0.98655969  1
  H+  H198  1  0.87832729  0.22007711  1.01221762  1
  H+  H199  1  0.11412514  0.96959660  0.01960254  1
  H+  H200  1  0.48369724  0.37103077  -0.00441146  1
  H+  H201  1  0.36971598  0.97344803  0.49814908  1
  H+  H202  1  0.60472452  0.75703238  -0.00737008  1
  H+  H203  1  0.92663402  0.33550683  0.26809309  1
  H+  H204  1  0.90184698  0.48911945  0.15178141  1
  H+  H205  1  0.38800621  0.89594146  1.01438568  1
  H+  H206  1  0.82130479  0.66085806  0.43551138  1
  H+  H207  1  0.56547422  0.30143084  0.14270202  1
  H+  H208  1  0.90311525  0.53985748  0.50466836  1
  H+  H209  1  0.13664349  0.96068818  0.49626965  1
  H+  H210  1  0.86075029  0.93396612  1.05658399  1
  H+  H211  1  0.92146928  0.12345398  -0.02041345  1
  H+  H212  1  0.12119942  0.72246803  0.67018267  1
  H+  H213  1  0.62489115  0.11387623  -0.02497370  1
  H+  H214  1  0.41377999  0.33840040  0.26657143  1
  H+  H215  1  0.61499343  0.62975992  0.67973407  1
  H+  H216  1  0.87989042  0.43441178  0.82935857  1
  H+  H217  1  0.13170776  0.03682384  0.66724842  1
  H+  H218  1  0.89023153  -0.01863751  0.99281936  1
  H+  H219  1  0.84727992  0.88512108  0.49619693  1
  H+  H220  1  0.39118426  0.11492794  0.66325789  1
  H+  H221  1  0.13301885  0.39111235  0.67298852  1
  H+  H222  1  0.87104829  0.65070166  0.82976965  1
  H+  H223  1  0.86837053  0.77579516  0.50936505  1
  H+  H224  1  0.60753077  0.71880918  0.67950091  1
  H+  H225  1  0.62152047  0.85869160  0.18114749  1
  H+  H226  1  0.39257552  0.60963301  0.32811138  1
  H+  H227  1  0.86081251  0.37726365  0.33809822  1
  H+  H228  1  0.48152516  0.12283293  0.32868781  1
  H+  H229  1  0.36701710  0.38334159  1.00816705  1
  H+  H230  1  0.95776726  0.87784904  0.67151562  1
  H+  H231  1  0.63370491  0.59637727  0.32589050  1
  H+  H232  1  0.62028242  -0.00639808  0.16526009  1
  H+  H233  1  0.60206163  0.64543131  0.16096686  1
  H+  H234  1  0.24149469  0.88235825  0.33719914  1
  H+  H235  1  0.72568396  0.61703738  0.66165378  1
  H+  H236  1  0.52580898  0.38494468  0.48970619  1
  H+  H237  1  0.72481006  0.10166962  0.65383436  1
  H+  H238  1  0.36675955  0.89847900  0.16248472  1
  H+  H239  1  0.84182592  0.14252106  0.49500486  1
  H+  H240  1  0.61435912  0.64507657  1.01985568  1
  H+  H241  1  0.12104591  0.72825925  0.16942446  1
  H+  H242  1  0.65511022  0.32704788  0.56425222  1
  H+  H243  1  0.86439777  0.86382670  0.66816761  1
  H+  H244  1  0.61143250  0.97790536  0.34099813  1
  H+  H245  1  0.60659309  0.71090822  0.50177557  1
  H+  H246  1  0.35939854  0.72673502  0.67416175  1
  H+  H247  1  0.23502628  0.61665633  0.17901235  1
  H+  H248  1  0.71951341  0.59852908  0.16966682  1
  H+  H249  1  0.23750342  0.36698479  0.32842509  1
  H+  H250  1  0.36295249  0.64366370  0.83112262  1
  H+  H251  1  0.36512528  0.88336234  -0.01570283  1
  H+  H252  1  0.36538999  -0.00482397  0.34090384  1
  H+  H253  1  0.97366047  0.36172087  0.33320412  1
  H+  H254  1  0.47943920  0.61054169  -0.00079311  1
  H+  H255  1  0.34035141  0.91879738  0.73501548  1
  H+  H256  1  0.48796477  0.85136680  0.98784085  1
  H+  H257  1  0.51567164  0.62024711  0.49723391  1
  H+  H258  1  0.58320110  0.17016426  0.82257863  1
  H+  H259  1  0.62108778  0.84485633  0.66459348  1
  H+  H260  1  0.74912101  0.11926919  0.18542879  1
  H+  H261  1  0.26830370  0.65113234  0.00898563  1
  H+  H262  1  0.70855682  0.84419779  0.67384363  1
  H+  H263  1  0.61195934  0.96670652  0.66902128  1
  H+  H264  1  0.88956337  0.37676259  0.52549373  1
  H+  H265  1  0.88990669  0.77870003  0.84675750  1
  H+  H266  1  0.12910928  0.49901054  0.49719035  1
  H+  H267  1  0.47589788  0.86017648  0.65597502  1
  H+  H268  1  0.24029825  0.85526066  0.50485946  1
  H+  H269  1  0.60917617  0.38797133  1.01282825  1
  H+  H270  1  0.15288059  0.62295374  0.50370836  1
  H+  H271  1  0.14433465  0.35940105  -0.01187112  1
  H+  H272  1  0.12245563  0.85299342  0.99860701  1
  H+  H273  1  0.88806477  0.54404196  0.64707649  1
  H+  H274  1  0.88994743  0.86202378  -0.00415674  1
  H+  H275  1  0.11319095  -0.02221997  0.82926976  1
  H+  H276  1  0.39007711  0.36279770  0.50355422  1
  H+  H277  1  -0.01727307  0.61498612  0.18048043  1
  H+  H278  1  0.13402779  0.77025834  0.99853778  1
  H+  H279  1  0.36557268  0.73024605  0.16055592  1
  H+  H280  1  0.16833009  0.33432485  0.59601373  1
  H+  H281  1  0.90704171  0.11728736  0.18880970  1
  H+  H282  1  0.15010009  0.85372373  0.50086163  1
  H+  H283  1  -0.07508081  0.08447005  0.27964627  1
  H+  H284  1  0.86400145  0.42367469  0.68799994  1
  H+  H285  1  0.14916184  0.87011635  0.83998475  1
  H+  H286  1  0.63463011  0.36031803  0.50203372  1
  H+  H287  1  0.12564976  0.23381566  0.16163068  1
  H+  H288  1  0.42537144  0.10356397  0.23392161  1
  H+  H289  1  0.09274410  0.41954161  0.09901467  1
  H+  H290  1  0.41590146  0.08059225  0.57014498  1
  H+  H291  1  0.65436089  0.82402402  0.89919143  1
  H+  H292  1  0.86435778  0.65137467  0.67152642  1
  H+  H293  1  0.33680582  0.41882260  0.40282182  1
  H+  H294  1  0.47718052  0.36389969  0.65707111  1
  H+  H295  1  0.14992421  0.10790644  1.01147184  1
  H+  H296  1  0.41971572  0.58487001  0.22344437  1
  H+  H297  1  0.79596171  0.27609707  0.47314677  1
  H+  H298  1  0.17150812  0.83301161  0.24238624  1
  H+  H299  1  0.66344144  0.58328327  0.60239891  1
  H+  H300  1  0.61479036  0.47325659  0.49194124  1
  H+  H301  1  0.32416835  0.93370466  0.11289182  1
  H+  H302  1  0.57869915  0.67480049  0.07956032  1
  H+  H303  1  0.83500964  0.67483967  0.77021819  1
  H+  H304  1  0.42320327  0.83117492  0.56250044  1
  H+  H305  1  0.34468661  0.42152417  0.71021052  1
  H+  H306  1  0.92720251  0.59675408  0.93956177  1
  H+  H307  1  0.14143257  0.12745109  0.65865212  1
  H+  H308  1  0.38129098  0.37259838  0.17344606  1
  H+  H309  1  0.17891193  0.59001538  0.56446610  1
  H+  H310  1  0.86671080  0.17028553  0.11430487  1
  H+  H311  1  0.67799516  0.08199448  0.88620539  1
  H+  H312  1  0.83837105  0.14590668  0.72424573  1
  H+  H313  1  0.52288072  0.87781451  0.82191885  1
  H+  H314  1  0.04928095  0.32803871  0.38081936  1
  H+  H315  1  0.82348584  0.38742941  0.40051899  1
  H+  H316  1  0.72038328  0.41800080  0.75427296  1
  H+  H317  1  0.13400610  0.60569121  0.65467729  1
  H+  H318  1  0.65723826  0.80974913  0.57102055  1
  H+  H319  1  0.11305293  0.47242948  0.00479829  1
  H+  H320  1  0.33654000  0.42173318  0.09871465  1
  H+  H321  1  0.33978233  0.65705899  0.40084125  1
  H+  H322  1  0.88349353  0.35030678  0.98773422  1
  H+  H323  1  0.17341060  0.08865385  0.23268379  1
  H+  H324  1  0.68528021  0.26946184  0.23731108  1
  H+  H325  1  0.91522366  0.57144781  0.23529022  1
  H+  H326  1  0.42043431  0.59420797  0.90385265  1
  H+  H327  1  0.26520610  0.36465431  0.80381640  1
  H+  H328  1  0.25834352  0.98666010  0.05417090  1
  H+  H329  1  0.81745838  0.16789871  0.43260228  1
  H+  H330  1  0.66138068  0.07347770  0.59598132  1
  H+  H331  1  0.10101687  0.91489394  0.43255193  1
  H+  H332  1  0.82363213  0.91358109  0.75285320  1
  H+  H333  1  0.57506965  0.41770618  0.07062314  1
  H+  H334  1  0.58088392  0.16091697  0.40212272  1
  H+  H335  1  0.32584899  0.68231371  0.06873637  1
  H+  H336  1  0.64719167  0.82944302  0.26620025  1
  H+  H337  1  0.09359519  0.66378964  0.42968647  1
  H+  H338  1  0.16191674  0.57701009  0.93529004  1
  H+  H339  1  0.07859280  0.41304055  0.41703541  1
  H+  H340  1  0.42251536  0.33431033  0.56248965  1
  H+  H341  1  0.88957707  0.13389252  0.81243306  1
  H+  H342  1  0.34106242  0.93301793  0.39985308  1
  H+  H343  1  0.92122321  0.31609221  0.93491949  1
  H+  H344  1  0.61556424  0.96558912  0.82016390  1
  H+  H345  1  0.92100874  0.83333455  0.90898206  1
  H+  H346  1  0.93416727  0.35799585  0.58264662  1
  H+  H347  1  0.02441004  0.14049417  0.34398862  1
  H+  H348  1  0.89508360  0.83461703  0.56840847  1
  H+  H349  1  0.82890991  0.65192255  0.10137336  1
  H+  H350  1  0.43281575  0.82570527  0.89228689  1
  H+  H351  1  0.33941901  0.17464982  0.40027777  1
  H+  H352  1  0.11784007  0.10225716  0.83207481  1
  H+  H353  1  0.50997363  0.38879525  0.15949503  1
  H+  H354  1  0.92724059  0.61028473  0.59391480  1
  H+  H355  1  0.40783310  0.08924967  0.89736969  1
  H+  H356  1  0.58057468  0.90784910  0.72958434  1
  H+  H357  1  0.59139669  0.66664055  0.74902205  1
  H+  H358  1  0.58328972  0.40688450  0.39430851  1
  H+  H359  1  0.41615130  0.83310422  0.22554400  1
  H+  H360  1  0.48758334  0.62562012  0.16448747  1
  H+  H361  1  0.07422604  0.17610024  0.43040188  1
  H+  H362  1  0.66291686  0.58681882  0.94205385  1
  H+  H363  1  0.64481373  0.31411922  0.93868615  1
  H+  H364  1  0.07888824  0.90654210  0.07645291  1
  H+  H365  1  0.11373441  0.61244489  0.33713442  1
  H+  H366  1  0.58010948  0.43229028  0.76566961  1
  H+  H367  1  0.58481483  0.13804371  0.74954510  1
  H+  H368  1  0.11998944  0.36963155  0.82678244  1
  H+  H369  1  0.32863429  0.66774324  0.76986152  1
  H+  H370  1  0.67468451  0.08469756  0.27248191  1
  H+  H371  1  0.36790778  0.47709380  0.49719619  1
  H+  H372  1  0.08428025  0.66418535  0.07259005  1
  H+  H373  1  0.09339396  0.17115323  0.06888853  1
  H+  H374  1  0.81479600  0.90966343  0.43461480  1
  H+  H375  1  0.65994340  0.56892529  0.22816931  1
  H+  H376  1  0.39263116  0.12893719  0.99239142  1
  H+  H377  1  0.09497090  0.40926327  0.76959676  1
  H+  H378  1  0.17918728  0.34228737  0.22911175  1
  H+  H379  1  0.17350505  0.07963973  0.57182032  1
  H+  H380  1  0.07163846  0.63541273  0.76172518  1
  H+  H381  1  0.17618768  0.84056648  0.89955051  1
  H+  H382  1  0.37542537  0.63199498  0.49460047  1
  H+  H383  1  0.97454438  0.85383722  1.00105379  1
  O2-  O384  1  0.09204327  0.17241088  0.14873829  1
  O2-  O385  1  0.06135067  0.18038555  0.47525563  1
  O2-  O386  1  0.05165558  0.14340780  0.80672538  1
  O2-  O387  1  0.09475916  0.42257265  0.14472770  1
  O2-  O388  1  0.08833588  0.43534107  0.48699505  1
  O2-  O389  1  0.09112640  0.40390306  0.81488748  1
  O2-  O390  1  0.08881840  0.66749602  0.15447211  1
  O2-  O391  1  0.09231775  0.66501344  0.47491943  1
  O2-  O392  1  0.05257530  0.61071403  0.80284564  1
  O2-  O393  1  0.08639245  0.91602696  0.15481695  1
  O2-  O394  1  0.10686155  0.90422324  0.47645489  1
  O2-  O395  1  0.08397457  0.91568993  0.81390997  1
  O2-  O396  1  0.33890323  0.18024428  0.14605714  1
  O2-  O397  1  0.34511434  0.16899230  0.47943848  1
  O2-  O398  1  0.32595485  0.17063842  0.81064008  1
  O2-  O399  1  0.33649151  0.42548972  0.14452181  1
  O2-  O400  1  0.33746451  0.41516166  0.47954174  1
  O2-  O401  1  0.32275281  0.39256012  0.78523125  1
  O2-  O402  1  0.33191645  0.66818326  0.14915584  1
  O2-  O403  1  0.34957826  0.66699428  0.47800409  1
  O2-  O404  1  0.32840214  0.67039914  0.81565232  1
  O2-  O405  1  0.33485712  0.93076330  0.15696678  1
  O2-  O406  1  0.34102008  0.91497909  0.47940919  1
  O2-  O407  1  0.34384455  0.92410538  0.81107857  1
  O2-  O408  1  0.56728025  0.24855402  0.13409598  1
  O2-  O409  1  0.57604146  0.15935966  0.48163098  1
  O2-  O410  1  0.58258243  0.12336261  0.79605564  1
  O2-  O411  1  0.56840955  0.40882579  0.14205703  1
  O2-  O412  1  0.58673568  0.41358234  0.47484572  1
  O2-  O413  1  0.58205273  0.43621598  0.81139348  1
  O2-  O414  1  0.57150784  0.67443630  0.14654012  1
  O2-  O415  1  0.57817509  0.65046878  0.48371385  1
  O2-  O416  1  0.59479267  0.67706904  0.80954796  1
  O2-  O417  1  0.58680138  0.93414465  0.14935212  1
  O2-  O418  1  0.57481776  0.92053678  0.47015249  1
  O2-  O419  1  0.58404864  0.90561105  0.80515972  1
  O2-  O420  1  0.85957856  0.17013390  0.15889504  1
  O2-  O421  1  0.80984591  0.16961618  0.47788064  1
  O2-  O422  1  0.84997813  0.15609294  0.80183194  1
  O2-  O423  1  0.90214873  0.44291194  0.12544076  1
  O2-  O424  1  0.80600262  0.33506134  0.47595254  1
  O2-  O425  1  0.71198311  0.39314004  0.79488388  1
  O2-  O426  1  0.82747390  0.65160226  0.14687103  1
  O2-  O427  1  0.82276239  0.66595014  0.48171359  1
  O2-  O428  1  0.83458804  0.67496338  0.81565864  1
  O2-  O429  1  0.86892366  0.93710998  0.13252919  1
  O2-  O430  1  0.81586601  0.91515612  0.48010348  1
  O2-  O431  1  0.84445732  0.92122085  0.82200913  1
  O2-  O432  1  0.17304891  0.08736701  0.18727092  1
  O2-  O433  1  0.18378696  0.07295378  0.52738725  1
  O2-  O434  1  0.15225873  0.07552937  0.84500892  1
  O2-  O435  1  0.17694967  0.34173734  0.18401618  1
  O2-  O436  1  0.16700624  0.34419089  0.51869722  1
  O2-  O437  1  0.15624254  0.30799896  0.84734291  1
  O2-  O438  1  0.17361762  0.58368085  0.19481198  1
  O2-  O439  1  0.18423081  0.59359029  0.51850701  1
  O2-  O440  1  0.16714855  0.57454100  0.85715356  1
  O2-  O441  1  0.17143687  0.83245968  0.19745146  1
  O2-  O442  1  0.17895921  0.82225009  0.51936788  1
  O2-  O443  1  0.18392747  0.84513169  0.85486111  1
  O2-  O444  1  0.42265735  0.10422561  0.18843658  1
  O2-  O445  1  0.41583951  0.07791980  0.52467583  1
  O2-  O446  1  0.41234407  0.09504008  0.85206986  1
  O2-  O447  1  0.41044683  0.34189594  0.19115191  1
  O2-  O448  1  0.42216330  0.33316919  0.51671170  1
  O2-  O449  1  0.41510775  0.33171968  0.85791328  1
  O2-  O450  1  0.41913663  0.58763502  0.17872911  1
  O2-  O451  1  0.41444060  0.57081820  0.51826686  1
  O2-  O452  1  0.41835442  0.60251940  0.85870969  1
  O2-  O453  1  0.41556980  0.84024235  0.18009175  1
  O2-  O454  1  0.42538381  0.83089267  0.51657885  1
  O2-  O455  1  0.42562141  0.83441804  0.84794032  1
  O2-  O456  1  0.68950930  0.10001925  0.19890849  1
  O2-  O457  1  0.65164184  0.07280524  0.51920211  1
  O2-  O458  1  0.68148747  0.07621455  0.84056688  1
  O2-  O459  1  0.69337773  0.24865845  0.19792031  1
  O2-  O460  1  0.65906550  0.32498486  0.51933292  1
  O2-  O461  1  0.59192661  0.25244040  0.85803663  1
  O2-  O462  1  0.65827628  0.56894264  0.18291942  1
  O2-  O463  1  0.66145377  0.57386685  0.52696967  1
  O2-  O464  1  0.66987271  0.59792086  0.85931828  1
  O2-  O465  1  0.64156915  0.82247399  0.20060615  1
  O2-  O466  1  0.65362611  0.80650375  0.52628062  1
  O2-  O467  1  0.67364525  0.83427434  0.85494733  1
  O2-  O468  1  0.93707970  0.08769699  0.20566058  1
  O2-  O469  1  0.89195663  0.07779472  0.51366316  1
  O2-  O470  1  0.96312050  0.10302197  0.83399476  1
  O2-  O471  1  0.93792096  0.33674147  0.19345339  1
  O2-  O472  1  0.93661090  0.40418299  0.55654373  1
  O2-  O473  1  0.93453169  0.31504823  0.85479688  1
  O2-  O474  1  0.92051190  0.57579981  0.18988422  1
  O2-  O475  1  0.93246130  0.59980957  0.51733130  1
  O2-  O476  1  0.92911686  0.60755308  0.86024087  1
  O2-  O477  1  0.91958514  0.82497788  0.18123339  1
  O2-  O478  1  0.89312132  0.83591501  0.52366621  1
  O2-  O479  1  0.92221141  0.83844933  0.86286762  1
  O2-  O480  1  0.17309677  0.09309384  0.31226928  1
  O2-  O481  1  0.16801582  0.09252316  0.64572142  1
  O2-  O482  1  0.17614400  0.07116903  1.00645390  1
  O2-  O483  1  0.17701956  0.33703502  0.31121662  1
  O2-  O484  1  0.17399201  0.33551694  0.64131446  1
  O2-  O485  1  0.17413701  0.32962907  0.97213535  1
  O2-  O486  1  0.16558865  0.56162273  0.31474622  1
  O2-  O487  1  0.16634431  0.57829880  0.63817041  1
  O2-  O488  1  0.15894697  0.57367796  0.98081347  1
  O2-  O489  1  0.17630774  0.84209823  0.32505156  1
  O2-  O490  1  0.17699228  0.82897790  0.64040202  1
  O2-  O491  1  0.15997896  0.83025790  0.98318524  1
  O2-  O492  1  0.42230062  0.09686484  0.31124958  1
  O2-  O493  1  0.42225828  0.08466543  0.64904917  1
  O2-  O494  1  0.41182006  0.08915338  0.97477817  1
  O2-  O495  1  0.41732187  0.33615122  0.31230523  1
  O2-  O496  1  0.41887545  0.33106825  0.63919733  1
  O2-  O497  1  0.42239743  0.33792377  0.98061403  1
  O2-  O498  1  0.42174368  0.57847998  0.31111535  1
  O2-  O499  1  0.41253817  0.58143834  0.58483501  1
  O2-  O500  1  0.42327595  0.57945335  0.97782410  1
  O2-  O501  1  0.41473744  0.81628490  0.30004984  1
  O2-  O502  1  0.41704860  0.83415727  0.63832802  1
  O2-  O503  1  0.45498396  0.80102778  0.96151341  1
  O2-  O504  1  0.66935188  0.08007328  0.31848601  1
  O2-  O505  1  0.66330875  0.07476485  0.64174942  1
  O2-  O506  1  0.66670841  0.09187594  0.95896144  1
  O2-  O507  1  0.66656154  0.31678526  0.31186652  1
  O2-  O508  1  0.65856958  0.32804274  0.64670762  1
  O2-  O509  1  0.65542379  0.32704809  0.98224336  1
  O2-  O510  1  0.66145641  0.56621729  0.30764776  1
  O2-  O511  1  0.66400891  0.58455125  0.64857737  1
  O2-  O512  1  0.66651119  0.58660858  0.98702224  1
  O2-  O513  1  0.65419989  0.83729654  0.31431201  1
  O2-  O514  1  0.65087725  0.81122187  0.65494073  1
  O2-  O515  1  0.60889850  0.80598577  0.96653433  1
  O2-  O516  1  0.92164897  0.08470053  0.32567529  1
  O2-  O517  1  0.91857705  0.07151314  0.62903191  1
  O2-  O518  1  0.95198574  0.09524538  0.96263342  1
  O2-  O519  1  0.91656837  0.33163649  0.31343324  1
  O2-  O520  1  0.93096425  0.30807275  0.65305931  1
  O2-  O521  1  0.91434153  0.31787167  0.97982564  1
  O2-  O522  1  0.91194847  0.56951130  0.31432178  1
  O2-  O523  1  0.92167545  0.60645330  0.63935197  1
  O2-  O524  1  0.91731670  0.58194946  0.98366031  1
  O2-  O525  1  0.92691586  0.86019957  0.29853636  1
  O2-  O526  1  0.89973151  0.83969943  0.65346423  1
  O2-  O527  1  0.91549386  0.82429554  0.98335154  1
  O2-  O528  1  0.10277496  0.17344661  0.02399086  1
  O2-  O529  1  0.08601344  0.17244478  0.35900189  1
  O2-  O530  1  0.07783845  0.16933211  0.68594801  1
  O2-  O531  1  0.08687037  0.41200493  0.02131923  1
  O2-  O532  1  0.07076258  0.38907403  0.37366524  1
  O2-  O533  1  0.09901262  0.41733234  0.68962951  1
  O2-  O534  1  0.08257730  0.66283183  0.02727646  1
  O2-  O535  1  0.08676578  0.64786034  0.34907618  1
  O2-  O536  1  0.08584627  0.66105458  0.68201048  1
  O2-  O537  1  0.07844882  0.90673291  0.03091612  1
  O2-  O538  1  0.09013808  0.92979838  0.35583843  1
  O2-  O539  1  0.04821866  0.95475603  0.70988156  1
  O2-  O540  1  0.34842519  0.17888846  0.02342906  1
  O2-  O541  1  0.33568778  0.17413353  0.35492295  1
  O2-  O542  1  0.33854259  0.16878024  0.68419992  1
  O2-  O543  1  0.33509834  0.41184828  0.02380110  1
  O2-  O544  1  0.33495868  0.41705104  0.35698509  1
  O2-  O545  1  0.34649815  0.42256520  0.66452261  1
  O2-  O546  1  0.32071821  0.69933015  0.02672255  1
  O2-  O547  1  0.33705716  0.65252490  0.35522536  1
  O2-  O548  1  0.32990328  0.66986054  0.69408737  1
  O2-  O549  1  0.28898334  0.95658848  0.04330035  1
  O2-  O550  1  0.33164843  0.93464644  0.35556842  1
  O2-  O551  1  0.34214900  0.92124063  0.68894280  1
  O2-  O552  1  0.57636777  0.14806020  0.00319305  1
  O2-  O553  1  0.58316630  0.15969845  0.35684193  1
  O2-  O554  1  0.58482200  0.15803285  0.68443475  1
  O2-  O555  1  0.58110268  0.42139922  0.02421841  1
  O2-  O556  1  0.58276962  0.40397498  0.34895425  1
  O2-  O557  1  0.58457591  0.42081373  0.68988684  1
  O2-  O558  1  0.58155788  0.67338560  0.03147497  1
  O2-  O559  1  0.62040712  0.67857553  0.36874789  1
  O2-  O560  1  0.58472744  0.65912535  0.69897133  1
  O2-  O561  1  0.59950579  0.93503094  0.02532845  1
  O2-  O562  1  0.57885375  0.91773449  0.35792951  1
  O2-  O563  1  0.58031139  0.90622211  0.68369617  1
  O2-  O564  1  0.86916058  0.16484404  0.03068222  1
  O2-  O565  1  0.83214825  0.16668395  0.35770029  1
  O2-  O566  1  0.83305923  0.14444517  0.67871773  1
  O2-  O567  1  0.83184050  0.40871336  0.00888657  1
  O2-  O568  1  0.82947079  0.40447644  0.35715033  1
  O2-  O569  1  0.83982367  0.42613068  0.64885063  1
  O2-  O570  1  0.83114776  0.65848701  0.02291139  1
  O2-  O571  1  0.82050420  0.64875802  0.36282396  1
  O2-  O572  1  0.82899979  0.67393043  0.69032766  1
  O2-  O573  1  0.85529192  0.92440492  0.01142140  1
  O2-  O574  1  0.81941372  0.91156261  0.35697559  1
  O2-  O575  1  0.81029051  0.91513923  0.70727666  1
