# generated using pymatgen
data_H2O
_symmetry_space_group_name_H-M   'P 1'
_cell_length_a   17.98972576
_cell_length_b   17.99246794
_cell_length_c   22.00469905
_cell_angle_alpha   89.97915793
_cell_angle_beta   89.99388505
_cell_angle_gamma   119.98902541
_symmetry_Int_Tables_number   1
_chemical_formula_structural   H2O
_chemical_formula_sum   'H384 O192'
_cell_volume   6168.92243177
_cell_formula_units_Z   192
loop_
 _symmetry_equiv_pos_site_id
 _symmetry_equiv_pos_as_xyz
  1  'x, y, z'
loop_
 _atom_type_symbol
 _atom_type_oxidation_number
  H+  1.0
  O2-  -2.0
loop_
 _atom_site_type_symbol
 _atom_site_label
 _atom_site_symmetry_multiplicity
 _atom_site_fract_x
 _atom_site_fract_y
 _atom_site_fract_z
 _atom_site_occupancy
  H+  H0  1  0.46646304  0.60819680  0.66120170  1
  H+  H1  1  0.22305522  0.11808870  -0.00117782  1
  H+  H2  1  0.35428187  1.00980141  -0.02858022  1
  H+  H3  1  0.97968060  0.86160294  0.67359590  1
  H+  H4  1  0.58971251  0.11595568  0.85133942  1
  H+  H5  1  0.14245850  0.28203606  0.66041425  1
  H+  H6  1  0.61515998  0.48042175  0.33992145  1
  H+  H7  1  0.86300019  0.45859324  -0.00016360  1
  H+  H8  1  0.64197249  0.86370533  0.33190804  1
  H+  H9  1  0.11806998  0.39821987  0.47773977  1
  H+  H10  1  0.97615673  0.62238432  0.83731959  1
  H+  H11  1  0.12545318  0.13222494  0.83070080  1
  H+  H12  1  0.36221466  0.72486048  0.47777319  1
  H+  H13  1  0.66303846  0.14107261  0.15401988  1
  H+  H14  1  0.52930126  0.14561860  0.67033026  1
  H+  H15  1  0.86592496  0.48153758  0.69027381  1
  H+  H16  1  0.58035949  0.68463308  0.61569582  1
  H+  H17  1  0.55410497  0.01927922  0.61162856  1
  H+  H18  1  0.61585043  0.45706631  0.14251662  1
  H+  H19  1  0.42240901  0.83941329  0.42230701  1
  H+  H20  1  0.62415385  0.22238752  0.00065294  1
  H+  H21  1  0.13572462  0.26850691  0.32435150  1
  H+  H22  1  0.25603090  0.11743435  0.50343777  1
  H+  H23  1  0.64352785  0.35058639  0.15517092  1
  H+  H24  1  0.47373687  0.35359750  0.84248454  1
  H+  H25  1  0.63344314  0.99073555  0.00965185  1
  H+  H26  1  0.92567420  0.85079952  0.89139729  1
  H+  H27  1  0.35904195  0.14069985  0.34135306  1
  H+  H28  1  0.02177703  0.86924852  0.16296131  1
  H+  H29  1  0.37424708  0.86429806  0.34112880  1
  H+  H30  1  0.64998005  0.61885801  0.97609181  1
  H+  H31  1  0.61102420  0.46709661  0.82218155  1
  H+  H32  1  0.35283679  0.47755753  0.48457835  1
  H+  H33  1  0.37624827  0.77321361  0.33663327  1
  H+  H34  1  0.76997536  0.87395309  0.14960000  1
  H+  H35  1  0.01753258  0.36163831  0.83233158  1
  H+  H36  1  0.39976040  1.03286443  0.50727386  1
  H+  H37  1  0.60150514  0.34379166  0.31305715  1
  H+  H38  1  0.88127215  0.25880122  0.84007324  1
  H+  H39  1  0.32943086  0.42122088  0.39083904  1
  H+  H40  1  0.62586374  0.60328788  0.50852652  1
  H+  H41  1  0.39824942  0.36417925  0.15557426  1
  H+  H42  1  0.90475506  0.41008714  0.35137027  1
  H+  H43  1  0.89801693  0.01145729  0.78094958  1
  H+  H44  1  0.52553456  0.39965619  -0.00559885  1
  H+  H45  1  0.12746496  0.73648328  0.24364948  1
  H+  H46  1  0.14672991  0.78356282  0.67324141  1
  H+  H47  1  -0.01922346  0.85582763  0.51782195  1
  H+  H48  1  0.40143809  0.12300935  0.50425882  1
  H+  H49  1  1.02641801  0.38796304  0.15591926  1
  H+  H50  1  0.62259059  0.64603814  0.65820728  1
  H+  H51  1  0.02724175  0.14274114  0.00558057  1
  H+  H52  1  1.02070775  0.36689294  1.00547118  1
  H+  H53  1  0.11395561  -0.01888421  0.67054024  1
  H+  H54  1  0.38796625  0.58503565  0.85284528  1
  H+  H55  1  0.66978890  0.27528349  0.15984934  1
  H+  H56  1  0.39222470  0.03206587  0.65944492  1
  H+  H57  1  0.14333540  0.79131878  0.84297870  1
  H+  H58  1  0.47783076  0.90696926  0.84882303  1
  H+  H59  1  0.87170333  0.39061905  0.15702726  1
  H+  H60  1  0.64692338  0.17684449  0.09094497  1
  H+  H61  1  0.41383605  0.73628705  0.84184425  1
  H+  H62  1  0.35859770  0.23398280  1.01404396  1
  H+  H63  1  0.78198147  0.20025790  0.12200486  1
  H+  H64  1  0.14080697  1.01676626  0.84435521  1
  H+  H65  1  0.65475710  0.81979039  0.09319529  1
  H+  H66  1  0.07091595  0.16557196  0.43291317  1
  H+  H67  1  0.86997180  0.73529579  0.34436257  1
  H+  H68  1  0.38086662  0.23333773  0.49704633  1
  H+  H69  1  0.22075927  0.61386422  0.66203176  1
  H+  H70  1  0.83724063  0.24471686  0.46590034  1
  H+  H71  1  0.73617314  0.85003684  0.49314744  1
  H+  H72  1  0.90634707  0.03634557  0.67908326  1
  H+  H73  1  -0.01515066  0.87064688  0.32743275  1
  H+  H74  1  0.28862573  0.03984231  0.95907556  1
  H+  H75  1  0.12025027  0.22605250  0.01287364  1
  H+  H76  1  0.80225194  0.90511377  0.71318190  1
  H+  H77  1  0.65862997  0.31428184  0.93154573  1
  H+  H78  1  0.10995922  -0.02729182  1.00874748  1
  H+  H79  1  0.21310535  0.84759957  0.99038016  1
  H+  H80  1  0.59934061  0.88326628  0.83713496  1
  H+  H81  1  0.89010050  0.76749927  0.51743462  1
  H+  H82  1  0.62262445  0.72588390  0.00588863  1
  H+  H83  1  0.12431733  0.46615719  0.14844664  1
  H+  H84  1  0.48707365  0.35834881  0.50926024  1
  H+  H85  1  0.46880657  0.59031597  0.15697690  1
  H+  H86  1  0.52628959  0.37130327  0.14660498  1
  H+  H87  1  0.53467239  0.63442093  0.00382126  1
  H+  H88  1  0.14126365  0.35199390  0.84991313  1
  H+  H89  1  0.37661252  0.52179350  0.31470829  1
  H+  H90  1  0.13721181  0.02945905  0.32965071  1
  H+  H91  1  0.98305052  0.35944682  0.31268147  1
  H+  H92  1  0.89080635  0.29171412  0.15961253  1
  H+  H93  1  0.77351776  0.63435001  -0.01116045  1
  H+  H94  1  0.27070628  0.11539060  0.84679941  1
  H+  H95  1  0.28277090  0.63856248  0.00088329  1
  H+  H96  1  0.88974630  0.15170385  0.46847168  1
  H+  H97  1  0.52297014  0.62216854  0.83240027  1
  H+  H98  1  0.73227227  0.87467376  1.00088386  1
  H+  H99  1  0.10851228  0.22147134  0.16065199  1
  H+  H100  1  0.85937613  0.87774555  0.15659433  1
  H+  H101  1  0.35392290  0.63184397  0.67007506  1
  H+  H102  1  0.27458149  0.92047493  0.82993994  1
  H+  H103  1  0.61462462  0.13633615  0.48652815  1
  H+  H104  1  0.16556660  0.09173401  0.47676594  1
  H+  H105  1  0.36677581  0.89442120  0.68119936  1
  H+  H106  1  0.38571714  0.26369786  0.84796480  1
  H+  H107  1  0.40209385  0.75611726  0.81596756  1
  H+  H108  1  0.36367868  0.23253760  0.33863601  1
  H+  H109  1  0.58889526  0.21198316  0.32784006  1
  H+  H110  1  0.88657990  0.27418657  0.67559587  1
  H+  H111  1  0.66003233  0.12155275  0.99117590  1
  H+  H112  1  0.60457927  0.71197471  0.48358167  1
  H+  H113  1  0.32580770  0.89535662  -0.06558662  1
  H+  H114  1  0.38690665  0.37002797  0.32267960  1
  H+  H115  1  0.37230040  0.64073405  1.00336069  1
  H+  H116  1  0.37978526  0.61317272  0.50554779  1
  H+  H117  1  0.01383507  0.62067934  -0.00066057  1
  H+  H118  1  0.12336741  0.65888587  0.28304665  1
  H+  H119  1  0.10205955  0.45050562  0.83904880  1
  H+  H120  1  0.13161001  0.11081527  0.99359854  1
  H+  H121  1  0.12068191  0.28205573  0.50646756  1
  H+  H122  1  0.77187860  0.12731243  0.82802141  1
  H+  H123  1  0.03849628  0.14792695  0.67920934  1
  H+  H124  1  0.77324376  0.38563714  0.15336699  1
  H+  H125  1  0.02462366  0.39031405  0.68299975  1
  H+  H126  1  0.51644104  0.15245957  0.16590762  1
  H+  H127  1  0.71573036  0.34891294  0.84163857  1
  H+  H128  1  0.13852255  0.36921791  0.66266796  1
  H+  H129  1  0.74248887  0.31736328  0.34259264  1
  H+  H130  1  0.85400096  0.99325514  0.01252732  1
  H+  H131  1  0.07857190  0.40150293  0.06572813  1
  H+  H132  1  0.88570179  0.61405364  0.82421791  1
  H+  H133  1  0.72258563  0.34363992  0.98856120  1
  H+  H134  1  0.85279482  0.13373152  0.33781159  1
  H+  H135  1  0.62393415  0.88587652  0.48816039  1
  H+  H136  1  0.02909140  0.70906330  0.56356525  1
  H+  H137  1  0.89438896  0.86810188  0.32549132  1
  H+  H138  1  0.75699386  0.14082792  0.98633912  1
  H+  H139  1  0.39861188  0.52424927  1.01313818  1
  H+  H140  1  0.74240468  0.15155573  0.47257361  1
  H+  H141  1  0.66319364  0.08171865  0.55709219  1
  H+  H142  1  0.77593246  0.88612911  0.33870380  1
  H+  H143  1  1.03719414  0.64962526  0.69789412  1
  H+  H144  1  0.77842299  0.37351191  0.48930182  1
  H+  H145  1  0.60480368  0.46889965  0.67427004  1
  H+  H146  1  0.71596601  0.85885199  0.84824343  1
  H+  H147  1  0.15401029  0.59592895  0.15063393  1
  H+  H148  1  0.22651967  0.12931130  0.17861651  1
  H+  H149  1  0.49763902  0.14750861  0.13476906  1
  H+  H150  1  0.02862003  0.39077699  0.46583116  1
  H+  H151  1  0.26285552  0.39250818  0.48329481  1
  H+  H152  1  0.13465517  0.87568786  0.84116632  1
  H+  H153  1  0.85925682  0.46703194  0.83533812  1
  H+  H154  1  0.37216786  0.89534431  0.48531203  1
  H+  H155  1  0.85235199  0.10867011  0.45957802  1
  H+  H156  1  0.92915890  0.63851223  0.20241386  1
  H+  H157  1  0.33656515  0.12759058  0.17196209  1
  H+  H158  1  0.21159210  0.57444477  0.81468012  1
  H+  H159  1  0.61048628  0.10559821  0.64813424  1
  H+  H160  1  0.64285531  0.27263169  0.50261724  1
  H+  H161  1  1.11622675  0.16391485  0.49553662  1
  H+  H162  1  0.16640269  0.77400144  0.52455134  1
  H+  H163  1  0.83628921  0.41067506  0.09036395  1
  H+  H164  1  0.27695794  0.37797512  0.83216100  1
  H+  H165  1  0.47196552  0.86312546  0.67626950  1
  H+  H166  1  0.35462397  0.63284583  0.32936670  1
  H+  H167  1  0.90503876  0.14971467  0.98229108  1
  H+  H168  1  0.13762989  0.56040618  0.91559599  1
  H+  H169  1  0.84576409  0.58544379  0.33369719  1
  H+  H170  1  0.52228365  0.39548882  0.34006606  1
  H+  H171  1  0.62848545  0.59789001  0.16318577  1
  H+  H172  1  0.16142067  0.31814403  0.22586203  1
  H+  H173  1  0.62861258  0.10985577  0.32276794  1
  H+  H174  1  0.57451771  0.40398664  0.76589911  1
  H+  H175  1  0.30402164  0.64583438  0.82740340  1
  H+  H176  1  0.60586650  0.63566490  0.33583813  1
  H+  H177  1  1.00272540  0.63715061  0.24235576  1
  H+  H178  1  0.35818712  1.04957996  0.82941766  1
  H+  H179  1  0.46346956  0.61044987  0.31203799  1
  H+  H180  1  0.13118848  0.52644305  0.66649374  1
  H+  H181  1  0.36367334  0.37367619  0.82823065  1
  H+  H182  1  0.56496580  0.65329543  0.39326958  1
  H+  H183  1  0.97905180  0.09534177  0.51553627  1
  H+  H184  1  0.16845856  0.61072840  0.57376162  1
  H+  H185  1  0.86841417  0.95601665  0.49915846  1
  H+  H186  1  0.73529496  0.62772146  0.33711451  1
  H+  H187  1  0.10834700  0.88263609  0.00721248  1
  H+  H188  1  0.22558877  0.12166600  0.32980196  1
  H+  H189  1  0.27627472  0.13997963  0.66708891  1
  H+  H190  1  0.13973354  0.35841288  0.31553329  1
  H+  H191  1  0.65946520  0.79173249  0.67588570  1
  H+  H192  1  0.64443456  0.52801920  0.97697013  1
  H+  H193  1  0.12777874  0.90396625  0.34024642  1
  H+  H194  1  0.54140071  0.12738309  1.01479896  1
  H+  H195  1  0.27389789  0.38464155  0.33006410  1
  H+  H196  1  0.88077534  0.02623340  0.32516265  1
  H+  H197  1  0.16375736  0.09685025  0.24223286  1
  H+  H198  1  0.85394410  0.49363615  0.50888055  1
  H+  H199  1  0.38694519  0.86662451  0.18385645  1
  H+  H200  1  0.12586970  0.12338477  0.17617415  1
  H+  H201  1  0.38431104  0.26999137  0.66049222  1
  H+  H202  1  0.87705636  0.15223060  0.67702317  1
  H+  H203  1  0.37387994  0.94347657  0.83590868  1
  H+  H204  1  0.13227010  0.60076297  -0.00090059  1
  H+  H205  1  0.64451320  0.60834859  0.82675835  1
  H+  H206  1  0.67576227  0.33428361  0.56180411  1
  H+  H207  1  0.34880991  0.01043065  0.18362139  1
  H+  H208  1  0.51163542  0.62700567  0.49185356  1
  H+  H209  1  0.38657701  0.36403799  1.00036785  1
  H+  H210  1  0.12279231  0.64599806  0.68677044  1
  H+  H211  1  0.86106416  0.39001030  0.68893305  1
  H+  H212  1  0.03583729  0.61243589  0.15919979  1
  H+  H213  1  0.83616031  0.17127766  0.73444586  1
  H+  H214  1  0.52864119  0.14131115  0.49101048  1
  H+  H215  1  0.86187320  0.36751910  0.00518517  1
  H+  H216  1  0.87807336  0.55311766  0.27842361  1
  H+  H217  1  0.52312086  0.88853445  0.34607094  1
  H+  H218  1  0.89265169  0.14818918  0.17107457  1
  H+  H219  1  0.05425275  0.52353848  0.87325705  1
  H+  H220  1  0.14457570  0.36148609  1.00326978  1
  H+  H221  1  0.62815914  0.35150173  0.83947065  1
  H+  H222  1  0.63320432  -0.00011131  0.17529702  1
  H+  H223  1  0.36616214  0.14320908  0.66865232  1
  H+  H224  1  0.46413187  0.10628932  0.32876957  1
  H+  H225  1  0.88683315  0.82025541  0.82401756  1
  H+  H226  1  0.64315855  1.02363166  0.84497700  1
  H+  H227  1  0.85555129  0.21175018  0.07626840  1
  H+  H228  1  0.61995311  0.84584545  0.14875281  1
  H+  H229  1  0.62266016  0.89710384  0.01144818  1
  H+  H230  1  0.77038518  0.61538529  0.16463502  1
  H+  H231  1  0.60569054  0.70518644  0.14613449  1
  H+  H232  1  0.96849316  0.12802800  0.17545951  1
  H+  H233  1  0.36236075  0.46712323  0.12871561  1
  H+  H234  1  0.98214148  0.85930181  0.98064109  1
  H+  H235  1  0.63723179  0.36391767  0.65614698  1
  H+  H236  1  0.85893386  0.12246272  0.81913252  1
  H+  H237  1  0.88809946  0.27618031  0.31527372  1
  H+  H238  1  0.11634171  0.87657667  0.49860139  1
  H+  H239  1  0.13648581  0.85235261  0.18380701  1
  H+  H240  1  0.76105321  0.13197439  0.32651282  1
  H+  H241  1  0.27876405  0.38798419  0.03224071  1
  H+  H242  1  0.72869728  0.37001455  0.66161052  1
  H+  H243  1  0.88703297  0.90181962  0.69999205  1
  H+  H244  1  0.42258039  0.56444594  0.94647339  1
  H+  H245  1  0.90559361  0.57068268  0.92810948  1
  H+  H246  1  0.14640514  0.26690152  0.85112427  1
  H+  H247  1  0.84156599  0.62547538  0.49549378  1
  H+  H248  1  0.10454989  0.13318645  0.34303805  1
  H+  H249  1  0.26133846  0.87450681  0.17610771  1
  H+  H250  1  0.51519729  0.88414257  0.16540897  1
  H+  H251  1  0.14100007  0.11813994  0.65547379  1
  H+  H252  1  0.28602727  0.89594922  0.50443114  1
  H+  H253  1  0.38746217  0.27387575  0.17118333  1
  H+  H254  1  0.07993329  0.89816413  0.10426369  1
  H+  H255  1  0.89695092  0.76809218  -0.02960108  1
  H+  H256  1  0.12539560  0.60793104  0.51107117  1
  H+  H257  1  0.88226803  0.48581092  0.35545634  1
  H+  H258  1  0.87787046  0.59686493  0.98878519  1
  H+  H259  1  0.62617367  0.39033137  0.49077438  1
  H+  H260  1  0.63766777  0.77372596  0.33083780  1
  H+  H261  1  0.75269719  0.36016834  0.32991603  1
  H+  H262  1  0.02370257  0.90527170  0.82372409  1
  H+  H263  1  0.48919292  0.87668429  1.00300842  1
  H+  H264  1  0.89624448  0.62022106  0.68829851  1
  H+  H265  1  0.27270951  0.38889421  0.67381382  1
  H+  H266  1  0.10078493  0.71181770  0.00199412  1
  H+  H267  1  0.86119320  0.72636659  0.69926192  1
  H+  H268  1  0.22130988  0.61593434  0.33060975  1
  H+  H269  1  0.62086314  0.89926477  0.69215947  1
  H+  H270  1  0.38679768  0.36120407  0.65983975  1
  H+  H271  1  0.14434415  0.80705333  0.32763405  1
  H+  H272  1  0.96019529  0.61391383  0.54670550  1
  H+  H273  1  0.88520083  0.76451124  0.17717738  1
  H+  H274  1  0.37973642  0.51721181  0.66342642  1
  H+  H275  1  0.26154249  0.89556454  0.34286155  1
  H+  H276  1  0.76408042  0.64167621  0.49768061  1
  H+  H277  1  0.11412731  0.47103259  0.32225393  1
  H+  H278  1  0.63732870  0.52048604  0.50938086  1
  H+  H279  1  0.86759805  0.86843108  0.49607376  1
  H+  H280  1  0.64664547  1.02182772  0.49849514  1
  H+  H281  1  0.11284757  0.64967063  0.84300467  1
  H+  H282  1  0.12849554  0.34575306  0.16698875  1
  H+  H283  1  0.68447658  0.08800303  0.90122022  1
  H+  H284  1  0.13331102  0.59099257  0.36205814  1
  H+  H285  1  0.89178288  0.36040910  0.49935839  1
  H+  H286  1  0.77328417  0.63574563  0.79486507  1
  H+  H287  1  0.01480505  0.13433155  0.34141584  1
  H+  H288  1  0.40085939  0.56188942  0.21003155  1
  H+  H289  1  0.40674189  0.57985539  0.56489349  1
  H+  H290  1  0.07857627  0.15523629  0.10318494  1
  H+  H291  1  0.65878558  0.07224730  0.26589401  1
  H+  H292  1  0.63438125  0.31435653  0.25518661  1
  H+  H293  1  0.08903228  0.41295458  0.38100191  1
  H+  H294  1  0.58637258  0.64453503  0.09053451  1
  H+  H295  1  0.15993059  0.34228786  0.56478171  1
  H+  H296  1  0.63197455  0.76699203  0.84477813  1
  H+  H297  1  0.23430396  0.87426634  0.66921242  1
  H+  H298  1  0.27069740  0.64554914  0.49353501  1
  H+  H299  1  0.62177328  0.22854740  0.66463059  1
  H+  H300  1  0.73114532  0.07402150  0.18440520  1
  H+  H301  1  0.32605107  0.65511464  0.39363654  1
  H+  H302  1  0.11881034  0.89444197  0.67730824  1
  H+  H303  1  0.33193037  0.41298440  0.73383776  1
  H+  H304  1  0.03447623  0.12526176  0.82228847  1
  H+  H305  1  0.59127522  0.42021878  0.43394697  1
  H+  H306  1  0.09747380  0.68272768  0.77952306  1
  H+  H307  1  0.90973347  0.09589483  0.27008296  1
  H+  H308  1  0.67230234  0.81549007  0.54854694  1
  H+  H309  1  0.16652846  0.07343201  0.90752040  1
  H+  H310  1  0.80078551  0.18174372  0.40202330  1
  H+  H311  1  0.37349011  0.01966329  0.33497833  1
  H+  H312  1  0.84155900  0.61024159  0.12621201  1
  H+  H313  1  0.08706314  0.92863263  0.76584911  1
  H+  H314  1  0.60502580  0.97791940  0.67797286  1
  H+  H315  1  0.18448784  0.33574361  0.94831106  1
  H+  H316  1  0.66396500  0.83299480  0.94528877  1
  H+  H317  1  0.84047847  0.91625427  0.39498457  1
  H+  H318  1  0.91647938  0.34285563  0.22543093  1
  H+  H319  1  0.51670057  0.37886552  0.67144760  1
  H+  H320  1  0.93183492  0.08118784  0.61468862  1
  H+  H321  1  0.61837589  0.52954451  0.21373446  1
  H+  H322  1  0.36864861  0.88682053  -0.00811547  1
  H+  H323  1  0.83178831  0.67780530  0.04770900  1
  H+  H324  1  0.34634842  0.17555352  0.43469050  1
  H+  H325  1  0.67001423  0.58333298  0.60418424  1
  H+  H326  1  0.91633984  0.82740099  0.23435308  1
  H+  H327  1  0.34011071  0.93837032  0.73480344  1
  H+  H328  1  0.58119222  0.19659963  0.85169286  1
  H+  H329  1  0.88264768  0.34920864  0.84440521  1
  H+  H330  1  0.07998852  0.64051793  0.09415240  1
  H+  H331  1  0.95421762  0.61170202  0.63579208  1
  H+  H332  1  0.81949393  0.52551204  0.56375061  1
  H+  H333  1  0.37695618  0.07052767  0.24349872  1
  H+  H334  1  0.12422397  0.96739589  0.50166774  1
  H+  H335  1  0.16838002  0.08534413  0.59573583  1
  H+  H336  1  0.68908828  0.60858617  0.27404787  1
  H+  H337  1  0.86070151  0.42253654  0.43788976  1
  H+  H338  1  0.17825307  0.83601481  0.58001726  1
  H+  H339  1  0.38183220  0.77783332  0.67045702  1
  H+  H340  1  0.90396160  0.30000583  0.93545352  1
  H+  H341  1  0.42512490  0.84789539  0.24304338  1
  H+  H342  1  0.37888955  0.10523465  0.89442573  1
  H+  H343  1  0.31814664  0.16731176  0.11024555  1
  H+  H344  1  0.57306536  0.66090116  0.77072941  1
  H+  H345  1  0.30879259  0.64119863  0.72893544  1
  H+  H346  1  0.42494748  0.09192473  0.60003109  1
  H+  H347  1  0.59698124  0.92090869  0.43017881  1
  H+  H348  1  0.07711783  0.63566723  0.42748563  1
  H+  H349  1  0.13350294  0.51162347  0.99979139  1
  H+  H350  1  0.10551180  0.17695510  0.73379046  1
  H+  H351  1  0.39154804  0.50006179  0.84644990  1
  H+  H352  1  0.71438259  0.88061385  0.64229563  1
  H+  H353  1  0.42497140  0.32769858  0.56744285  1
  H+  H354  1  0.61169121  0.97762125  0.33953483  1
  H+  H355  1  0.57490960  0.91828855  0.10329572  1
  H+  H356  1  0.32689339  0.92307460  0.40268178  1
  H+  H357  1  0.42606624  0.87579756  0.90917562  1
  H+  H358  1  0.40845175  0.33118746  0.93754885  1
  H+  H359  1  0.08604549  0.92645190  0.39912463  1
  H+  H360  1  0.57896930  0.92199215  0.77798815  1
  H+  H361  1  0.89506948  0.95040157  0.86240224  1
  H+  H362  1  0.83461715  0.67802008  0.40573875  1
  H+  H363  1  0.82849911  0.40961480  0.77671430  1
  H+  H364  1  0.22345106  0.58742059  0.19085306  1
  H+  H365  1  0.48390801  0.86420024  0.47868992  1
  H+  H366  1  0.11222322  0.68226310  0.42714556  1
  H+  H367  1  0.35238679  0.14270998  0.01572794  1
  H+  H368  1  0.92972820  0.30612754  0.53627746  1
  H+  H369  1  0.68433951  0.58499556  0.88216338  1
  H+  H370  1  0.18020718  0.85972335  0.25012794  1
  H+  H371  1  0.90772438  0.34450688  0.62278708  1
  H+  H372  1  0.91210827  0.08234619  0.93717763  1
  H+  H373  1  0.72298835  0.61182353  0.66800987  1
  H+  H374  1  0.83287517  0.92605398  0.06666735  1
  H+  H375  1  0.58014517  0.16446989  0.39236981  1
  H+  H376  1  0.42130753  0.34162209  0.26508593  1
  H+  H377  1  0.88578550  0.07718106  0.52501655  1
  H+  H378  1  0.40100717  0.78412699  0.99602927  1
  H+  H379  1  0.91327388  0.82785851  0.61932120  1
  H+  H380  1  0.59086422  0.42068458  0.04761392  1
  H+  H381  1  0.08640237  0.41326018  0.73975390  1
  H+  H382  1  0.31524519  0.90091194  0.11371302  1
  H+  H383  1  0.15227567  0.82882686  0.93500531  1
  O2-  O384  1  0.07707537  0.15658873  0.14855470  1
  O2-  O385  1  0.06858211  0.16900881  0.47924969  1
  O2-  O386  1  0.09660489  0.16342934  0.81491226  1
  O2-  O387  1  0.08317960  0.40329162  0.13847433  1
  O2-  O388  1  0.08917029  0.42306260  0.45320256  1
  O2-  O389  1  0.07949589  0.39388496  0.81934953  1
  O2-  O390  1  0.09069826  0.63459222  0.13754073  1
  O2-  O391  1  0.01404523  0.64963306  0.57039206  1
  O2-  O392  1  0.08924808  0.68385205  0.82501505  1
  O2-  O393  1  0.08157688  0.89172734  0.14872860  1
  O2-  O394  1  0.08617372  0.90798139  0.48704737  1
  O2-  O395  1  0.08489595  0.92563539  0.81157944  1
  O2-  O396  1  0.31662437  0.16893281  0.15553094  1
  O2-  O397  1  0.34900533  0.17097129  0.47988259  1
  O2-  O398  1  0.33343016  0.15312029  0.82988153  1
  O2-  O399  1  0.33997390  0.40685640  0.11078603  1
  O2-  O400  1  0.32028351  0.42117033  0.46439225  1
  O2-  O401  1  0.33608545  0.40748249  0.81405638  1
  O2-  O402  1  0.35236249  0.68707183  0.12334142  1
  O2-  O403  1  0.32679627  0.66117837  0.47388085  1
  O2-  O404  1  0.27132222  0.59403017  0.80304184  1
  O2-  O405  1  0.32255724  0.90620235  0.15755102  1
  O2-  O406  1  0.34259180  0.92974039  0.48410095  1
  O2-  O407  1  0.33483441  0.96275152  0.81670955  1
  O2-  O408  1  0.68089039  0.19407317  0.12967776  1
  O2-  O409  1  0.58851676  0.17068136  0.47304601  1
  O2-  O410  1  0.54651955  0.13383704  0.85603083  1
  O2-  O411  1  0.58607332  0.39635833  0.12968514  1
  O2-  O412  1  0.59576501  0.42185002  0.47935593  1
  O2-  O413  1  0.57507550  0.40538171  0.81144116  1
  O2-  O414  1  0.58171382  0.64292647  0.13618418  1
  O2-  O415  1  0.57124063  0.64956130  0.47501326  1
  O2-  O416  1  0.58170198  0.66000188  0.81443432  1
  O2-  O417  1  0.57598920  0.91042634  0.14816856  1
  O2-  O418  1  0.59656145  0.91985721  0.47631596  1
  O2-  O419  1  0.57722048  0.92094180  0.82345442  1
  O2-  O420  1  0.83996076  0.20579317  0.12149382  1
  O2-  O421  1  0.78307894  0.20102433  0.44379288  1
  O2-  O422  1  0.83312134  0.15853829  0.81098006  1
  O2-  O423  1  0.83636901  0.41703204  0.13691765  1
  O2-  O424  1  0.84249060  0.40813303  0.48364517  1
  O2-  O425  1  0.83113893  0.40636367  0.82217350  1
  O2-  O426  1  0.83082743  0.64903563  0.15071484  1
  O2-  O427  1  0.82551573  0.66920188  0.48415924  1
  O2-  O428  1  0.83473124  0.67111716  0.78001163  1
  O2-  O429  1  0.83158719  0.90911840  0.14024450  1
  O2-  O430  1  0.83805828  0.89897146  0.47897995  1
  O2-  O431  1  0.87419412  0.99264188  0.86792689  1
  O2-  O432  1  0.16404784  0.09888162  0.19568316  1
  O2-  O433  1  0.19090007  0.08317445  0.51328816  1
  O2-  O434  1  0.17558125  0.07667169  0.86198672  1
  O2-  O435  1  0.15591773  0.31241354  0.18088135  1
  O2-  O436  1  0.15610448  0.34234855  0.51941446  1
  O2-  O437  1  0.17643593  0.32741503  0.86575678  1
  O2-  O438  1  0.18784202  0.56526014  0.15469980  1
  O2-  O439  1  0.18053065  0.63568875  0.53195920  1
  O2-  O440  1  0.11677499  0.55242005  0.87052673  1
  O2-  O441  1  0.17417807  0.83546921  0.20686705  1
  O2-  O442  1  0.17903612  0.83229536  0.53397066  1
  O2-  O443  1  0.17127457  0.85233089  0.85727819  1
  O2-  O444  1  0.35897671  0.06595934  0.20019171  1
  O2-  O445  1  0.43251198  0.09398645  0.52129694  1
  O2-  O446  1  0.38399691  0.11456681  0.84795711  1
  O2-  O447  1  0.42613871  0.33700781  0.17817104  1
  O2-  O448  1  0.42665074  0.32279627  0.52243135  1
  O2-  O449  1  0.41381818  0.32547988  0.85931394  1
  O2-  O450  1  0.40659567  0.55636105  0.16583087  1
  O2-  O451  1  0.41182687  0.58423624  0.51992221  1
  O2-  O452  1  0.42373032  0.56051340  0.86423285  1
  O2-  O453  1  0.42554543  0.84551878  0.19853634  1
  O2-  O454  1  0.42189727  0.83626016  0.46738933  1
  O2-  O455  1  0.42251592  0.89494413  0.86744231  1
  O2-  O456  1  0.67238646  0.06094830  0.19214014  1
  O2-  O457  1  0.67351242  0.08353802  0.51205216  1
  O2-  O458  1  0.67890835  0.08566522  0.85582457  1
  O2-  O459  1  0.68296522  0.33330931  0.17496898  1
  O2-  O460  1  0.67790563  0.33384493  0.51622671  1
  O2-  O461  1  0.65547414  0.31939913  0.85598987  1
  O2-  O462  1  0.65657398  0.56469103  0.18118715  1
  O2-  O463  1  0.66176209  0.58042575  0.52635296  1
  O2-  O464  1  0.67969015  0.58151939  0.83650103  1
  O2-  O465  1  0.65025321  0.81369006  0.13739200  1
  O2-  O466  1  0.67280010  0.82173513  0.50462645  1
  O2-  O467  1  0.65634809  0.82605124  0.86173532  1
  O2-  O468  1  0.91478353  0.11777386  0.19539128  1
  O2-  O469  1  0.92393803  0.05572267  0.53732044  1
  O2-  O470  1  0.91469304  0.05202527  0.81615288  1
  O2-  O471  1  0.91893333  0.35066414  0.17988045  1
  O2-  O472  1  0.91866766  0.32153169  0.49631399  1
  O2-  O473  1  0.91327621  0.31831450  0.85767767  1
  O2-  O474  1  0.94966947  0.60048718  0.21667244  1
  O2-  O475  1  0.85699067  0.54694346  0.52834592  1
  O2-  O476  1  0.91370705  0.58715085  0.84680123  1
  O2-  O477  1  0.91408980  0.82526502  0.18889796  1
  O2-  O478  1  0.92076480  0.82742992  0.53393620  1
  O2-  O479  1  0.92348224  0.87207508  0.84747614  1
  O2-  O480  1  0.16484283  0.09132145  0.31438854  1
  O2-  O481  1  0.16451543  0.08142670  0.64048626  1
  O2-  O482  1  0.16456680  0.08136206  0.98114414  1
  O2-  O483  1  0.16925871  0.32543764  0.30457438  1
  O2-  O484  1  0.16982870  0.34199359  0.64412225  1
  O2-  O485  1  0.18208606  0.33626632  0.99352689  1
  O2-  O486  1  0.15736676  0.58731808  0.32317456  1
  O2-  O487  1  0.15815152  0.58679725  0.65149615  1
  O2-  O488  1  0.16251207  0.57110074  0.98246897  1
  O2-  O489  1  0.17849782  0.86909058  0.32108910  1
  O2-  O490  1  0.17299210  0.84192009  0.65436243  1
  O2-  O491  1  0.15130755  0.82058993  0.98004126  1
  O2-  O492  1  0.40185881  0.08068488  0.31943759  1
  O2-  O493  1  0.42331101  0.09287715  0.64539090  1
  O2-  O494  1  0.35062472  0.06269055  0.96071032  1
  O2-  O495  1  0.41927551  0.34005407  0.31006274  1
  O2-  O496  1  0.41857085  0.33240454  0.64602906  1
  O2-  O497  1  0.41184447  0.33081210  0.98295137  1
  O2-  O498  1  0.40322468  0.58117428  0.29713115  1
  O2-  O499  1  0.40686783  0.57777452  0.64663608  1
  O2-  O500  1  0.42801854  0.57918532  0.99030536  1
  O2-  O501  1  0.41205878  0.83726205  0.33658748  1
  O2-  O502  1  0.41306631  0.83968251  0.66022547  1
  O2-  O503  1  0.42887166  0.84731715  0.98783497  1
  O2-  O504  1  0.66076480  0.07903673  0.31121851  1
  O2-  O505  1  0.61294032  0.05489535  0.62607820  1
  O2-  O506  1  0.69573201  0.09607088  0.97763570  1
  O2-  O507  1  0.59622061  0.29357006  0.29078750  1
  O2-  O508  1  0.67261686  0.33965591  0.63989579  1
  O2-  O509  1  0.66172787  0.30968425  0.97687646  1
  O2-  O510  1  0.67629046  0.59663075  0.31729261  1
  O2-  O511  1  0.66512933  0.58590428  0.64966223  1
  O2-  O512  1  0.67969433  0.58868217  0.95966233  1
  O2-  O513  1  0.67472529  0.83522104  0.32032459  1
  O2-  O514  1  0.69304843  0.85540931  0.68221870  1
  O2-  O515  1  0.66766420  0.83535953  0.99025285  1
  O2-  O516  1  0.90883882  0.08916041  0.31564173  1
  O2-  O517  1  0.93352586  0.09359741  0.65886042  1
  O2-  O518  1  0.92539086  0.10681256  0.97823685  1
  O2-  O519  1  0.92123475  0.33624402  0.30078523  1
  O2-  O520  1  0.91579704  0.34019354  0.66603633  1
  O2-  O521  1  0.90664511  0.30435688  0.98108930  1
  O2-  O522  1  0.84248722  0.53344200  0.31590521  1
  O2-  O523  1  0.92977430  0.59200854  0.67746822  1
  O2-  O524  1  0.90570507  0.56449879  0.97306833  1
  O2-  O525  1  0.92375232  0.83575372  0.31310628  1
  O2-  O526  1  0.91633612  0.83020839  0.66448681  1
  O2-  O527  1  0.92980855  0.82749769  0.95498342  1
  O2-  O528  1  0.08587443  0.16360389  0.02300083  1
  O2-  O529  1  0.07397823  0.16284944  0.35935191  1
  O2-  O530  1  0.10152059  0.17886415  0.68866182  1
  O2-  O531  1  0.08074412  0.40353120  0.01947135  1
  O2-  O532  1  0.08663666  0.40985352  0.33471676  1
  O2-  O533  1  0.08649542  0.42027843  0.69474615  1
  O2-  O534  1  0.07407636  0.65051969  0.01454571  1
  O2-  O535  1  0.09417728  0.69200442  0.27523543  1
  O2-  O536  1  0.10019629  0.68177403  0.70594173  1
  O2-  O537  1  0.07682669  0.91168192  0.02170358  1
  O2-  O538  1  0.08871198  0.93141935  0.35446135  1
  O2-  O539  1  0.08540150  0.92269582  0.68993660  1
  O2-  O540  1  0.32459639  0.17407006  0.03144240  1
  O2-  O541  1  0.33065935  0.17351676  0.35616078  1
  O2-  O542  1  0.33572999  0.17368319  0.68228751  1
  O2-  O543  1  0.34148381  0.41842369  0.04444007  1
  O2-  O544  1  0.33416082  0.42010580  0.34489392  1
  O2-  O545  1  0.33354329  0.41807321  0.68862150  1
  O2-  O546  1  0.34542392  0.67709713  0.00297879  1
  O2-  O547  1  0.32503762  0.66210158  0.34862914  1
  O2-  O548  1  0.32267254  0.66056756  0.68607986  1
  O2-  O549  1  0.32794760  0.90799210  -0.02212109  1
  O2-  O550  1  0.32687773  0.91865074  0.35778140  1
  O2-  O551  1  0.33692607  0.92842975  0.69046889  1
  O2-  O552  1  0.60295838  0.16213870  0.02112112  1
  O2-  O553  1  0.57436968  0.15534964  0.34758081  1
  O2-  O554  1  0.59146015  0.16818918  0.67893844  1
  O2-  O555  1  0.58670417  0.43640655  0.00530979  1
  O2-  O556  1  0.58285229  0.42063597  0.35499480  1
  O2-  O557  1  0.57810226  0.40831849  0.68710528  1
  O2-  O558  1  0.59728222  0.66326629  0.01462457  1
  O2-  O559  1  0.56974881  0.66055328  0.34836295  1
  O2-  O560  1  0.59369596  0.68256307  0.65852953  1
  O2-  O561  1  0.59587721  0.93140740  0.02538254  1
  O2-  O562  1  0.58515791  0.91829823  0.35702807  1
  O2-  O563  1  0.58358369  0.92343990  0.70162718  1
  O2-  O564  1  0.86377745  0.21272990  0.00264585  1
  O2-  O565  1  0.82104281  0.16657896  0.34464673  1
  O2-  O566  1  0.84444250  0.18066622  0.68949111  1
  O2-  O567  1  0.83476539  0.40106179  0.02002411  1
  O2-  O568  1  0.90555586  0.45353658  0.37929926  1
  O2-  O569  1  0.82834241  0.41946382  0.70015631  1
  O2-  O570  1  0.83468685  0.66236058  0.00557568  1
  O2-  O571  1  0.83356537  0.67541715  0.36049785  1
  O2-  O572  1  0.82840663  0.66431853  0.71258497  1
  O2-  O573  1  0.82420944  0.93159206  0.02192750  1
  O2-  O574  1  0.83912518  0.92060464  0.35023604  1
  O2-  O575  1  0.86531622  0.93880170  0.71732606  1
