# generated using pymatgen
data_H2O
_symmetry_space_group_name_H-M   'P 1'
_cell_length_a   17.99791440
_cell_length_b   17.99133396
_cell_length_c   22.00702142
_cell_angle_alpha   90.00122860
_cell_angle_beta   89.99304635
_cell_angle_gamma   119.99177893
_symmetry_Int_Tables_number   1
_chemical_formula_structural   H2O
_chemical_formula_sum   'H384 O192'
_cell_volume   6171.82229162
_cell_formula_units_Z   192
loop_
 _symmetry_equiv_pos_site_id
 _symmetry_equiv_pos_as_xyz
  1  'x, y, z'
loop_
 _atom_type_symbol
 _atom_type_oxidation_number
  H+  1.0
  O2-  -2.0
loop_
 _atom_site_type_symbol
 _atom_site_label
 _atom_site_symmetry_multiplicity
 _atom_site_fract_x
 _atom_site_fract_y
 _atom_site_fract_z
 _atom_site_occupancy
  H+  H0  1  0.02286837  0.14580986  0.51176839  1
  H+  H1  1  0.67507248  0.16812325  0.36946713  1
  H+  H2  1  0.47615692  0.36624721  0.66209777  1
  H+  H3  1  0.10685539  0.47858574  0.00494387  1
  H+  H4  1  0.94494002  0.35193652  0.66234780  1
  H+  H5  1  0.41400955  0.58984383  0.26873116  1
  H+  H6  1  0.60654817  0.22724503  0.15498757  1
  H+  H7  1  0.78707412  0.63927998  0.49083851  1
  H+  H8  1  0.37652646  0.03413085  0.54156104  1
  H+  H9  1  0.37835787  0.25827197  0.33898955  1
  H+  H10  1  0.89901546  0.62475804  0.84385155  1
  H+  H11  1  0.26378985  0.88195078  0.82922006  1
  H+  H12  1  0.40940884  0.82731367  0.89822255  1
  H+  H13  1  0.76743750  0.14419695  0.15340428  1
  H+  H14  1  0.13092275  0.36371534  0.47597310  1
  H+  H15  1  0.76446672  0.62373226  0.10398945  1
  H+  H16  1  0.49002398  0.60875085  0.18182628  1
  H+  H17  1  0.61335234  0.18487300  0.75592169  1
  H+  H18  1  0.63844575  0.52749412  0.50438814  1
  H+  H19  1  0.24054809  0.63236123  0.65538500  1
  H+  H20  1  0.64287125  0.53213349  0.98884776  1
  H+  H21  1  0.32973780  -0.05896633  0.99074457  1
  H+  H22  1  0.87074374  0.23525055  0.48786077  1
  H+  H23  1  0.37276161  0.02406816  0.83600353  1
  H+  H24  1  0.60859878  -0.02527803  0.67274505  1
  H+  H25  1  0.31141077  0.65336647  0.06716176  1
  H+  H26  1  0.09027322  0.92084220  0.39660254  1
  H+  H27  1  0.85333396  0.21927936  0.67649077  1
  H+  H28  1  0.36534910  0.47498378  -0.00365082  1
  H+  H29  1  0.87497874  0.72840931  0.49249107  1
  H+  H30  1  0.11663675  0.48967324  0.83433696  1
  H+  H31  1  0.12053623  0.35247114  0.32316979  1
  H+  H32  1  0.45535910  0.84555185  0.16995538  1
  H+  H33  1  0.87840212  0.82040547  0.16975056  1
  H+  H34  1  0.86732730  0.48636960  0.67493345  1
  H+  H35  1  0.12573892  0.60710067  0.32340298  1
  H+  H36  1  0.81014702  0.42458602  0.99965938  1
  H+  H37  1  0.89601395  0.26726818  0.84017996  1
  H+  H38  1  0.89071821  0.77622721  0.98099842  1
  H+  H39  1  0.07453543  0.41839583  0.66358723  1
  H+  H40  1  0.15261415  0.30308782  0.84884078  1
  H+  H41  1  0.15918524  0.32611270  0.75192891  1
  H+  H42  1  0.87920028  0.91468471  0.82880799  1
  H+  H43  1  1.02303614  0.88122419  0.16104097  1
  H+  H44  1  0.73060067  0.21064770  0.55439178  1
  H+  H45  1  0.87565412  0.62252691  0.31915718  1
  H+  H46  1  0.11543342  0.97912319  0.49346615  1
  H+  H47  1  0.11770663  0.89067223  0.49366137  1
  H+  H48  1  0.09722506  0.66599391  0.40303619  1
  H+  H49  1  0.14247831  1.01503618  0.16716170  1
  H+  H50  1  0.90607010  0.62053492  0.50500418  1
  H+  H51  1  0.73050424  0.61393502  0.00844113  1
  H+  H52  1  0.35958481  0.63935464  0.82771649  1
  H+  H53  1  0.09774507  0.82213172  0.16699789  1
  H+  H54  1  0.98111430  0.11839123  0.32592590  1
  H+  H55  1  0.62431033  0.03391550  0.15631540  1
  H+  H56  1  0.21368355  0.60792113  0.32074694  1
  H+  H57  1  0.14113406  0.77146304  0.51103192  1
  H+  H58  1  0.35067193  0.95632951  0.46562057  1
  H+  H59  1  0.98506400  0.36598935  0.99294795  1
  H+  H60  1  0.87341667  0.40271815  0.15799306  1
  H+  H61  1  0.01990800  0.39999691  0.49608623  1
  H+  H62  1  0.70134837  0.82139764  0.16065712  1
  H+  H63  1  0.21786623  0.36085885  0.46817262  1
  H+  H64  1  0.58597173  0.96050696  -0.01129826  1
  H+  H65  1  0.97784299  0.11623368  0.65605593  1
  H+  H66  1  0.12249267  0.52695838  0.17226490  1
  H+  H67  1  0.15232354  0.10881183  0.16499688  1
  H+  H68  1  0.91680865  0.09427410  0.56616893  1
  H+  H69  1  0.88878845  0.02715501  0.65652133  1
  H+  H70  1  0.29427883  0.40505879  0.83319506  1
  H+  H71  1  0.60660869  0.73017664  0.80725325  1
  H+  H72  1  0.37167403  0.39254640  0.67986102  1
  H+  H73  1  0.40926251  0.57575097  0.56285589  1
  H+  H74  1  0.10287073  0.71586887  0.34189777  1
  H+  H75  1  0.78055304  0.40366476  0.34710910  1
  H+  H76  1  0.37612931  0.84940930  0.50405874  1
  H+  H77  1  0.12916722  0.23098698  0.15348545  1
  H+  H78  1  0.10887562  0.60182588  -0.00814314  1
  H+  H79  1  0.77114506  0.16441195  0.00781470  1
  H+  H80  1  0.59745925  0.76394186  0.31201704  1
  H+  H81  1  0.10817825  0.22257275  0.32558784  1
  H+  H82  1  0.21534883  0.36602572  0.32028542  1
  H+  H83  1  0.67384200  0.33160036  1.01539137  1
  H+  H84  1  0.34857620  0.16312782  0.07316475  1
  H+  H85  1  0.46802090  0.60966203  0.50355360  1
  H+  H86  1  0.62421017  0.64450929  -0.00091664  1
  H+  H87  1  0.34347201  0.39272337  0.30905585  1
  H+  H88  1  0.88029389  0.62032844  0.11398105  1
  H+  H89  1  0.11684535  0.24106476  0.49155639  1
  H+  H90  1  0.34473297  0.87316032  0.32465119  1
  H+  H91  1  -0.01598971  0.86438875  0.50550034  1
  H+  H92  1  0.92130342  0.82245182  0.23304851  1
  H+  H93  1  0.11398403  0.97442472  0.01170010  1
  H+  H94  1  0.63593832  0.36644159  0.34846505  1
  H+  H95  1  1.04103927  0.62357645  0.50333946  1
  H+  H96  1  0.47228575  0.61746022  -0.00532823  1
  H+  H97  1  0.78114302  0.63892165  0.67382812  1
  H+  H98  1  0.92378310  0.58640817  0.60206702  1
  H+  H99  1  0.10814798  0.88014739  0.82402636  1
  H+  H100  1  0.86374996  0.36115326  0.66146997  1
  H+  H101  1  0.92511866  0.62016515  1.02116449  1
  H+  H102  1  0.88765156  0.40233814  -0.00192979  1
  H+  H103  1  0.95806909  0.35520079  0.32652323  1
  H+  H104  1  0.90464908  0.86825474  0.33604400  1
  H+  H105  1  0.38196537  0.77367295  0.83675650  1
  H+  H106  1  0.11902987  0.14469646  0.51305457  1
  H+  H107  1  0.98166638  0.36052381  0.83927270  1
  H+  H108  1  0.86525765  0.14656668  0.33754206  1
  H+  H109  1  0.92867544  0.53585944  -0.00151504  1
  H+  H110  1  0.10459955  0.38599137  0.15855642  1
  H+  H111  1  0.51439594  0.89076394  0.82617576  1
  H+  H112  1  0.51235927  0.38763736  1.00550830  1
  H+  H113  1  -0.01282950  0.86110600  0.32759552  1
  H+  H114  1  0.71419944  0.86296911  0.51223857  1
  H+  H115  1  0.66539007  0.33526704  0.43468517  1
  H+  H116  1  0.59285351  0.13378938  0.16116048  1
  H+  H117  1  0.25586174  0.62582419  1.00660139  1
  H+  H118  1  0.63383136  0.77897035  0.97305112  1
  H+  H119  1  0.22691027  0.36456894  0.99546812  1
  H+  H120  1  0.97669861  0.37348933  0.17154092  1
  H+  H121  1  0.35569200  0.13783451  0.68211522  1
  H+  H122  1  0.13384371  0.09729320  0.82705045  1
  H+  H123  1  0.15506790  0.58547106  0.23258615  1
  H+  H124  1  0.22672558  0.61678638  0.84212395  1
  H+  H125  1  0.38377997  0.99627785  0.14965753  1
  H+  H126  1  0.11761641  -0.02561291  0.82090034  1
  H+  H127  1  0.60409705  0.64286168  0.34563988  1
  H+  H128  1  0.89415488  0.86205082  0.51389596  1
  H+  H129  1  0.86496024  0.13603350  0.67309684  1
  H+  H130  1  0.37689169  0.02603987  0.67464172  1
  H+  H131  1  0.89574953  0.99065907  0.36561069  1
  H+  H132  1  0.11326464  0.22189591  0.67976168  1
  H+  H133  1  0.26236212  0.87470727  0.48717181  1
  H+  H134  1  0.16481473  0.08383560  0.56710863  1
  H+  H135  1  0.35484033  0.23151399  0.49499338  1
  H+  H136  1  0.77749194  0.39343579  0.48339568  1
  H+  H137  1  0.11577834  0.84728427  0.99168993  1
  H+  H138  1  0.02675118  0.63641166  0.82598004  1
  H+  H139  1  0.54151661  0.07654151  0.26321892  1
  H+  H140  1  0.39822406  0.36719162  0.84703507  1
  H+  H141  1  0.64562923  0.28049438  0.34719430  1
  H+  H142  1  0.10097452  0.49313765  0.48625531  1
  H+  H143  1  0.37897401  0.36504781  0.50328225  1
  H+  H144  1  0.87839790  0.52746627  0.31803903  1
  H+  H145  1  0.36571079  0.08986583  0.99622977  1
  H+  H146  1  0.88377369  0.01974616  0.17903835  1
  H+  H147  1  0.49471666  0.95934576  0.12466223  1
  H+  H148  1  0.24363902  0.85012558  0.98897980  1
  H+  H149  1  0.64367005  0.52811013  0.65855230  1
  H+  H150  1  0.88442953  0.36872491  0.50219016  1
  H+  H151  1  0.87085449  0.16999604  0.15647075  1
  H+  H152  1  0.69889436  1.00702963  0.28306622  1
  H+  H153  1  0.86762440  0.40282579  0.33364750  1
  H+  H154  1  0.63414607  0.13993449  -0.00525011  1
  H+  H155  1  0.35660393  0.47540743  0.48480043  1
  H+  H156  1  0.54814352  0.19002816  0.01360930  1
  H+  H157  1  0.65892477  0.83502502  0.60084070  1
  H+  H158  1  0.49698769  0.88045081  0.34155481  1
  H+  H159  1  0.13243889  0.77021771  0.83691626  1
  H+  H160  1  0.87356116  0.73582354  0.33760806  1
  H+  H161  1  0.57772034  0.66162445  0.72175025  1
  H+  H162  1  0.37400345  0.75885043  0.99146422  1
  H+  H163  1  0.78338847  0.90567328  0.28672982  1
  H+  H164  1  0.35650183  0.48367318  0.32832970  1
  H+  H165  1  0.39425685  0.53444187  0.84210803  1
  H+  H166  1  0.02942656  0.63963126  0.67225450  1
  H+  H167  1  0.89758078  0.52856837  0.50667402  1
  H+  H168  1  0.89119858  0.12093437  0.50253051  1
  H+  H169  1  0.44202288  0.07057555  0.99609881  1
  H+  H170  1  0.46643221  0.11121305  0.51754735  1
  H+  H171  1  0.35412108  0.88413701  0.82904748  1
  H+  H172  1  0.58218023  0.41978719  0.73572698  1
  H+  H173  1  0.77617572  0.86140688  0.29208329  1
  H+  H174  1  0.14821884  0.61219319  0.55782357  1
  H+  H175  1  0.89288854  0.61729648  0.66114097  1
  H+  H176  1  0.89914998  0.05730833  0.28188389  1
  H+  H177  1  0.35652531  0.22788351  0.67470252  1
  H+  H178  1  0.47227488  0.86528640  0.66046514  1
  H+  H179  1  0.28783937  0.11562690  0.16679520  1
  H+  H180  1  0.34051739  0.12373753  0.34047903  1
  H+  H181  1  0.35799459  0.88713657  0.67560317  1
  H+  H182  1  0.70342292  0.19819758  0.94683479  1
  H+  H183  1  0.43796565  0.65730033  0.18053610  1
  H+  H184  1  0.79378192  0.64392720  0.83034401  1
  H+  H185  1  0.63061445  0.86461168  -0.01887180  1
  H+  H186  1  0.07585184  0.41730597  0.09928385  1
  H+  H187  1  0.26320840  0.63375517  0.49304310  1
  H+  H188  1  0.37100341  0.07246322  0.26269926  1
  H+  H189  1  0.11483667  0.97700800  0.33491733  1
  H+  H190  1  0.14686406  0.38936226  0.84162742  1
  H+  H191  1  0.59075132  0.84805923  0.31058244  1
  H+  H192  1  0.63343634  0.23869287  0.67962885  1
  H+  H193  1  0.36108131  0.13996709  0.82928703  1
  H+  H194  1  0.60556595  0.72858687  0.49549799  1
  H+  H195  1  0.14786671  0.51303551  0.67394902  1
  H+  H196  1  0.66754793  0.07983351  0.21919330  1
  H+  H197  1  0.36928024  0.22125447  0.01312201  1
  H+  H198  1  0.38520528  0.35580914  -0.00680399  1
  H+  H199  1  0.88747649  0.01040883  0.99274230  1
  H+  H200  1  0.72085648  0.86323123  0.65943249  1
  H+  H201  1  0.61022832  0.48081577  0.34553995  1
  H+  H202  1  0.87106238  0.24620531  0.00760275  1
  H+  H203  1  0.51742520  0.64447305  0.81212857  1
  H+  H204  1  0.39904673  0.26050192  0.18834916  1
  H+  H205  1  0.37101916  0.76521035  0.32805529  1
  H+  H206  1  0.35599463  0.51319820  0.14822479  1
  H+  H207  1  1.00374894  0.17020476  0.16994136  1
  H+  H208  1  0.34895703  0.62513714  0.49519133  1
  H+  H209  1  1.10490808  0.13145434  0.32519675  1
  H+  H210  1  0.13618772  0.10939343  0.00651256  1
  H+  H211  1  0.22788167  0.10995937  0.83305315  1
  H+  H212  1  0.61042093  0.64206187  0.49340907  1
  H+  H213  1  0.15598231  0.38028900  0.69814393  1
  H+  H214  1  0.86879270  0.89020101  0.67232895  1
  H+  H215  1  0.45053850  0.13305357  0.16856098  1
  H+  H216  1  0.84707640  1.01040751  0.20043203  1
  H+  H217  1  0.34881626  0.00617843  0.31741684  1
  H+  H218  1  0.39387080  0.34865152  0.36036296  1
  H+  H219  1  0.13752206  0.61725270  0.84042699  1
  H+  H220  1  0.28394060  0.39091050  0.69618124  1
  H+  H221  1  0.23548932  0.62607181  0.16214047  1
  H+  H222  1  0.22719657  0.11220438  0.65980510  1
  H+  H223  1  0.01872634  0.30288030  0.38435163  1
  H+  H224  1  0.63552865  0.14514460  0.82628257  1
  H+  H225  1  0.11431122  0.39177416  0.00682003  1
  H+  H226  1  0.11701139  0.73056684  0.67222314  1
  H+  H227  1  0.35395463  0.14260856  0.49971819  1
  H+  H228  1  0.33588630  0.42185994  0.42254238  1
  H+  H229  1  0.60412944  0.38766095  0.48823074  1
  H+  H230  1  0.50854501  0.08862185  0.27247310  1
  H+  H231  1  0.65847275  0.52733325  0.84097299  1
  H+  H232  1  0.66414387  0.60370916  0.16980367  1
  H+  H233  1  0.12322702  0.85182163  0.32025764  1
  H+  H234  1  0.36948871  0.73177253  0.67338899  1
  H+  H235  1  0.77994758  0.12360681  0.82954624  1
  H+  H236  1  0.32349533  0.91119114  0.73585059  1
  H+  H237  1  0.22213838  0.37974528  0.16699156  1
  H+  H238  1  0.36565656  0.75526898  0.17150572  1
  H+  H239  1  0.01986736  0.12936306  0.00103117  1
  H+  H240  1  0.61731355  0.38650958  0.82836271  1
  H+  H241  1  0.35337897  0.63429135  0.33999926  1
  H+  H242  1  0.22436735  0.10836545  1.01045425  1
  H+  H243  1  0.06872917  0.17429032  0.83633176  1
  H+  H244  1  0.39107639  0.27412447  0.84323184  1
  H+  H245  1  0.22103629  0.12027201  0.50600079  1
  H+  H246  1  0.21668016  0.11111111  0.32278992  1
  H+  H247  1  0.60688547  0.88476156  0.67336047  1
  H+  H248  1  0.98326223  0.87555463  0.83547930  1
  H+  H249  1  0.60964374  0.70260757  0.16440048  1
  H+  H250  1  0.86732657  0.06278934  0.82949650  1
  H+  H251  1  0.98053640  0.86433018  0.66365909  1
  H+  H252  1  0.87341552  0.39312065  0.82901646  1
  H+  H253  1  0.13696786  0.86189788  0.65912385  1
  H+  H254  1  0.37860787  0.76298296  0.50951586  1
  H+  H255  1  0.63106730  0.01921820  0.83493948  1
  H+  H256  1  0.52548275  0.37479463  0.17375766  1
  H+  H257  1  0.83699078  0.91239951  0.15723955  1
  H+  H258  1  0.73373652  0.37575343  0.66447697  1
  H+  H259  1  0.63985173  0.24009823  0.83069472  1
  H+  H260  1  0.11525853  0.97223900  0.67217078  1
  H+  H261  1  0.90359573  0.58879355  0.25230958  1
  H+  H262  1  0.40924509  0.83170909  0.60258248  1
  H+  H263  1  0.83084465  0.91346273  0.56901804  1
  H+  H264  1  0.37056246  0.90269892  0.15582606  1
  H+  H265  1  0.46748289  0.61243080  0.33066441  1
  H+  H266  1  0.88355964  0.52619500  0.16910073  1
  H+  H267  1  0.72816195  0.10790745  0.67029159  1
  H+  H268  1  0.60869217  0.14262921  0.50719695  1
  H+  H269  1  0.76602996  0.87969893  1.00021071  1
  H+  H270  1  0.61060154  0.38897115  0.67709011  1
  H+  H271  1  0.13593814  0.10678656  0.65742114  1
  H+  H272  1  0.16573120  0.07681137  0.25979660  1
  H+  H273  1  0.38955641  0.52681837  0.66076553  1
  H+  H274  1  0.74194499  0.37450540  0.84438248  1
  H+  H275  1  0.88238818  0.29029426  0.16990606  1
  H+  H276  1  0.62375904  0.86254469  0.50610874  1
  H+  H277  1  0.62805426  0.86318471  0.82622471  1
  H+  H278  1  0.63218809  0.14583077  0.68178235  1
  H+  H279  1  0.66884326  0.59528157  0.40264033  1
  H+  H280  1  0.52202547  0.38720403  0.33900994  1
  H+  H281  1  0.31844264  0.61443716  0.16415141  1
  H+  H282  1  0.20710443  0.84521816  0.31263752  1
  H+  H283  1  0.89365047  0.78871213  0.83600659  1
  H+  H284  1  0.51587811  0.87983982  0.49907613  1
  H+  H285  1  0.83932535  0.15410039  0.77163262  1
  H+  H286  1  0.73185368  0.35769474  0.15879524  1
  H+  H287  1  0.14856873  0.62849735  0.66103696  1
  H+  H288  1  0.02227252  0.88893679  0.00529763  1
  H+  H289  1  0.22708929  0.86329499  0.66071974  1
  H+  H290  1  0.86918827  0.72822140  0.67398285  1
  H+  H291  1  0.36485428  0.84357911  0.98566594  1
  H+  H292  1  0.57188521  0.91968902  0.76499082  1
  H+  H293  1  0.55785342  0.15026149  0.07602164  1
  H+  H294  1  0.83697394  0.91027348  0.40549551  1
  H+  H295  1  0.09503229  0.43726647  0.77216093  1
  H+  H296  1  0.30689144  0.89228662  0.38333215  1
  H+  H297  1  0.73777816  0.09692083  0.31481842  1
  H+  H298  1  0.08013252  0.91030352  0.10016863  1
  H+  H299  1  0.03626900  0.68123270  0.17485712  1
  H+  H300  1  0.69251675  0.58962289  0.89848094  1
  H+  H301  1  0.06153037  0.39852594  0.40289970  1
  H+  H302  1  0.57375756  0.61937146  0.11787605  1
  H+  H303  1  0.15441516  0.58239606  0.93584694  1
  H+  H304  1  0.85198615  0.67556499  0.77072625  1
  H+  H305  1  0.67514915  0.58958993  0.56142203  1
  H+  H306  1  0.87618551  0.48423381  0.83307439  1
  H+  H307  1  0.41828543  0.59559620  0.89945443  1
  H+  H308  1  0.41931074  0.32657790  0.93560981  1
  H+  H309  1  0.59079024  0.96484220  0.34076639  1
  H+  H310  1  0.33307491  0.42396466  0.05697966  1
  H+  H311  1  0.66678038  0.08213053  0.89377282  1
  H+  H312  1  0.33319936  0.17547841  0.77087929  1
  H+  H313  1  0.08676713  0.16633312  0.09778583  1
  H+  H314  1  0.39559876  0.07460651  0.89747248  1
  H+  H315  1  0.85300637  0.23013037  0.33172117  1
  H+  H316  1  0.86583530  0.98029574  0.51659331  1
  H+  H317  1  0.85326601  0.87488023  0.00082914  1
  H+  H318  1  0.57210438  0.14740387  0.44308517  1
  H+  H319  1  0.37895366  0.61001474  0.99648287  1
  H+  H320  1  0.32232661  0.66169812  0.39942617  1
  H+  H321  1  0.09855144  0.74915567  0.98630633  1
  H+  H322  1  0.84705883  0.43275113  0.43053098  1
  H+  H323  1  0.90835235  0.34196214  0.26281601  1
  H+  H324  1  0.08610073  0.66604513  0.76561388  1
  H+  H325  1  0.18741526  0.34245759  0.60341127  1
  H+  H326  1  0.92349637  0.83288034  0.60343423  1
  H+  H327  1  -0.00476046  0.08677234  0.81465823  1
  H+  H328  1  0.17014742  0.83502709  0.56754705  1
  H+  H329  1  0.64366417  0.35596735  0.17040456  1
  H+  H330  1  0.46834156  0.36643537  0.50628741  1
  H+  H331  1  0.35620518  0.43016115  0.77546138  1
  H+  H332  1  0.63027988  0.80609471  0.21203558  1
  H+  H333  1  0.66325084  0.40940419  0.99938757  1
  H+  H334  1  0.40217032  0.81922121  0.26559723  1
  H+  H335  1  0.10513638  0.22299430  1.00338439  1
  H+  H336  1  0.74591683  0.14908997  0.51310567  1
  H+  H337  1  0.67443097  0.09533102  0.61030201  1
  H+  H338  1  0.64298516  0.61582315  0.65527778  1
  H+  H339  1  0.55984844  0.46496830  0.05187222  1
  H+  H340  1  0.58738444  0.12840313  0.33496287  1
  H+  H341  1  0.67254071  0.34250611  0.60630745  1
  H+  H342  1  0.61691452  0.70658775  0.04741445  1
  H+  H343  1  0.57440363  0.39234299  0.11047376  1
  H+  H344  1  0.73152409  0.62440963  0.34809163  1
  H+  H345  1  0.56982805  0.67234189  0.40068700  1
  H+  H346  1  0.18591783  0.36010994  0.57285119  1
  H+  H347  1  0.41916914  0.09749018  0.62359256  1
  H+  H348  1  0.83338107  0.17233737  0.43006943  1
  H+  H349  1  0.93580767  0.60051572  0.90276860  1
  H+  H350  1  0.66180004  0.51614810  0.16138206  1
  H+  H351  1  0.84080898  0.92905727  0.72723501  1
  H+  H352  1  0.31742094  0.15938542  0.40196026  1
  H+  H353  1  0.12040064  0.79062185  0.22757195  1
  H+  H354  1  0.68287487  0.34895288  0.90360926  1
  H+  H355  1  0.91459734  0.04847414  0.92736801  1
  H+  H356  1  0.41422351  0.33864042  0.60342215  1
  H+  H357  1  0.17026314  0.34805817  0.93746750  1
  H+  H358  1  0.81119258  0.87092345  0.09246557  1
  H+  H359  1  0.84926121  0.67326755  0.39665797  1
  H+  H360  1  0.36879693  0.64147023  0.67076397  1
  H+  H361  1  0.55206785  0.93027969  0.08682864  1
  H+  H362  1  0.08472255  0.91274487  0.73240781  1
  H+  H363  1  0.85413333  0.43666547  0.09627675  1
  H+  H364  1  0.52914923  0.38726394  0.83214676  1
  H+  H365  1  0.61068731  0.72114290  0.66306639  1
  H+  H366  1  0.16334967  0.33759386  0.22633060  1
  H+  H367  1  0.62805379  0.27058127  0.48932675  1
  H+  H368  1  0.92400515  0.33162514  0.93232174  1
  H+  H369  1  0.42081220  0.32283938  0.24426283  1
  H+  H370  1  0.83780085  0.42765892  0.73608002  1
  H+  H371  1  0.57229241  0.42051811  0.43411488  1
  H+  H372  1  0.07228123  0.14843758  0.72758345  1
  H+  H373  1  0.50095632  0.87040337  -0.00366480  1
  H+  H374  1  0.27818153  0.49179499  0.10523686  1
  H+  H375  1  0.90565680  0.33453424  0.56333307  1
  H+  H376  1  0.91909003  0.84111497  0.92484133  1
  H+  H377  1  0.66694869  0.83618353  0.87938062  1
  H+  H378  1  0.96287809  0.17888470  0.23150368  1
  H+  H379  1  0.33029544  0.66696599  0.76697748  1
  H+  H380  1  0.15026247  0.82398576  0.89816577  1
  H+  H381  1  0.56957788  0.90866951  0.43841078  1
  H+  H382  1  0.47885568  0.61324845  0.65268902  1
  H+  H383  1  0.82996767  0.18396149  0.07443801  1
  O2-  O384  1  0.09334270  0.16909724  0.14317112  1
  O2-  O385  1  0.08845071  0.18084743  0.51374847  1
  O2-  O386  1  0.05604804  0.13243484  0.80429102  1
  O2-  O387  1  0.07385037  0.41639801  0.14465988  1
  O2-  O388  1  0.07770556  0.43166772  0.47675857  1
  O2-  O389  1  0.08928136  0.42870404  0.81687087  1
  O2-  O390  1  0.00062013  0.61513021  0.16685301  1
  O2-  O391  1  0.10388251  0.65690882  0.49170480  1
  O2-  O392  1  0.08725641  0.66533994  0.81112089  1
  O2-  O393  1  0.08386259  0.91336181  0.14561855  1
  O2-  O394  1  0.08661776  0.91936345  0.47752523  1
  O2-  O395  1  0.08054723  0.91218505  0.80673861  1
  O2-  O396  1  0.35123008  0.14956093  0.15550844  1
  O2-  O397  1  0.32318655  0.16997935  0.48114352  1
  O2-  O398  1  0.33524045  0.17680905  0.81617485  1
  O2-  O399  1  0.30898088  0.46601645  0.12420749  1
  O2-  O400  1  0.32886533  0.41580083  0.46720574  1
  O2-  O401  1  0.35507179  0.42992270  0.82123344  1
  O2-  O402  1  0.30162125  0.65215643  0.14439012  1
  O2-  O403  1  0.32333029  0.65979610  0.47954130  1
  O2-  O404  1  0.32667199  0.66724376  0.81225930  1
  O2-  O405  1  0.39822336  0.95532564  0.13131567  1
  O2-  O406  1  0.31848051  0.89388423  0.46502877  1
  O2-  O407  1  0.32319030  0.91239407  0.81184297  1
  O2-  O408  1  0.56353424  0.16429430  0.14543207  1
  O2-  O409  1  0.56648578  0.15514359  0.48712340  1
  O2-  O410  1  0.61262224  0.18257574  0.81007554  1
  O2-  O411  1  0.58441168  0.40438333  0.15412697  1
  O2-  O412  1  0.57393527  0.42024936  0.47956506  1
  O2-  O413  1  0.58806759  0.41736392  0.81381722  1
  O2-  O414  1  0.58260751  0.63421360  0.16088079  1
  O2-  O415  1  0.57653587  0.66837695  0.47878987  1
  O2-  O416  1  0.57361711  0.66988462  0.79164868  1
  O2-  O417  1  0.54279884  0.94642580  0.12818563  1
  O2-  O418  1  0.57564214  0.90999007  0.48334749  1
  O2-  O419  1  0.57480507  0.92412251  0.81040797  1
  O2-  O420  1  0.82751200  0.18298073  0.13724408  1
  O2-  O421  1  0.83825177  0.17335726  0.47531787  1
  O2-  O422  1  0.84104275  0.14933321  0.81671030  1
  O2-  O423  1  0.84194816  0.43111184  0.14038407  1
  O2-  O424  1  0.84057607  0.42508135  0.47574664  1
  O2-  O425  1  0.84421393  0.42482058  0.81559069  1
  O2-  O426  1  0.85686300  0.60804946  0.07143034  1
  O2-  O427  1  0.84719385  0.66853444  0.47559583  1
  O2-  O428  1  0.85572479  0.67998467  0.81581570  1
  O2-  O429  1  0.80456324  0.85641968  0.13745862  1
  O2-  O430  1  0.83384008  0.91711988  0.52469394  1
  O2-  O431  1  0.85255994  0.94767498  0.81059007  1
  O2-  O432  1  0.17963726  0.07672557  0.18130836  1
  O2-  O433  1  0.16017954  0.08895677  0.52151822  1
  O2-  O434  1  0.16592719  0.07020384  0.84205772  1
  O2-  O435  1  0.16358233  0.33787743  0.18075767  1
  O2-  O436  1  0.15399181  0.32626849  0.46371486  1
  O2-  O437  1  0.18407051  0.36467235  0.85607413  1
  O2-  O438  1  0.15526073  0.58725469  0.18606568  1
  O2-  O439  1  0.14250890  0.60516457  0.51268355  1
  O2-  O440  1  0.16600142  0.58590612  0.85787262  1
  O2-  O441  1  0.10520113  0.77529649  0.18408544  1
  O2-  O442  1  0.16846389  0.83309511  0.52150340  1
  O2-  O443  1  0.15866204  0.83007525  0.85265588  1
  O2-  O444  1  0.38801041  0.09792910  0.17891674  1
  O2-  O445  1  0.40930913  0.09599935  0.53555754  1
  O2-  O446  1  0.40038885  0.08306572  0.85282156  1
  O2-  O447  1  0.42687814  0.32163890  0.19994121  1
  O2-  O448  1  0.40773864  0.33486222  0.52113487  1
  O2-  O449  1  0.42573685  0.33400796  0.86134173  1
  O2-  O450  1  0.43053352  0.60112505  0.19101244  1
  O2-  O451  1  0.40693369  0.57592568  0.51712179  1
  O2-  O452  1  0.41551348  0.59531287  0.85435117  1
  O2-  O453  1  0.39968503  0.81289938  0.19094787  1
  O2-  O454  1  0.40686725  0.82349924  0.52445995  1
  O2-  O455  1  0.41204623  0.83369832  0.85284980  1
  O2-  O456  1  0.66551839  0.09154275  0.17531457  1
  O2-  O457  1  0.70149371  0.15152158  0.53965307  1
  O2-  O458  1  0.66984610  0.08136921  0.84918436  1
  O2-  O459  1  0.67261049  0.32135034  0.17414308  1
  O2-  O460  1  0.66341544  0.33322469  0.48050070  1
  O2-  O461  1  0.68117297  0.34005224  0.85925410  1
  O2-  O462  1  0.70150675  0.57910481  0.16180976  1
  O2-  O463  1  0.67339495  0.58937393  0.51571892  1
  O2-  O464  1  0.69958760  0.58639507  0.85439966  1
  O2-  O465  1  0.63840113  0.79169777  0.16941233  1
  O2-  O466  1  0.65280924  0.83001616  0.52301785  1
  O2-  O467  1  0.65882689  0.83172502  0.83502819  1
  O2-  O468  1  0.95789557  0.18020024  0.18757424  1
  O2-  O469  1  0.92205740  0.09277280  0.52050054  1
  O2-  O470  1  0.89868156  0.03176442  0.84126372  1
  O2-  O471  1  0.91577235  0.34873553  0.18728904  1
  O2-  O472  1  0.91292681  0.33673620  0.51852451  1
  O2-  O473  1  0.92132799  0.32766914  0.85455622  1
  O2-  O474  1  0.91156905  0.58944812  0.18176788  1
  O2-  O475  1  0.93325032  0.58835156  0.52216318  1
  O2-  O476  1  0.92581518  0.58995657  0.85884660  1
  O2-  O477  1  0.92483570  0.81479438  0.18883817  1
  O2-  O478  1  0.92449424  0.82990800  0.52255382  1
  O2-  O479  1  0.92197796  0.84964548  0.85044750  1
  O2-  O480  1  0.15798320  0.07796647  0.30485835  1
  O2-  O481  1  0.16731250  0.07821703  0.64189658  1
  O2-  O482  1  0.16385818  0.07486748  0.99780627  1
  O2-  O483  1  0.15646440  0.33168854  0.30328401  1
  O2-  O484  1  0.17041167  0.33487051  0.70844785  1
  O2-  O485  1  0.16588905  0.33928325  0.98199752  1
  O2-  O486  1  0.15502807  0.57825733  0.30384174  1
  O2-  O487  1  0.17895960  0.60083562  0.64095052  1
  O2-  O488  1  0.14745650  0.57759233  0.98100161  1
  O2-  O489  1  0.14415602  0.81382571  0.30417705  1
  O2-  O490  1  0.16722881  0.83185088  0.64290801  1
  O2-  O491  1  0.13598715  0.81031584  0.97191324  1
  O2-  O492  1  0.37354546  0.06813016  0.30718363  1
  O2-  O493  1  0.40706641  0.08916541  0.66727711  1
  O2-  O494  1  0.38607847  0.05274367  0.97726575  1
  O2-  O495  1  0.41277975  0.32293717  0.32928176  1
  O2-  O496  1  0.41477994  0.33693549  0.64861195  1
  O2-  O497  1  0.41886071  0.32745377  0.98177989  1
  O2-  O498  1  0.40726294  0.58244496  0.31361214  1
  O2-  O499  1  0.41628516  0.58404710  0.64056006  1
  O2-  O500  1  0.41250597  0.58357883  0.98001073  1
  O2-  O501  1  0.40082502  0.82519765  0.31107030  1
  O2-  O502  1  0.41041983  0.83381487  0.64803146  1
  O2-  O503  1  0.40435173  0.81855668  0.97550512  1
  O2-  O504  1  0.68472588  0.05121171  0.29386298  1
  O2-  O505  1  0.66789897  0.08407216  0.65469000  1
  O2-  O506  1  0.68442575  0.14541028  0.97001406  1
  O2-  O507  1  0.67373651  0.34169433  0.35823072  1
  O2-  O508  1  0.67225039  0.33915302  0.65054518  1
  O2-  O509  1  0.69598397  0.38077853  0.98798787  1
  O2-  O510  1  0.66858705  0.59300907  0.35821202  1
  O2-  O511  1  0.67622655  0.58730048  0.64165204  1
  O2-  O512  1  0.67937507  0.59430045  0.98106067  1
  O2-  O513  1  0.60907777  0.81363444  0.28630743  1
  O2-  O514  1  0.66012820  0.83389062  0.64641622  1
  O2-  O515  1  0.66671905  0.84130058  0.96526448  1
  O2-  O516  1  0.91439939  0.08832231  0.32049865  1
  O2-  O517  1  0.91666747  0.08809494  0.64164254  1
  O2-  O518  1  0.92075379  0.06531723  0.97038351  1
  O2-  O519  1  0.90030203  0.33547014  0.30828507  1
  O2-  O520  1  0.88781336  0.32484914  0.64451237  1
  O2-  O521  1  0.92270014  0.33536763  0.97792240  1
  O2-  O522  1  0.90036998  0.58703538  0.29908015  1
  O2-  O523  1  0.92219389  0.58481543  0.64746910  1
  O2-  O524  1  0.95591254  0.60227666  0.98920301  1
  O2-  O525  1  0.92462099  0.83176171  0.31580050  1
  O2-  O526  1  0.91948130  0.83555895  0.64852411  1
  O2-  O527  1  0.91522619  0.83674053  0.97090160  1
  O2-  O528  1  0.07783313  0.16434212  0.02042523  1
  O2-  O529  1  0.07467311  0.16211014  0.33974502  1
  O2-  O530  1  0.07935402  0.15863642  0.68283561  1
  O2-  O531  1  0.07866659  0.41726270  0.02041221  1
  O2-  O532  1  0.04250675  0.35987375  0.36631394  1
  O2-  O533  1  0.12023318  0.45200621  0.69235055  1
  O2-  O534  1  0.04797456  0.64620132  0.00748883  1
  O2-  O535  1  0.08032839  0.65775230  0.36016568  1
  O2-  O536  1  0.08960109  0.66995833  0.68788523  1
  O2-  O537  1  0.08039394  0.91077988  0.02234064  1
  O2-  O538  1  0.08752789  0.91710400  0.35148752  1
  O2-  O539  1  0.08381702  0.91143417  0.68624005  1
  O2-  O540  1  0.33992204  0.16132044  0.02871182  1
  O2-  O541  1  0.31792624  0.16197089  0.35666504  1
  O2-  O542  1  0.32243425  0.16872689  0.69126396  1
  O2-  O543  1  0.33590307  0.41489977  0.01280271  1
  O2-  O544  1  0.32474867  0.41977009  0.33933818  1
  O2-  O545  1  0.34727321  0.42654844  0.69907214  1
  O2-  O546  1  0.31599011  0.65134195  0.02181382  1
  O2-  O547  1  0.32284601  0.66435929  0.35423525  1
  O2-  O548  1  0.33751945  0.67017689  0.68705986  1
  O2-  O549  1  0.30591660  0.87901328  -0.00128092  1
  O2-  O550  1  0.31047859  0.90042920  0.33871989  1
  O2-  O551  1  0.32501094  0.91485409  0.69003320  1
  O2-  O552  1  0.55494820  0.14306544  0.02920509  1
  O2-  O553  1  0.62071068  0.16785190  0.36794485  1
  O2-  O554  1  0.60923855  0.18177924  0.70029725  1
  O2-  O555  1  0.57126249  0.42848365  0.02503413  1
  O2-  O556  1  0.58168124  0.41851223  0.35539245  1
  O2-  O557  1  0.58078195  0.41991268  0.69008202  1
  O2-  O558  1  0.58920360  0.67171028  0.01163672  1
  O2-  O559  1  0.56685891  0.66735007  0.35526540  1
  O2-  O560  1  0.58178863  0.65966663  0.67507101  1
  O2-  O561  1  0.56407375  0.90577953  0.00959754  1
  O2-  O562  1  0.55702109  0.90737569  0.35864909  1
  O2-  O563  1  0.57518315  0.91434866  0.68725363  1
  O2-  O564  1  0.83055005  0.18559773  0.02512065  1
  O2-  O565  1  0.82782845  0.17082327  0.34969177  1
  O2-  O566  1  0.83123373  0.16046922  0.69255920  1
  O2-  O567  1  0.86967561  0.44392109  0.01334699  1
  O2-  O568  1  0.84444044  0.43895803  0.35127270  1
  O2-  O569  1  0.83328669  0.42522658  0.69068254  1
  O2-  O570  1  0.80415672  0.64950261  0.06691026  1
  O2-  O571  1  0.84112934  0.67275480  0.35148827  1
  O2-  O572  1  0.84179915  0.66761878  0.68868690  1
  O2-  O573  1  0.82217842  0.90096975  0.02145752  1
  O2-  O574  1  0.89194180  0.93911118  0.38462477  1
  O2-  O575  1  0.83871451  0.92318670  0.68229986  1
