# generated using pymatgen
data_H2O
_symmetry_space_group_name_H-M   'P 1'
_cell_length_a   17.99323335
_cell_length_b   17.99818335
_cell_length_c   22.00767622
_cell_angle_alpha   89.98819682
_cell_angle_beta   90.00423149
_cell_angle_gamma   120.00621660
_symmetry_Int_Tables_number   1
_chemical_formula_structural   H2O
_chemical_formula_sum   'H384 O192'
_cell_volume   6171.85174910
_cell_formula_units_Z   192
loop_
 _symmetry_equiv_pos_site_id
 _symmetry_equiv_pos_as_xyz
  1  'x, y, z'
loop_
 _atom_type_symbol
 _atom_type_oxidation_number
  H+  1.0
  O2-  -2.0
loop_
 _atom_site_type_symbol
 _atom_site_label
 _atom_site_symmetry_multiplicity
 _atom_site_fract_x
 _atom_site_fract_y
 _atom_site_fract_z
 _atom_site_occupancy
  H+  H0  1  0.23245907  0.10942820  0.17277664  1
  H+  H1  1  0.47784019  0.60521152  1.01541380  1
  H+  H2  1  0.37416855  0.76237445  0.82784141  1
  H+  H3  1  0.86633417  0.89281040  0.47605406  1
  H+  H4  1  0.86080797  0.87822822  0.69323023  1
  H+  H5  1  0.64285294  0.53602424  0.84774853  1
  H+  H6  1  0.89275271  0.79746368  0.84131044  1
  H+  H7  1  0.22641254  0.35813620  0.00859774  1
  H+  H8  1  0.61209333  0.36767722  0.15846264  1
  H+  H9  1  0.97336539  0.36423873  0.64398526  1
  H+  H10  1  0.62170877  0.49424199  1.01706669  1
  H+  H11  1  0.14406545  0.61837386  0.32277789  1
  H+  H12  1  0.88943544  0.11616053  0.85100920  1
  H+  H13  1  0.64213862  0.78060373  0.50535009  1
  H+  H14  1  0.62787083  1.01251779  0.84200378  1
  H+  H15  1  0.84993835  0.34760804  0.49937432  1
  H+  H16  1  0.12165104  0.52711801  0.50789339  1
  H+  H17  1  0.84301848  0.63040481  0.00857626  1
  H+  H18  1  -0.00454231  0.64898589  0.83826837  1
  H+  H19  1  0.47318301  0.10994442  0.50232493  1
  H+  H20  1  0.51819871  0.11607004  0.34751545  1
  H+  H21  1  0.60843520  0.22636545  0.49436423  1
  H+  H22  1  0.87399228  0.26798629  0.33208808  1
  H+  H23  1  0.65564088  0.58238586  0.26223557  1
  H+  H24  1  0.60711359  0.92226595  0.10809609  1
  H+  H25  1  0.16420669  0.39685965  0.19350391  1
  H+  H26  1  0.41847141  0.57571429  0.75823815  1
  H+  H27  1  0.49589187  0.37612648  1.00817817  1
  H+  H28  1  0.52693022  0.13367510  0.64599321  1
  H+  H29  1  0.36058612  0.75134070  0.98613991  1
  H+  H30  1  0.14179802  0.10870925  0.49151140  1
  H+  H31  1  0.63923710  0.41690859  1.00899108  1
  H+  H32  1  0.11904881  -0.02280205  0.47485479  1
  H+  H33  1  0.40715096  0.78146635  0.16200284  1
  H+  H34  1  0.37159018  0.22119028  0.67290455  1
  H+  H35  1  0.34238503  0.87242815  0.00047792  1
  H+  H36  1  0.18849582  0.36136005  0.25241668  1
  H+  H37  1  0.26538110  0.39240487  0.84304449  1
  H+  H38  1  0.35570787  0.87952931  0.82292562  1
  H+  H39  1  0.03446781  0.65223817  0.33104386  1
  H+  H40  1  0.51069121  0.11913665  0.00325001  1
  H+  H41  1  0.59361402  0.62198995  0.13131580  1
  H+  H42  1  0.61972590  0.98072636  0.67019745  1
  H+  H43  1  0.85703526  0.97378460  0.02802743  1
  H+  H44  1  0.21395301  0.07127698  0.33468405  1
  H+  H45  1  0.37967047  0.10013472  0.16972849  1
  H+  H46  1  0.60460477  0.70273706  0.05787218  1
  H+  H47  1  0.32264339  0.66140355  0.06059767  1
  H+  H48  1  0.55330886  0.28257464  0.28548532  1
  H+  H49  1  0.89625007  0.02016357  0.66730883  1
  H+  H50  1  0.36322349  0.63508406  0.48936413  1
  H+  H51  1  0.39798551  0.38476140  0.31391103  1
  H+  H52  1  0.34656888  0.62504837  0.80505034  1
  H+  H53  1  0.11393379  0.46591005  0.66445564  1
  H+  H54  1  0.23650371  0.62882798  0.32938582  1
  H+  H55  1  0.80150369  0.39744674  1.01044735  1
  H+  H56  1  0.12132173  0.22669629  0.49235886  1
  H+  H57  1  0.36636337  0.63471859  0.66171734  1
  H+  H58  1  0.10868066  0.88803483  0.67748905  1
  H+  H59  1  0.73402881  0.37165792  0.49593401  1
  H+  H60  1  0.86967297  0.85951042  0.33195765  1
  H+  H61  1  0.91799963  0.83641892  0.41036896  1
  H+  H62  1  0.10346152  0.88296175  0.99721462  1
  H+  H63  1  0.34502156  0.15154253  0.75798420  1
  H+  H64  1  0.51823602  0.39352405  0.34299077  1
  H+  H65  1  0.30681726  0.43196420  0.30488800  1
  H+  H66  1  0.13743234  0.78364097  0.84109686  1
  H+  H67  1  0.89057632  0.53280944  0.33125423  1
  H+  H68  1  0.98251106  0.86424713  0.46470070  1
  H+  H69  1  0.86331646  0.42673394  0.82105822  1
  H+  H70  1  0.97408880  0.87493056  -0.01249953  1
  H+  H71  1  0.15039302  0.36666340  0.34904470  1
  H+  H72  1  0.85876832  0.72848028  0.47224159  1
  H+  H73  1  0.13388045  0.26691991  0.64458137  1
  H+  H74  1  0.36588033  0.13338949  0.00035819  1
  H+  H75  1  0.02938118  0.38391996  0.17226885  1
  H+  H76  1  0.64206092  -0.02110859  1.01685399  1
  H+  H77  1  0.91537626  0.32787906  0.23844496  1
  H+  H78  1  0.63095021  0.86318127  0.83888394  1
  H+  H79  1  0.39923889  0.64744128  0.32849086  1
  H+  H80  1  0.22498100  0.87221642  0.84208172  1
  H+  H81  1  0.11850958  0.22596700  1.02142922  1
  H+  H82  1  0.11355173  -0.02367138  0.99518516  1
  H+  H83  1  0.29236437  0.39482181  0.17556284  1
  H+  H84  1  0.37437042  0.22689293  1.00427260  1
  H+  H85  1  0.62020379  0.89314208  0.67091223  1
  H+  H86  1  0.60285280  0.38955767  0.82969479  1
  H+  H87  1  0.72696815  0.84695992  0.18921627  1
  H+  H88  1  0.37607045  -0.03855352  0.34259557  1
  H+  H89  1  0.61881650  0.26397466  0.84568509  1
  H+  H90  1  0.35385888  0.38884522  0.83537952  1
  H+  H91  1  0.38352688  0.35614255  0.66501749  1
  H+  H92  1  0.59717977  0.17667967  0.59617536  1
  H+  H93  1  0.61397979  0.64324669  0.33774037  1
  H+  H94  1  0.11415273  0.89304449  0.31748216  1
  H+  H95  1  0.82118241  0.66080323  0.07246079  1
  H+  H96  1  1.02220253  0.14871761  0.84491984  1
  H+  H97  1  0.87951619  0.86037100  0.18206972  1
  H+  H98  1  0.28308970  0.64636412  0.15401080  1
  H+  H99  1  0.87544759  0.01973390  0.32908649  1
  H+  H100  1  0.15700829  0.84416742  0.11644766  1
  H+  H101  1  0.02836114  0.89509614  0.32934238  1
  H+  H102  1  0.27416874  0.87071554  0.15293107  1
  H+  H103  1  0.20664415  0.63420826  0.87885897  1
  H+  H104  1  0.36800487  0.21977094  0.15492887  1
  H+  H105  1  0.63083116  0.10287853  0.84568197  1
  H+  H106  1  0.39558879  0.36158902  0.17036383  1
  H+  H107  1  0.40338798  0.86675037  0.16661276  1
  H+  H108  1  0.15588831  0.52073972  0.17857284  1
  H+  H109  1  0.60967076  0.88521357  0.34336435  1
  H+  H110  1  0.71644484  0.62268261  0.17124665  1
  H+  H111  1  0.65187066  0.76975166  0.97686113  1
  H+  H112  1  0.61274953  0.62557046  1.02562302  1
  H+  H113  1  0.08951881  0.49734515  0.82123357  1
  H+  H114  1  0.61276917  0.48294130  0.67576306  1
  H+  H115  1  0.20888887  0.84775994  0.99692086  1
  H+  H116  1  0.95612565  0.46193801  0.79246641  1
  H+  H117  1  0.69949075  0.34912272  0.82561057  1
  H+  H118  1  0.36241833  0.75596440  0.35002911  1
  H+  H119  1  0.51417139  0.87884386  0.82203260  1
  H+  H120  1  0.85340055  0.72299138  0.65024758  1
  H+  H121  1  0.63475235  0.37186375  0.66534344  1
  H+  H122  1  0.51472614  0.12629757  0.16262339  1
  H+  H123  1  0.14110300  0.79054625  0.65302401  1
  H+  H124  1  0.40832336  0.78171452  0.50291042  1
  H+  H125  1  0.37470325  0.48154018  0.48019158  1
  H+  H126  1  0.06340662  0.38472817  0.52289512  1
  H+  H127  1  0.76057767  0.88861706  0.33971581  1
  H+  H128  1  0.85567271  0.63827733  0.64044529  1
  H+  H129  1  0.37221379  0.13354793  0.66759933  1
  H+  H130  1  0.16070114  0.37072495  0.48423830  1
  H+  H131  1  0.62938664  0.52618374  0.32385437  1
  H+  H132  1  0.35890998  -0.03556879  0.15505541  1
  H+  H133  1  0.11851250  0.75297435  0.15022494  1
  H+  H134  1  0.81645172  0.46098862  0.50355421  1
  H+  H135  1  0.61217580  0.64186593  0.49403581  1
  H+  H136  1  0.30716808  0.53685791  0.20682267  1
  H+  H137  1  0.11343460  1.00169198  0.64230802  1
  H+  H138  1  0.65348037  0.78985723  0.66002012  1
  H+  H139  1  0.86553642  0.11934362  0.01168279  1
  H+  H140  1  0.78269051  0.66090537  0.82485684  1
  H+  H141  1  0.10580577  0.21960053  0.34338898  1
  H+  H142  1  0.64010060  0.88890169  0.01510690  1
  H+  H143  1  0.02361410  0.90039195  0.83567476  1
  H+  H144  1  0.78226389  0.89258131  0.67363924  1
  H+  H145  1  0.38627143  0.35906080  0.50405845  1
  H+  H146  1  0.47421541  0.89372530  0.34790089  1
  H+  H147  1  0.34852674  0.62580450  0.00321715  1
  H+  H148  1  0.59224930  0.92146800  0.40878880  1
  H+  H149  1  0.61501550  0.35991702  0.50877867  1
  H+  H150  1  0.00395395  0.63528522  0.15908561  1
  H+  H151  1  0.63655518  0.28300313  0.65495937  1
  H+  H152  1  0.86802485  0.22705571  0.16426988  1
  H+  H153  1  0.87764220  0.32784437  0.86762111  1
  H+  H154  1  0.39023654  0.10699359  0.83594071  1
  H+  H155  1  0.11662621  0.65849726  0.65774954  1
  H+  H156  1  0.37355696  0.21530335  0.81282154  1
  H+  H157  1  0.12396702  0.11489565  0.84554933  1
  H+  H158  1  0.63804182  0.11306711  0.16575066  1
  H+  H159  1  0.10171451  0.88416288  0.17447401  1
  H+  H160  1  0.88855158  0.11178274  0.17649536  1
  H+  H161  1  0.63148134  0.77859482  0.33558350  1
  H+  H162  1  0.60667020  0.25307548  0.32315519  1
  H+  H163  1  0.01966161  0.12824977  0.65946427  1
  H+  H164  1  0.36500657  0.88710043  0.66956380  1
  H+  H165  1  0.88181093  0.77247741  0.74045498  1
  H+  H166  1  0.14312255  0.02408916  0.18947752  1
  H+  H167  1  0.38386837  0.11628266  0.50217103  1
  H+  H168  1  0.76614068  0.12184787  0.83292462  1
  H+  H169  1  0.52779089  0.64256938  0.81893763  1
  H+  H170  1  0.96235298  0.84004387  0.70005704  1
  H+  H171  1  0.85462957  0.89544067  0.83206832  1
  H+  H172  1  0.77748722  0.38232114  0.16049027  1
  H+  H173  1  0.36676962  0.22163254  0.49688681  1
  H+  H174  1  1.01718772  0.89030050  0.17841668  1
  H+  H175  1  0.14860899  0.78797208  0.30396733  1
  H+  H176  1  0.11698820  0.13221545  0.17056165  1
  H+  H177  1  0.39315245  1.01897215  0.65726703  1
  H+  H178  1  0.59831338  0.20808755  0.00501445  1
  H+  H179  1  0.47651407  0.90858069  0.06400389  1
  H+  H180  1  0.72430064  0.10118265  0.33767568  1
  H+  H181  1  0.84645007  0.63297410  0.16754683  1
  H+  H182  1  0.15499951  0.79269827  0.49769279  1
  H+  H183  1  0.37583594  0.01169477  0.99234202  1
  H+  H184  1  0.36963356  -0.00524703  0.49586473  1
  H+  H185  1  0.48372396  0.87094600  0.65844910  1
  H+  H186  1  0.90639098  0.60510394  0.71984674  1
  H+  H187  1  0.89548093  0.59040914  0.92194957  1
  H+  H188  1  0.63172104  0.09957723  0.33720314  1
  H+  H189  1  0.14701968  0.49092472  0.35443974  1
  H+  H190  1  0.65078585  0.11595041  0.64681513  1
  H+  H191  1  0.89282579  0.10892902  0.66811530  1
  H+  H192  1  0.48035139  0.61739319  0.50138907  1
  H+  H193  1  0.23335266  0.12096169  -0.01012821  1
  H+  H194  1  0.89469760  0.25702034  1.00504427  1
  H+  H195  1  0.39649968  0.78101034  0.65308401  1
  H+  H196  1  0.85857081  0.64153418  0.48573005  1
  H+  H197  1  0.81646869  0.65675380  0.39231150  1
  H+  H198  1  0.76242484  0.63152080  0.33022974  1
  H+  H199  1  -0.03477410  0.10803770  0.33172160  1
  H+  H200  1  0.27268440  0.89702687  0.49045682  1
  H+  H201  1  0.62589244  0.14609370  0.49010487  1
  H+  H202  1  0.72117560  0.61638830  0.50677545  1
  H+  H203  1  0.09173329  0.16257059  1.08099840  1
  H+  H204  1  0.12024632  0.09110268  0.62723161  1
  H+  H205  1  0.23681300  0.61770478  0.65567504  1
  H+  H206  1  0.46247009  0.56171775  0.64314400  1
  H+  H207  1  0.89275022  0.36205132  0.17834717  1
  H+  H208  1  0.62548133  -0.00326162  0.34377829  1
  H+  H209  1  0.38675940  0.01508882  0.83874124  1
  H+  H210  1  0.64089847  0.10501390  -0.00282937  1
  H+  H211  1  0.92991497  0.55003903  0.47572655  1
  H+  H212  1  0.85277474  0.72548372  0.16717386  1
  H+  H213  1  0.51717009  0.37170357  0.15925504  1
  H+  H214  1  0.25938642  0.37173688  0.67700815  1
  H+  H215  1  0.08764426  0.92475243  0.73760287  1
  H+  H216  1  0.15181616  0.58534529  0.69268410  1
  H+  H217  1  0.30626152  0.03658328  0.30383739  1
  H+  H218  1  0.84514301  0.41600753  1.10591393  1
  H+  H219  1  0.87732880  0.35726218  0.33063422  1
  H+  H220  1  0.89069357  0.37538311  0.64296515  1
  H+  H221  1  0.39954381  0.81556955  0.89014587  1
  H+  H222  1  0.36729166  0.38483071  0.02019761  1
  H+  H223  1  0.80730921  0.20336050  0.49899605  1
  H+  H224  1  -0.01459024  0.38105541  0.49080219  1
  H+  H225  1  0.85963352  0.97350251  0.17312397  1
  H+  H226  1  0.10672389  0.37563886  0.67029655  1
  H+  H227  1  0.24636819  0.36991474  0.49259190  1
  H+  H228  1  0.88229811  0.86874958  -0.00333246  1
  H+  H229  1  0.72383979  0.86606951  0.83737626  1
  H+  H230  1  0.60383715  0.39033462  0.34404785  1
  H+  H231  1  0.33926371  0.68587645  0.40159323  1
  H+  H232  1  0.02632445  0.37424631  0.02034178  1
  H+  H233  1  0.72980320  0.11591721  0.16771866  1
  H+  H234  1  0.36680314  0.64392751  0.14920286  1
  H+  H235  1  0.63985610  0.62043482  0.66187862  1
  H+  H236  1  0.21941916  0.33651813  0.35172112  1
  H+  H237  1  0.64214006  0.62345443  0.84752894  1
  H+  H238  1  0.51227402  0.12382432  0.83591521  1
  H+  H239  1  0.12399828  1.01730131  0.84567467  1
  H+  H240  1  0.78748951  0.13169766  0.67484798  1
  H+  H241  1  0.02664429  0.12900350  0.16692874  1
  H+  H242  1  0.63128432  0.89945681  0.49356971  1
  H+  H243  1  0.67299896  0.83766530  0.92507989  1
  H+  H244  1  0.72792460  0.62154291  1.00645290  1
  H+  H245  1  0.77341967  0.39564582  0.66641151  1
  H+  H246  1  0.97143632  0.35979356  0.84379701  1
  H+  H247  1  0.54136516  0.89816763  0.49443022  1
  H+  H248  1  0.57939997  0.91544917  0.76524308  1
  H+  H249  1  0.10831489  0.46752285  1.01557350  1
  H+  H250  1  0.86728261  -0.01882745  0.49439049  1
  H+  H251  1  0.76973762  0.88653443  0.01451481  1
  H+  H252  1  0.27645872  0.63919716  0.49306653  1
  H+  H253  1  0.61485884  0.73460751  0.83110711  1
  H+  H254  1  0.07997737  0.70341861  0.00274549  1
  H+  H255  1  0.94602588  0.03292756  0.96689957  1
  H+  H256  1  0.04938840  0.66625251  0.48013294  1
  H+  H257  1  0.57585708  0.15824853  0.77880487  1
  H+  H258  1  0.47396854  0.36573355  0.83453220  1
  H+  H259  1  0.72469306  0.61626975  0.64310118  1
  H+  H260  1  0.77880844  0.12447130  1.00795344  1
  H+  H261  1  0.36304948  0.47117508  0.01843284  1
  H+  H262  1  0.85790220  0.20841928  0.83279355  1
  H+  H263  1  0.76906321  0.39636319  0.33713079  1
  H+  H264  1  0.99885621  0.11145103  1.01128149  1
  H+  H265  1  0.37786624  0.52031139  0.18115218  1
  H+  H266  1  0.07979093  0.61569790  1.00523655  1
  H+  H267  1  -0.02247273  0.10620804  0.51217474  1
  H+  H268  1  0.33251824  0.22026529  0.32367865  1
  H+  H269  1  0.13818806  0.36002139  1.01018366  1
  H+  H270  1  0.92081635  0.57186528  0.98598654  1
  H+  H271  1  0.41524663  0.60679473  0.26847934  1
  H+  H272  1  0.54187184  0.67607091  0.68523252  1
  H+  H273  1  0.85366270  0.12843349  0.34658093  1
  H+  H274  1  0.91233547  0.56209322  0.82669275  1
  H+  H275  1  0.62969217  0.26197288  0.16584823  1
  H+  H276  1  0.62557228  0.99356397  0.16496166  1
  H+  H277  1  0.88627524  0.61875750  0.32726652  1
  H+  H278  1  0.31333427  0.40241497  0.74032528  1
  H+  H279  1  0.65483690  0.74921482  0.19753976  1
  H+  H280  1  0.05984521  0.43275765  0.76329902  1
  H+  H281  1  0.14146113  0.28765650  0.85554930  1
  H+  H282  1  0.65866759  0.82954916  0.27284563  1
  H+  H283  1  0.12422078  0.64622815  0.83070849  1
  H+  H284  1  0.02753737  0.65234211  0.67482857  1
  H+  H285  1  0.11446176  0.89896296  0.83742959  1
  H+  H286  1  0.27920133  0.13221608  0.48809121  1
  H+  H287  1  0.49430029  0.95525178  1.05777687  1
  H+  H288  1  0.76967177  0.46995419  0.96069019  1
  H+  H289  1  0.88671789  0.53277319  0.67185758  1
  H+  H290  1  0.16069364  0.58897197  0.56423547  1
  H+  H291  1  0.87717061  0.37604086  0.01671894  1
  H+  H292  1  0.81344602  0.15054037  0.40525437  1
  H+  H293  1  0.66890293  0.07556943  0.93706638  1
  H+  H294  1  0.65632993  0.32061773  0.22520248  1
  H+  H295  1  0.41241072  0.57518845  0.55628546  1
  H+  H296  1  0.83586103  0.14990161  0.73789137  1
  H+  H297  1  0.41058014  0.07087107  0.93211331  1
  H+  H298  1  0.14428386  0.12138891  0.99911304  1
  H+  H299  1  0.47502386  0.36271303  0.50951125  1
  H+  H300  1  0.32605514  0.90634382  0.06334001  1
  H+  H301  1  0.09667091  0.91848120  0.41499335  1
  H+  H302  1  0.41738165  0.33525366  0.60364547  1
  H+  H303  1  0.87574450  0.52090742  0.17667095  1
  H+  H304  1  0.93096229  0.11020591  0.91449531  1
  H+  H305  1  0.90681211  0.58277881  0.23510378  1
  H+  H306  1  0.15557781  0.82457720  0.93594508  1
  H+  H307  1  0.16961159  0.34069475  0.91641176  1
  H+  H308  1  0.20454362  0.59964724  0.99141929  1
  H+  H309  1  0.52416332  0.39274715  0.67640323  1
  H+  H310  1  0.56887969  0.15455959  0.10052547  1
  H+  H311  1  0.66325365  0.04016608  0.49535983  1
  H+  H312  1  0.16120329  0.06318254  0.54601365  1
  H+  H313  1  0.32993240  0.91530664  0.76511766  1
  H+  H314  1  0.36787369  0.49628997  0.66302163  1
  H+  H315  1  0.34897007  0.42566282  0.41970119  1
  H+  H316  1  0.58002166  0.16140179  0.40321663  1
  H+  H317  1  0.61027798  0.48217306  0.49723797  1
  H+  H318  1  0.68940978  0.08642877  0.59454747  1
  H+  H319  1  0.35677670  0.92413667  0.43931497  1
  H+  H320  1  0.33969989  0.41295685  0.11033977  1
  H+  H321  1  0.89324685  0.32496633  0.55442676  1
  H+  H322  1  0.82338322  0.92132628  0.39822402  1
  H+  H323  1  0.09810726  0.42849612  0.41045606  1
  H+  H324  1  0.07941225  0.16348498  0.43637439  1
  H+  H325  1  0.64881543  0.33456952  0.56945756  1
  H+  H326  1  0.91854383  0.85673798  0.90139757  1
  H+  H327  1  0.60159231  0.68573016  0.74061360  1
  H+  H328  1  0.52894621  0.65126921  0.33896962  1
  H+  H329  1  0.10186849  0.12942501  0.34040636  1
  H+  H330  1  0.16090788  0.08855366  0.90833254  1
  H+  H331  1  0.08850710  0.41117422  0.11274498  1
  H+  H332  1  0.33325018  0.66552686  0.71911265  1
  H+  H333  1  0.43347614  0.58039740  0.95076981  1
  H+  H334  1  0.25602648  0.62621497  0.80926595  1
  H+  H335  1  0.57890954  0.42302649  0.43744080  1
  H+  H336  1  0.90592496  0.86943151  0.58028162  1
  H+  H337  1  0.13157663  0.65612894  0.48512946  1
  H+  H338  1  0.58076774  0.42611027  0.77057985  1
  H+  H339  1  0.09794681  0.68554983  0.77127656  1
  H+  H340  1  0.87393633  0.66699928  0.82109403  1
  H+  H341  1  0.38522930  0.04753426  0.22679240  1
  H+  H342  1  0.95410563  0.89386102  0.58222171  1
  H+  H343  1  0.58463381  0.67268330  0.43405565  1
  H+  H344  1  0.33699196  0.16101440  0.09540847  1
  H+  H345  1  0.53077785  0.89174955  0.16323745  1
  H+  H346  1  0.67838201  0.84486279  0.59818181  1
  H+  H347  1  0.13761442  0.56320280  0.93634052  1
  H+  H348  1  0.82233918  0.91934390  0.77198110  1
  H+  H349  1  0.07956216  0.18363611  0.78457188  1
  H+  H350  1  0.05237423  0.64987141  0.09557127  1
  H+  H351  1  0.44096299  0.36920450  0.95132656  1
  H+  H352  1  0.69787489  0.38314277  0.92867416  1
  H+  H353  1  0.42344541  0.32679727  0.22744102  1
  H+  H354  1  0.84707330  0.42608189  0.71845996  1
  H+  H355  1  0.10462275  0.14993763  0.69962139  1
  H+  H356  1  0.58928383  0.41455257  0.09880842  1
  H+  H357  1  0.17383112  0.33838158  0.59272586  1
  H+  H358  1  0.81099959  0.41627659  0.40237876  1
  H+  H359  1  0.27768930  0.89255399  0.66846371  1
  H+  H360  1  0.82396197  0.90942118  0.11620627  1
  H+  H361  1  0.22796689  0.09690314  0.26538492  1
  H+  H362  1  0.90694883  0.82749319  0.24035238  1
  H+  H363  1  0.38642547  0.51360296  0.33004246  1
  H+  H364  1  0.18912638  0.58365518  0.23590090  1
  H+  H365  1  0.14744437  0.87795493  0.49264230  1
  H+  H366  1  0.86955751  0.76776639  0.33089683  1
  H+  H367  1  0.84057761  0.16542386  0.10516929  1
  H+  H368  1  0.44653822  0.84122476  0.98665213  1
  H+  H369  1  0.66516471  0.59343455  0.94555814  1
  H+  H370  1  0.93228606  0.31730403  0.94709918  1
  H+  H371  1  0.16031376  0.83296581  0.23988339  1
  H+  H372  1  0.93589752  0.58225827  0.54302141  1
  H+  H373  1  0.17286030  0.85413858  0.59598401  1
  H+  H374  1  0.38109236  0.51893275  0.81588537  1
  H+  H375  1  0.91721029  0.07310485  0.57019453  1
  H+  H376  1  0.91392455  0.08199720  0.23725284  1
  H+  H377  1  0.27108962  -0.06086504  0.28799589  1
  H+  H378  1  0.43623336  0.84218201  0.56074569  1
  H+  H379  1  0.73381113  0.86853204  0.50390437  1
  H+  H380  1  0.41376994  0.07432791  0.59533743  1
  H+  H381  1  0.65888868  0.58580292  0.56544857  1
  H+  H382  1  0.40213323  0.29746907  0.88035840  1
  H+  H383  1  0.10322773  0.69031440  0.38442491  1
  O2-  O384  1  0.08650348  0.15924408  0.15136215  1
  O2-  O385  1  0.08722722  0.16526400  0.48118774  1
  O2-  O386  1  0.08477442  0.17539920  0.82773946  1
  O2-  O387  1  0.09028422  0.41418016  0.15800394  1
  O2-  O388  1  0.05042727  0.41404215  0.49089354  1
  O2-  O389  1  0.03962229  0.44669344  0.80137167  1
  O2-  O390  1  0.06189535  0.66112069  0.14013042  1
  O2-  O391  1  0.10981048  0.69279412  0.46717644  1
  O2-  O392  1  0.09441227  0.68255002  0.81590718  1
  O2-  O393  1  0.08027947  0.92441146  0.17133465  1
  O2-  O394  1  0.09183058  0.91532365  0.46072447  1
  O2-  O395  1  0.08661170  0.93222332  0.82250883  1
  O2-  O396  1  0.33710989  0.15923750  0.14079281  1
  O2-  O397  1  0.34253668  0.16250034  0.48063114  1
  O2-  O398  1  0.34928624  0.15411648  0.80427113  1
  O2-  O399  1  0.34941356  0.41464890  0.15530164  1
  O2-  O400  1  0.34525965  0.42110686  0.46441971  1
  O2-  O401  1  0.32294840  0.41794396  0.82037629  1
  O2-  O402  1  0.34086393  0.67710204  0.13240875  1
  O2-  O403  1  0.33583641  0.66929496  0.47728890  1
  O2-  O404  1  0.31732155  0.65745560  0.79317249  1
  O2-  O405  1  0.33497587  0.90459152  0.13932205  1
  O2-  O406  1  0.33850332  0.92898815  0.48192643  1
  O2-  O407  1  0.32916180  0.91449612  0.81061472  1
  O2-  O408  1  0.57409720  0.16055683  0.14558436  1
  O2-  O409  1  0.58491412  0.16625668  0.47904108  1
  O2-  O410  1  0.57628530  0.15999166  0.82313608  1
  O2-  O411  1  0.58086135  0.40020231  0.14461661  1
  O2-  O412  1  0.57928806  0.42085001  0.48276438  1
  O2-  O413  1  0.57681449  0.42413312  0.81628342  1
  O2-  O414  1  0.61112993  0.63415221  0.17458186  1
  O2-  O415  1  0.58224146  0.67303970  0.47968609  1
  O2-  O416  1  0.59126302  0.67446492  0.81395977  1
  O2-  O417  1  0.59686009  0.92718975  0.15335116  1
  O2-  O418  1  0.60299901  0.93198605  0.47821187  1
  O2-  O419  1  0.57619614  0.91245713  0.81073864  1
  O2-  O420  1  0.83679322  0.16557462  0.15020180  1
  O2-  O421  1  0.77801875  0.14203600  0.48465311  1
  O2-  O422  1  0.82658658  0.14852305  0.81796241  1
  O2-  O423  1  0.83948442  0.41680126  0.15174055  1
  O2-  O424  1  0.79610641  0.40751355  0.48111314  1
  O2-  O425  1  0.90138208  0.46510363  0.78973430  1
  O2-  O426  1  0.81779538  0.66491407  0.15205446  1
  O2-  O427  1  0.82207365  0.66413544  0.47115632  1
  O2-  O428  1  0.84121094  0.69534126  0.80767429  1
  O2-  O429  1  0.82866481  0.91114956  0.16144642  1
  O2-  O430  1  0.83216943  0.92227191  0.47388751  1
  O2-  O431  1  0.81494731  0.91487938  0.81695840  1
  O2-  O432  1  0.18150933  0.08692342  0.19991220  1
  O2-  O433  1  0.17038533  0.07458802  0.50049403  1
  O2-  O434  1  0.15289045  0.08236816  0.86122602  1
  O2-  O435  1  0.21276732  0.39601518  0.21527111  1
  O2-  O436  1  0.18540985  0.34271484  0.50813112  1
  O2-  O437  1  0.17214517  0.34700263  0.87122942  1
  O2-  O438  1  0.20103817  0.57840803  0.19260118  1
  O2-  O439  1  0.16128720  0.58786668  0.51956387  1
  O2-  O440  1  0.16411406  0.59719339  0.84903326  1
  O2-  O441  1  0.15974203  0.82029453  0.15565650  1
  O2-  O442  1  0.18157192  0.85327369  0.51260229  1
  O2-  O443  1  0.16475968  0.84386539  0.85757751  1
  O2-  O444  1  0.40740863  0.06718392  0.18486350  1
  O2-  O445  1  0.41291770  0.08025888  0.51694372  1
  O2-  O446  1  0.41819906  0.07493780  0.85588527  1
  O2-  O447  1  0.42636942  0.32875678  0.18229928  1
  O2-  O448  1  0.41457517  0.33078311  0.52464802  1
  O2-  O449  1  0.41035112  0.33179525  0.84415911  1
  O2-  O450  1  0.36947507  0.56657691  0.19894451  1
  O2-  O451  1  0.41706874  0.58132972  0.51180002  1
  O2-  O452  1  0.41578912  0.58154415  0.80227690  1
  O2-  O453  1  0.43842203  0.84068660  0.17902206  1
  O2-  O454  1  0.44454694  0.84181256  0.51619138  1
  O2-  O455  1  0.40561735  0.82147820  0.84503577  1
  O2-  O456  1  0.66781135  0.08234231  0.17961413  1
  O2-  O457  1  0.68999515  0.10209022  0.50948636  1
  O2-  O458  1  0.66087069  0.07213413  0.85936025  1
  O2-  O459  1  0.66069398  0.32385956  0.18017792  1
  O2-  O460  1  0.64170906  0.32547059  0.52430288  1
  O2-  O461  1  0.65101267  0.32782933  0.85343411  1
  O2-  O462  1  0.65454611  0.58451945  0.18535484  1
  O2-  O463  1  0.65980729  0.58571689  0.51988477  1
  O2-  O464  1  0.67374173  0.59538934  0.86397882  1
  O2-  O465  1  0.66787547  0.80839171  0.20502711  1
  O2-  O466  1  0.67376735  0.84072067  0.52095840  1
  O2-  O467  1  0.66127684  0.83323819  0.85447596  1
  O2-  O468  1  0.91641588  0.07934907  0.19201654  1
  O2-  O469  1  0.91690259  0.07225482  0.52500393  1
  O2-  O470  1  0.93485948  0.10725983  0.87015205  1
  O2-  O471  1  0.92054272  0.32921822  0.19281424  1
  O2-  O472  1  0.88039859  0.31602108  0.50894457  1
  O2-  O473  1  0.92246514  0.31258046  0.86716674  1
  O2-  O474  1  0.89976454  0.58183595  0.19014895  1
  O2-  O475  1  0.93334473  0.59671604  0.50054186  1
  O2-  O476  1  0.93118435  0.61838726  0.84576848  1
  O2-  O477  1  0.90842336  0.82730394  0.19541199  1
  O2-  O478  1  0.91928524  0.83441149  0.45534669  1
  O2-  O479  1  0.92412292  0.85849649  0.85462764  1
  O2-  O480  1  0.25968472  0.10387345  0.30530428  1
  O2-  O481  1  0.14302586  0.05318103  0.61624760  1
  O2-  O482  1  0.17260219  0.09409192  0.97560574  1
  O2-  O483  1  0.16663245  0.32417666  0.33071384  1
  O2-  O484  1  0.16504311  0.33064775  0.63725199  1
  O2-  O485  1  0.16590220  0.32712863  0.99420096  1
  O2-  O486  1  0.17673492  0.58794528  0.31582161  1
  O2-  O487  1  0.17181310  0.58754982  0.65102051  1
  O2-  O488  1  0.14219061  0.56641463  0.98118111  1
  O2-  O489  1  0.16976754  0.84487801  0.28379585  1
  O2-  O490  1  0.17257303  0.85233567  0.64114683  1
  O2-  O491  1  0.14905074  0.81682627  0.98095229  1
  O2-  O492  1  0.32563111  -0.00532631  0.29400114  1
  O2-  O493  1  0.42437507  0.07878180  0.64006733  1
  O2-  O494  1  0.41063871  0.07270389  0.97789886  1
  O2-  O495  1  0.41914676  0.34296195  0.30709860  1
  O2-  O496  1  0.42183416  0.33596147  0.64905704  1
  O2-  O497  1  0.43494626  0.34679162  0.99252146  1
  O2-  O498  1  0.42801091  0.61577689  0.31304389  1
  O2-  O499  1  0.40606642  0.55685306  0.64626737  1
  O2-  O500  1  0.42077431  0.57845870  0.99398251  1
  O2-  O501  1  0.41224532  0.87503235  0.34245611  1
  O2-  O502  1  0.42384291  0.84242069  0.64169131  1
  O2-  O503  1  0.38896789  0.81187385  0.96905705  1
  O2-  O504  1  0.66064556  0.06684263  0.32520310  1
  O2-  O505  1  0.68056156  0.08295321  0.63909486  1
  O2-  O506  1  0.67557739  0.07990411  0.98240168  1
  O2-  O507  1  0.61172458  0.30381829  0.30038768  1
  O2-  O508  1  0.66727579  0.34575705  0.64614824  1
  O2-  O509  1  0.71803929  0.41231610  0.96827043  1
  O2-  O510  1  0.66011539  0.58587334  0.30782210  1
  O2-  O511  1  0.65920366  0.58274683  0.64362762  1
  O2-  O512  1  0.66307382  0.59052506  0.99092781  1
  O2-  O513  1  0.65661120  0.83831664  0.31881942  1
  O2-  O514  1  0.68017037  0.84917113  0.64380799  1
  O2-  O515  1  0.67657373  0.83129717  0.97116241  1
  O2-  O516  1  0.90545938  0.08173802  0.31619145  1
  O2-  O517  1  0.92483134  0.07989654  0.65050028  1
  O2-  O518  1  0.93854242  0.07324812  0.99237280  1
  O2-  O519  1  0.90561223  0.32650410  0.31495319  1
  O2-  O520  1  0.91838603  0.34620594  0.62307900  1
  O2-  O521  1  0.92691912  0.31854021  0.99187530  1
  O2-  O522  1  0.92135063  0.59212463  0.31493820  1
  O2-  O523  1  0.91809813  0.59721454  0.67769570  1
  O2-  O524  1  0.87146719  0.56662922  0.96277440  1
  O2-  O525  1  0.90557309  0.83166968  0.32514721  1
  O2-  O526  1  0.89811293  0.80549216  0.70208492  1
  O2-  O527  1  0.91495514  0.85146821  0.97005037  1
  O2-  O528  1  0.09186457  0.16415910  0.03407673  1
  O2-  O529  1  0.07230139  0.15787753  0.35695937  1
  O2-  O530  1  0.08673672  0.16264459  0.66120000  1
  O2-  O531  1  0.08738291  0.40981082  0.03414495  1
  O2-  O532  1  0.13994625  0.44027800  0.37794062  1
  O2-  O533  1  0.07909382  0.40925277  0.68362916  1
  O2-  O534  1  0.04544220  0.64279601  0.01652415  1
  O2-  O535  1  0.09736495  0.68457785  0.33960087  1
  O2-  O536  1  0.09114474  0.68692357  0.68087766  1
  O2-  O537  1  0.07568409  0.91675790  0.00836728  1
  O2-  O538  1  0.08998680  0.92435811  0.33965185  1
  O2-  O539  1  0.07171348  0.90990918  0.69436016  1
  O2-  O540  1  0.33824635  0.16613423  0.01624630  1
  O2-  O541  1  0.36151253  0.27337372  0.34890617  1
  O2-  O542  1  0.34216520  0.16094705  0.68677511  1
  O2-  O543  1  0.33305582  0.41113906  0.03399788  1
  O2-  O544  1  0.35465032  0.44852802  0.33316140  1
  O2-  O545  1  0.31854848  0.40273976  0.69502042  1
  O2-  O546  1  0.31547106  0.65404665  0.01457930  1
  O2-  O547  1  0.34176329  0.69429268  0.35637287  1
  O2-  O548  1  0.33835396  0.66781340  0.67321061  1
  O2-  O549  1  0.31852366  0.90699617  0.01799721  1
  O2-  O550  1  0.40717320  0.94533816  0.37353454  1
  O2-  O551  1  0.33671856  0.91877351  0.68605839  1
  O2-  O552  1  0.57118872  0.14954358  0.02051623  1
  O2-  O553  1  0.57834334  0.15588975  0.35738633  1
  O2-  O554  1  0.59170536  0.17180260  0.64036850  1
  O2-  O555  1  0.59855538  0.43177734  0.02987570  1
  O2-  O556  1  0.57848355  0.42454152  0.35879332  1
  O2-  O557  1  0.58422007  0.42336074  0.69317108  1
  O2-  O558  1  0.57395292  0.64087833  0.05114754  1
  O2-  O559  1  0.58751925  0.67479785  0.35705024  1
  O2-  O560  1  0.59957019  0.68730947  0.69435987  1
  O2-  O561  1  0.61965534  0.92272349  0.03766231  1
  O2-  O562  1  0.58436185  0.92028264  0.36213416  1
  O2-  O563  1  0.58751449  0.92085905  0.68639805  1
  O2-  O564  1  0.83852426  0.15245870  0.02500155  1
  O2-  O565  1  0.81843426  0.15476002  0.36044175  1
  O2-  O566  1  0.84487464  0.15465241  0.69331465  1
  O2-  O567  1  0.85459325  0.41256277  0.03261897  1
  O2-  O568  1  0.82423967  0.42275413  0.35803150  1
  O2-  O569  1  0.83686404  0.42726173  0.67432047  1
  O2-  O570  1  0.81491984  0.65999083  0.02749996  1
  O2-  O571  1  0.82254984  0.66177750  0.34711047  1
  O2-  O572  1  0.82524705  0.66812609  0.62674750  1
  O2-  O573  1  0.82344719  0.91233328  0.03892384  1
  O2-  O574  1  0.82260365  0.91722397  0.35247164  1
  O2-  O575  1  0.83887995  0.91930836  0.69490935  1
