# generated using pymatgen
data_H2O
_symmetry_space_group_name_H-M   'P 1'
_cell_length_a   17.99505528
_cell_length_b   17.99943449
_cell_length_c   22.00636193
_cell_angle_alpha   90.00316846
_cell_angle_beta   89.99299083
_cell_angle_gamma   120.00218009
_symmetry_Int_Tables_number   1
_chemical_formula_structural   H2O
_chemical_formula_sum   'H384 O192'
_cell_volume   6172.78832312
_cell_formula_units_Z   192
loop_
 _symmetry_equiv_pos_site_id
 _symmetry_equiv_pos_as_xyz
  1  'x, y, z'
loop_
 _atom_type_symbol
 _atom_type_oxidation_number
  H+  1.0
  O2-  -2.0
loop_
 _atom_site_type_symbol
 _atom_site_label
 _atom_site_symmetry_multiplicity
 _atom_site_fract_x
 _atom_site_fract_y
 _atom_site_fract_z
 _atom_site_occupancy
  H+  H0  1  0.98603252  0.37397740  0.84639240  1
  H+  H1  1  0.86576941  0.48108017  1.00438633  1
  H+  H2  1  -0.00905356  0.86330833  0.83077645  1
  H+  H3  1  0.63652789  0.02071619  0.67109616  1
  H+  H4  1  0.10393407  0.05918569  0.49177276  1
  H+  H5  1  0.71013801  0.60923252  0.65458429  1
  H+  H6  1  0.61348725  0.63214472  0.82161692  1
  H+  H7  1  0.52469783  0.38333728  0.67600917  1
  H+  H8  1  0.86224411  0.48442888  0.49118713  1
  H+  H9  1  0.27528099  0.88719762  0.67764831  1
  H+  H10  1  0.51788787  0.63640504  0.16807742  1
  H+  H11  1  0.39349706  0.27930848  0.98973614  1
  H+  H12  1  0.11165731  0.22471799  0.00810105  1
  H+  H13  1  0.86124968  0.22379074  1.00281986  1
  H+  H14  1  0.62183093  0.14748545  0.00807132  1
  H+  H15  1  0.39370142  0.03196746  0.99750129  1
  H+  H16  1  0.60344357  0.73685443  0.34528339  1
  H+  H17  1  0.11723216  0.47105270  0.68459648  1
  H+  H18  1  0.34820290  0.37106321  0.33845255  1
  H+  H19  1  0.51571705  0.28387571  0.12912498  1
  H+  H20  1  0.35810535  0.08348530  0.53131282  1
  H+  H21  1  0.37559838  0.15112441  0.83418353  1
  H+  H22  1  0.14369096  0.11728887  0.98686505  1
  H+  H23  1  0.89158300  0.11889466  0.83512352  1
  H+  H24  1  0.38932818  0.53001424  0.84201427  1
  H+  H25  1  0.89568598  0.85290625  0.33132006  1
  H+  H26  1  0.13006233  0.28332966  0.50526980  1
  H+  H27  1  0.61783444  0.89107284  0.67111972  1
  H+  H28  1  0.85944857  0.72504847  0.50025883  1
  H+  H29  1  -0.01989533  0.11002106  0.32248166  1
  H+  H30  1  0.39308880  0.39697994  0.50937790  1
  H+  H31  1  0.78314671  0.65010078  0.15985125  1
  H+  H32  1  0.25928011  0.36138724  0.16609542  1
  H+  H33  1  0.85903790  0.59142019  0.81663104  1
  H+  H34  1  0.39390721  0.78149349  -0.00392879  1
  H+  H35  1  0.40106622  0.29162024  0.84120768  1
  H+  H36  1  0.11877275  0.38792748  0.83711871  1
  H+  H37  1  0.42231701  0.09089349  0.90249665  1
  H+  H38  1  0.61274276  0.39160489  0.01391529  1
  H+  H39  1  0.98808260  0.11935329  0.99202549  1
  H+  H40  1  0.64162374  0.11874892  0.33085057  1
  H+  H41  1  0.86614664  0.60789952  0.66118000  1
  H+  H42  1  0.15269408  0.86042632  0.50791165  1
  H+  H43  1  0.36269438  0.14062522  0.16078152  1
  H+  H44  1  0.91588916  0.34715113  0.57831605  1
  H+  H45  1  0.85370415  0.87885795  0.67208238  1
  H+  H46  1  0.23147061  0.61720788  0.83598334  1
  H+  H47  1  0.61075022  0.91795145  0.43541124  1
  H+  H48  1  0.89404055  0.02853735  0.16635162  1
  H+  H49  1  0.35967034  0.46535383  0.33740905  1
  H+  H50  1  0.52089271  0.90808355  0.82393776  1
  H+  H51  1  0.73534679  0.60838765  0.83090802  1
  H+  H52  1  0.39316803  1.04299839  0.17446315  1
  H+  H53  1  0.50213409  0.87207382  0.50797032  1
  H+  H54  1  0.87822430  0.17087065  0.50095029  1
  H+  H55  1  0.72388197  0.87190590  -0.02669352  1
  H+  H56  1  0.77547464  0.87759388  0.16777152  1
  H+  H57  1  -0.04564817  0.61870042  0.68118137  1
  H+  H58  1  0.63631058  0.28689243  0.51396452  1
  H+  H59  1  0.14594622  0.23603616  0.67079649  1
  H+  H60  1  0.37190044  0.51398534  0.50919095  1
  H+  H61  1  0.86204502  0.05328723  0.52581423  1
  H+  H62  1  0.88702774  0.31641063  0.92621650  1
  H+  H63  1  0.09867009  0.15328229  0.48359780  1
  H+  H64  1  0.12034316  0.73297228  0.67283169  1
  H+  H65  1  0.73105039  0.35939607  0.33340125  1
  H+  H66  1  0.14076628  0.85098150  0.33103880  1
  H+  H67  1  0.18409938  0.05188714  0.81437525  1
  H+  H68  1  0.87192332  0.61023076  0.33560434  1
  H+  H69  1  0.64635992  0.04216996  0.99446831  1
  H+  H70  1  0.45216472  0.83905915  0.38503154  1
  H+  H71  1  -0.02955479  0.37161958  0.51569613  1
  H+  H72  1  0.37141906  0.91143340  0.35149565  1
  H+  H73  1  0.73378840  0.37259101  0.51081104  1
  H+  H74  1  0.62311491  0.86892788  0.49313262  1
  H+  H75  1  0.88734739  0.96672983  0.33748558  1
  H+  H76  1  0.89336915  0.28590511  0.17367449  1
  H+  H77  1  0.06229229  0.63932070  0.64643757  1
  H+  H78  1  0.34392864  0.92425267  0.44442128  1
  H+  H79  1  0.53414757  0.39357199  0.82913790  1
  H+  H80  1  0.59406740  0.17211836  0.10365140  1
  H+  H81  1  0.77333351  0.39061298  0.16353757  1
  H+  H82  1  0.51288048  0.38628196  0.33819807  1
  H+  H83  1  0.53559974  0.14434560  0.16389973  1
  H+  H84  1  0.10652275  0.24758866  0.33238970  1
  H+  H85  1  0.74032295  0.38254409  0.66625327  1
  H+  H86  1  0.79747711  0.88007562  0.33828830  1
  H+  H87  1  0.85619492  0.22280478  0.67902231  1
  H+  H88  1  0.37367883  0.39923639  0.82560543  1
  H+  H89  1  0.85760652  0.89042900  0.00276340  1
  H+  H90  1  0.38840005  0.36493018  0.99536758  1
  H+  H91  1  0.37966760  0.60338452  0.52601437  1
  H+  H92  1  0.60104235  0.63887932  0.66697101  1
  H+  H93  1  0.88506418  0.28655040  0.33497094  1
  H+  H94  1  0.12631855  0.86884545  0.98752043  1
  H+  H95  1  0.45815862  0.33916371  0.17760147  1
  H+  H96  1  0.10672921  0.42196440  0.17340181  1
  H+  H97  1  0.12675320  0.51520577  0.32740294  1
  H+  H98  1  0.27778336  0.13039618  0.49949367  1
  H+  H99  1  0.87746882  0.14754437  0.15835926  1
  H+  H100  1  0.36640784  -0.02525184  0.67917967  1
  H+  H101  1  0.56384470  0.68080094  0.40540221  1
  H+  H102  1  0.36962867  0.58011756  0.17642592  1
  H+  H103  1  0.02714090  0.12301744  0.81636359  1
  H+  H104  1  0.27968913  0.90107751  0.34774684  1
  H+  H105  1  0.83538102  0.42414443  0.10437730  1
  H+  H106  1  0.22436483  0.86091326  0.17536579  1
  H+  H107  1  0.72988132  0.11676729  0.67567060  1
  H+  H108  1  0.87217865  1.02113166  0.67047378  1
  H+  H109  1  0.37147181  0.34934175  0.17987548  1
  H+  H110  1  0.07039356  0.66432423  0.05395193  1
  H+  H111  1  0.27724882  0.64897629  0.00613947  1
  H+  H112  1  0.60599207  0.07764727  0.55946069  1
  H+  H113  1  0.69010162  -0.00700881  0.51992289  1
  H+  H114  1  0.48247019  0.45410646  0.53921980  1
  H+  H115  1  0.34265464  0.22458877  0.41569595  1
  H+  H116  1  0.24689289  0.86956365  0.00422587  1
  H+  H117  1  0.13321223  0.86250615  0.66573611  1
  H+  H118  1  0.64469793  0.52394362  0.83473030  1
  H+  H119  1  1.00597834  0.60473050  0.82423061  1
  H+  H120  1  0.13797880  0.33768757  0.15844934  1
  H+  H121  1  0.61934169  0.74690776  0.98671988  1
  H+  H122  1  0.26066515  0.62952215  0.16678250  1
  H+  H123  1  0.40119315  0.63381793  -0.00667931  1
  H+  H124  1  0.62525586  0.51854251  0.65757223  1
  H+  H125  1  0.52771122  0.12903226  0.68674394  1
  H+  H126  1  0.11793802  0.49277086  0.00424638  1
  H+  H127  1  0.13132242  0.37156866  0.50644007  1
  H+  H128  1  0.63763013  0.04141019  0.83917685  1
  H+  H129  1  0.85602780  0.38706416  0.00731843  1
  H+  H130  1  0.84137064  0.90296478  0.44315319  1
  H+  H131  1  0.17860276  0.08539683  0.33507700  1
  H+  H132  1  0.38815683  0.85888939  0.66297695  1
  H+  H133  1  0.51139924  0.15964022  0.49867905  1
  H+  H134  1  0.10017004  0.72666419  -0.00340936  1
  H+  H135  1  0.52884464  0.89234226  0.67029742  1
  H+  H136  1  0.59040848  0.16806350  0.74537641  1
  H+  H137  1  0.11073735  0.98254010  1.00310494  1
  H+  H138  1  0.61414420  0.93590688  0.09156243  1
  H+  H139  1  0.28979819  0.15730793  0.83473517  1
  H+  H140  1  0.01248501  0.40589173  0.16603371  1
  H+  H141  1  0.89879652  0.85835234  0.18698505  1
  H+  H142  1  0.78322710  0.16171425  0.34723493  1
  H+  H143  1  0.89393476  0.03442409  0.98760789  1
  H+  H144  1  0.22639668  0.10842101  0.17297061  1
  H+  H145  1  0.36937880  0.91475493  0.15052929  1
  H+  H146  1  0.89001589  0.61638566  0.49695908  1
  H+  H147  1  0.63143812  0.11554634  0.68155292  1
  H+  H148  1  0.66108659  0.03933621  0.17050013  1
  H+  H149  1  0.38969672  0.11859665  0.99843317  1
  H+  H150  1  0.16066021  0.61731879  0.67728604  1
  H+  H151  1  0.90449987  0.38833511  0.84394187  1
  H+  H152  1  0.42523058  0.59944077  0.93304728  1
  H+  H153  1  0.65643746  0.29371590  0.84557351  1
  H+  H154  1  0.11866003  0.47637093  0.83104623  1
  H+  H155  1  0.38089976  0.86549629  0.84108021  1
  H+  H156  1  0.41020622  0.81521600  0.11527266  1
  H+  H157  1  0.10205364  0.66335474  0.44751135  1
  H+  H158  1  0.87621261  0.51447723  0.33406525  1
  H+  H159  1  0.91425613  0.34427362  0.27263521  1
  H+  H160  1  0.14129346  0.62477767  0.98602032  1
  H+  H161  1  0.84600495  0.72129737  0.66867602  1
  H+  H162  1  0.86347173  0.71577640  0.34552448  1
  H+  H163  1  0.89404527  0.69068710  0.80759740  1
  H+  H164  1  0.09903461  0.47118526  0.49680989  1
  H+  H165  1  0.11517341  0.84556229  0.83565158  1
  H+  H166  1  0.07485571  0.93258950  0.48973416  1
  H+  H167  1  0.38756241  0.74528425  0.50002482  1
  H+  H168  1  0.95900210  0.85018998  0.65831427  1
  H+  H169  1  0.53491325  0.90100555  0.00426192  1
  H+  H170  1  0.87004309  0.23776558  0.82875427  1
  H+  H171  1  0.78846366  0.14957914  0.15814722  1
  H+  H172  1  0.12774194  0.72252677  0.35731290  1
  H+  H173  1  0.57830202  0.90821892  0.33157850  1
  H+  H174  1  0.73023962  0.71102153  0.21103470  1
  H+  H175  1  0.14461980  0.14685604  0.66630703  1
  H+  H176  1  -0.01514994  0.11557424  0.16292629  1
  H+  H177  1  0.86380269  0.97824235  0.82310255  1
  H+  H178  1  0.87038891  0.39879537  0.34363498  1
  H+  H179  1  0.27868575  0.13885673  1.00410735  1
  H+  H180  1  0.13804881  0.01895658  0.17767652  1
  H+  H181  1  0.88278622  0.52269508  0.17909977  1
  H+  H182  1  0.38646401  1.04899120  0.33259928  1
  H+  H183  1  0.73099485  0.37474557  0.00157318  1
  H+  H184  1  0.09935928  0.94602148  0.32712217  1
  H+  H185  1  0.01674787  0.38822624  0.34051361  1
  H+  H186  1  0.21673923  0.02849117  0.50157585  1
  H+  H187  1  0.88810083  0.36726570  0.67356388  1
  H+  H188  1  0.52347675  0.65176026  0.99137849  1
  H+  H189  1  0.11746766  0.88413748  0.15824398  1
  H+  H190  1  0.64387193  0.28395025  0.99948592  1
  H+  H191  1  0.21864547  0.36598740  0.31530065  1
  H+  H192  1  0.63097444  0.52782522  0.31797004  1
  H+  H193  1  0.85986478  0.24788413  0.50396948  1
  H+  H194  1  0.21427037  0.58083575  0.52285268  1
  H+  H195  1  0.65314429  1.00241660  0.34076399  1
  H+  H196  1  0.59931410  0.09856818  0.53204482  1
  H+  H197  1  0.24036773  0.86041559  0.51563394  1
  H+  H198  1  0.11867933  0.63061479  0.35459444  1
  H+  H199  1  0.86168991  0.63764429  -0.00190699  1
  H+  H200  1  0.53537364  0.39147630  0.48946097  1
  H+  H201  1  0.36134488  0.69015616  0.17469082  1
  H+  H202  1  0.34937126  0.70475413  0.35208114  1
  H+  H203  1  0.86155250  0.86559853  0.50271174  1
  H+  H204  1  0.23687656  0.37600978  0.84768287  1
  H+  H205  1  0.12495966  0.37502108  0.01450015  1
  H+  H206  1  0.12883347  0.54464128  0.17708951  1
  H+  H207  1  0.76567156  0.88104000  0.67522875  1
  H+  H208  1  0.17667318  0.59402319  0.93017657  1
  H+  H209  1  0.55286303  0.91065477  0.14724428  1
  H+  H210  1  0.52425085  0.63319419  0.82679611  1
  H+  H211  1  0.53750143  0.15530022  0.83606696  1
  H+  H212  1  0.87763219  0.72525356  0.15541026  1
  H+  H213  1  -0.02210124  0.61276989  0.50165854  1
  H+  H214  1  0.33198830  0.91986212  0.77052131  1
  H+  H215  1  0.37411638  0.59197780  0.32996874  1
  H+  H216  1  0.63698307  0.76006011  0.51027650  1
  H+  H217  1  0.86730821  0.86196303  0.84039128  1
  H+  H218  1  0.73088588  0.63403027  -0.01448253  1
  H+  H219  1  0.62453119  0.65469699  -0.01337160  1
  H+  H220  1  -0.03136554  0.60612572  -0.02265468  1
  H+  H221  1  0.98805735  0.86077979  0.17675004  1
  H+  H222  1  0.08297883  0.05010734  0.52283640  1
  H+  H223  1  0.96089529  0.82815663  0.52325859  1
  H+  H224  1  0.12868648  0.72241301  0.50767467  1
  H+  H225  1  0.62998116  0.77336880  0.66221387  1
  H+  H226  1  0.88299896  0.77673285  0.99850378  1
  H+  H227  1  0.88266787  0.37012253  0.17467848  1
  H+  H228  1  0.13993922  0.60874040  0.52000190  1
  H+  H229  1  0.73251701  0.12629766  0.84252631  1
  H+  H230  1  0.72415339  0.60797830  0.32907194  1
  H+  H231  1  0.12079717  0.22324687  0.15791539  1
  H+  H232  1  0.13381574  0.10638282  0.82825799  1
  H+  H233  1  0.15974414  0.33351366  1.06071921  1
  H+  H234  1  0.01844783  0.89554734  0.00602276  1
  H+  H235  1  -0.02492001  0.36286818  0.67218589  1
  H+  H236  1  0.34498191  0.67113823  0.76886779  1
  H+  H237  1  0.62226301  0.22614257  0.34478642  1
  H+  H238  1  0.62132904  0.89908664  -0.00583572  1
  H+  H239  1  0.39206275  0.03401789  0.84218601  1
  H+  H240  1  0.21851061  0.59926137  0.33210474  1
  H+  H241  1  0.29268860  0.63209649  0.67762827  1
  H+  H242  1  0.62356407  0.39085556  0.49350351  1
  H+  H243  1  0.10414899  0.91544743  0.42650566  1
  H+  H244  1  0.36617057  0.73189656  0.82736882  1
  H+  H245  1  0.86150481  0.48536472  0.68081294  1
  H+  H246  1  0.52342793  0.38949986  0.01146772  1
  H+  H247  1  -0.03701665  0.11696774  0.51005344  1
  H+  H248  1  0.67591625  0.60341447  0.92366466  1
  H+  H249  1  0.37092831  0.23184618  0.67757967  1
  H+  H250  1  0.62631612  0.15448743  0.83669862  1
  H+  H251  1  0.84052857  0.19620918  0.40742730  1
  H+  H252  1  0.39712831  0.11500413  0.67224979  1
  H+  H253  1  0.51540984  0.62679594  0.50236118  1
  H+  H254  1  0.63387597  0.77344450  0.17281674  1
  H+  H255  1  0.88144148  0.61086628  0.17650072  1
  H+  H256  1  0.27707933  0.38481441  1.01399295  1
  H+  H257  1  0.40729928  0.56327088  0.23734086  1
  H+  H258  1  0.39344353  0.37544167  0.66533520  1
  H+  H259  1  0.53290446  0.14833404  0.01164506  1
  H+  H260  1  0.43925092  0.84476747  0.56772512  1
  H+  H261  1  0.37432330  0.26718577  0.47973489  1
  H+  H262  1  0.29994910  0.19644807  0.31988468  1
  H+  H263  1  0.07741841  0.95108267  0.83704693  1
  H+  H264  1  0.11327747  0.97232902  0.67407768  1
  H+  H265  1  1.01486951  0.63786215  0.15469959  1
  H+  H266  1  0.76181339  0.08929419  0.52314793  1
  H+  H267  1  0.38136644  0.89109546  0.49857516  1
  H+  H268  1  0.38831719  0.86620420  -0.00796879  1
  H+  H269  1  0.90214508  0.55949367  0.92174742  1
  H+  H270  1  0.65300117  0.87140823  0.16947571  1
  H+  H271  1  0.26946392  0.89070656  0.82775426  1
  H+  H272  1  0.39122576  0.62005639  0.84049099  1
  H+  H273  1  0.35048294  0.22211388  0.16278597  1
  H+  H274  1  0.14392526  0.36810390  0.66291535  1
  H+  H275  1  0.61240714  0.65157648  0.16480083  1
  H+  H276  1  0.79334244  0.26184551  0.95305121  1
  H+  H277  1  0.73076401  0.84731487  0.50929108  1
  H+  H278  1  0.77106910  0.63307578  0.49222648  1
  H+  H279  1  0.26310452  0.38695707  0.48979933  1
  H+  H280  1  0.29008584  0.69081691  0.49256924  1
  H+  H281  1  0.64288497  0.37732697  0.66184952  1
  H+  H282  1  0.35293603  0.45197120  0.16783212  1
  H+  H283  1  0.79616841  0.42297167  0.84127626  1
  H+  H284  1  0.63357210  0.35159259  0.17709361  1
  H+  H285  1  0.63818577  0.52080197  0.50025984  1
  H+  H286  1  0.40121572  1.14482773  0.32447783  1
  H+  H287  1  0.88811172  0.14330248  1.00823779  1
  H+  H288  1  0.13785368  0.60976498  0.83722910  1
  H+  H289  1  0.32909294  0.66574269  0.06858275  1
  H+  H290  1  0.32600007  0.64724599  0.40897041  1
  H+  H291  1  0.31911168  0.93277918  0.10141542  1
  H+  H292  1  0.33401755  0.16825071  0.06549368  1
  H+  H293  1  0.66142226  0.83599019  0.91456196  1
  H+  H294  1  0.65003771  0.27422551  0.17772836  1
  H+  H295  1  0.08814040  0.16027943  0.06348819  1
  H+  H296  1  0.85520925  0.17796746  0.07458271  1
  H+  H297  1  0.67879300  0.88134417  0.32660490  1
  H+  H298  1  0.83678863  0.66429184  0.06138417  1
  H+  H299  1  0.63613557  0.76582760  0.83252712  1
  H+  H300  1  0.92391469  0.09064732  0.89256564  1
  H+  H301  1  0.06955944  0.91107786  0.73205564  1
  H+  H302  1  0.07211622  0.41484008  0.43488239  1
  H+  H303  1  0.17368566  0.08407425  0.92938632  1
  H+  H304  1  0.92415725  0.81721431  0.27213986  1
  H+  H305  1  0.34035300  0.42978923  0.76824332  1
  H+  H306  1  0.10617037  0.64467951  0.15406204  1
  H+  H307  1  0.32275369  0.41228793  0.42929103  1
  H+  H308  1  0.83234535  0.65992590  0.40801247  1
  H+  H309  1  0.55768601  0.37548443  0.09754793  1
  H+  H310  1  0.15560109  0.83609920  0.92774890  1
  H+  H311  1  0.83469905  0.17427938  0.77157283  1
  H+  H312  1  0.10561248  0.38675752  0.33579812  1
  H+  H313  1  0.42305747  0.08159639  0.61320947  1
  H+  H314  1  0.16065552  0.33202760  0.25382580  1
  H+  H315  1  0.41672536  0.82980287  0.18545193  1
  H+  H316  1  0.39341851  0.02090842  0.52034809  1
  H+  H317  1  0.38822176  0.52900844  0.61555117  1
  H+  H318  1  0.89873667  0.81505629  0.59650419  1
  H+  H319  1  0.90313303  0.83390591  0.93911160  1
  H+  H320  1  0.27527522  0.82109714  0.04800680  1
  H+  H321  1  0.65711996  0.57655554  0.56185339  1
  H+  H322  1  0.53016633  0.14188679  0.34306248  1
  H+  H323  1  0.16456618  0.59786003  0.23804254  1
  H+  H324  1  0.12339451  0.76151951  0.83932623  1
  H+  H325  1  0.57307791  0.18504275  0.44012195  1
  H+  H326  1  0.17448413  0.57889482  0.61636405  1
  H+  H327  1  0.68079593  0.09808223  0.27057547  1
  H+  H328  1  0.24397728  0.10655096  0.66515063  1
  H+  H329  1  0.67382004  0.32708960  0.27385002  1
  H+  H330  1  0.11498012  0.13023015  0.15615787  1
  H+  H331  1  0.81651698  0.65313673  0.72452327  1
  H+  H332  1  0.92577112  0.07286234  0.26220826  1
  H+  H333  1  0.42853618  0.35088545  0.90003418  1
  H+  H334  1  0.58765489  0.41426044  0.73452960  1
  H+  H335  1  0.86010329  0.39456384  0.49843041  1
  H+  H336  1  0.11903621  0.16739687  0.33761931  1
  H+  H337  1  0.39764721  0.77438028  0.66084347  1
  H+  H338  1  0.68180094  0.35229199  0.59670520  1
  H+  H339  1  0.58226032  0.93661929  0.76592520  1
  H+  H340  1  0.68736672  0.61956348  0.24180317  1
  H+  H341  1  0.67054281  0.09896891  0.93511351  1
  H+  H342  1  0.58273242  0.42342759  0.39003169  1
  H+  H343  1  0.06993599  0.64967539  0.76837097  1
  H+  H344  1  0.42548241  0.10278726  0.23382048  1
  H+  H345  1  0.01363832  0.85957313  0.34029082  1
  H+  H346  1  0.33102074  0.39805635  0.07374704  1
  H+  H347  1  0.37669633  0.62542867  0.68259890  1
  H+  H348  1  0.46930420  0.61266869  0.33077859  1
  H+  H349  1  0.90294895  0.57891956  0.26994790  1
  H+  H350  1  0.83682651  0.42564607  0.40444957  1
  H+  H351  1  0.41698568  0.83747885  0.89774064  1
  H+  H352  1  0.09546707  0.15733643  0.76037680  1
  H+  H353  1  0.17535417  0.82479659  0.27386888  1
  H+  H354  1  0.66618936  0.83264431  0.60292299  1
  H+  H355  1  0.18463638  0.35339586  0.90890222  1
  H+  H356  1  0.84497150  0.88523131  0.11897753  1
  H+  H357  1  0.13435027  0.77134230  0.17026249  1
  H+  H358  1  0.83332831  0.91525966  0.76396482  1
  H+  H359  1  0.57769271  0.66827848  0.72811023  1
  H+  H360  1  0.72339472  0.85739786  0.83138961  1
  H+  H361  1  0.81086951  0.92670498  0.04747654  1
  H+  H362  1  0.34690232  0.17839961  0.73935659  1
  H+  H363  1  0.42226393  0.34973962  0.60580664  1
  H+  H364  1  0.07263122  0.18790199  0.42646635  1
  H+  H365  1  0.40011631  0.31125464  0.26518791  1
  H+  H366  1  0.90908439  0.09091914  0.61771852  1
  H+  H367  1  0.85328851  0.12994089  0.68170764  1
  H+  H368  1  0.67909385  0.35032412  0.90601067  1
  H+  H369  1  0.08643236  0.91712009  0.09996948  1
  H+  H370  1  0.44044647  0.83458167  0.31459560  1
  H+  H371  1  0.07899316  0.44239892  0.06578290  1
  H+  H372  1  0.20502806  0.07375410  0.60061210  1
  H+  H373  1  0.08490458  0.40822138  0.74139224  1
  H+  H374  1  0.83416143  0.42984234  0.74154020  1
  H+  H375  1  0.84606095  0.76512053  0.85083639  1
  H+  H376  1  0.62453792  0.39368484  0.83022095  1
  H+  H377  1  0.68789638  0.83888265  0.26586840  1
  H+  H378  1  0.17443727  0.34782006  0.59918252  1
  H+  H379  1  0.27920377  0.40999525  0.66457456  1
  H+  H380  1  0.17874980  0.10686592  0.26405537  1
  H+  H381  1  0.60330097  0.62588077  0.49278674  1
  H+  H382  1  0.65347220  0.12403653  0.17326011  1
  H+  H383  1  0.16955888  0.83605104  0.60724096  1
  O2-  O384  1  0.08773253  0.16174576  0.13857258  1
  O2-  O385  1  0.06963695  0.18484546  0.47243227  1
  O2-  O386  1  0.08776240  0.14437770  0.80514153  1
  O2-  O387  1  0.07445184  0.44389261  0.15168989  1
  O2-  O388  1  0.07000406  0.41180287  0.48042272  1
  O2-  O389  1  0.08568921  0.41452397  0.81923927  1
  O2-  O390  1  0.07313031  0.67001358  0.13588009  1
  O2-  O391  1  0.10107858  0.66148967  0.49408259  1
  O2-  O392  1  0.06764520  0.64714473  0.81309372  1
  O2-  O393  1  0.08734237  0.91562166  0.14535840  1
  O2-  O394  1  0.12035323  0.92641526  0.47055778  1
  O2-  O395  1  0.05232649  0.89458636  0.81723573  1
  O2-  O396  1  0.32615588  0.16328994  0.14399986  1
  O2-  O397  1  0.32445613  0.22249330  0.45848413  1
  O2-  O398  1  0.34890589  0.18492802  0.81842737  1
  O2-  O399  1  0.32384134  0.39178808  0.15254753  1
  O2-  O400  1  0.32409354  0.41737305  0.47480111  1
  O2-  O401  1  0.33980370  0.42706085  0.81309167  1
  O2-  O402  1  0.31896025  0.64513348  0.14876233  1
  O2-  O403  1  0.34101880  0.68525178  0.48747931  1
  O2-  O404  1  0.33727272  0.67042107  0.81387821  1
  O2-  O405  1  0.33091414  0.93878730  0.14578097  1
  O2-  O406  1  0.34423406  0.91648889  0.48920745  1
  O2-  O407  1  0.33081997  0.92290468  0.81611623  1
  O2-  O408  1  0.59608516  0.17083220  0.14937885  1
  O2-  O409  1  0.56675254  0.20364072  0.48131415  1
  O2-  O410  1  0.59771767  0.18723274  0.82139855  1
  O2-  O411  1  0.54232327  0.34435719  0.14002579  1
  O2-  O412  1  0.59403270  0.41875429  0.47305507  1
  O2-  O413  1  0.59318382  0.42069081  0.81091214  1
  O2-  O414  1  0.57624007  0.67620885  0.15248891  1
  O2-  O415  1  0.57205226  0.65739780  0.48225012  1
  O2-  O416  1  0.58280173  0.66232144  0.80814329  1
  O2-  O417  1  0.61421183  0.93622806  0.13751470  1
  O2-  O418  1  0.59667998  0.90449664  0.47889682  1
  O2-  O419  1  0.57825229  0.95094425  0.80873336  1
  O2-  O420  1  0.84937740  0.18013408  0.14225140  1
  O2-  O421  1  0.83972942  0.19092445  0.48438201  1
  O2-  O422  1  0.83905159  0.17619377  0.81724476  1
  O2-  O423  1  0.83518015  0.42250916  0.14984597  1
  O2-  O424  1  0.82830198  0.42080317  0.47910154  1
  O2-  O425  1  0.85503678  0.45014009  0.82281747  1
  O2-  O426  1  0.83998357  0.66546707  0.14059598  1
  O2-  O427  1  0.83150067  0.66468421  0.47786584  1
  O2-  O428  1  0.84134551  0.63612127  0.80196474  1
  O2-  O429  1  0.83957283  0.90821086  0.15768846  1
  O2-  O430  1  0.83257450  0.89792200  0.48743681  1
  O2-  O431  1  0.83452136  0.91670774  0.81022117  1
  O2-  O432  1  0.16749338  0.07979829  0.19180076  1
  O2-  O433  1  0.25885259  0.07814674  0.52548241  1
  O2-  O434  1  0.17011084  0.07880959  0.84745128  1
  O2-  O435  1  0.16589466  0.31399354  0.18298341  1
  O2-  O436  1  0.16447566  0.34356361  0.52077195  1
  O2-  O437  1  0.17796247  0.34936619  0.86499583  1
  O2-  O438  1  0.16647125  0.60461961  0.19243830  1
  O2-  O439  1  0.15831259  0.56753768  0.53876958  1
  O2-  O440  1  0.17189224  0.58412821  0.85311402  1
  O2-  O441  1  0.16449819  0.82880895  0.19062124  1
  O2-  O442  1  0.17898070  0.83059866  0.52930573  1
  O2-  O443  1  0.15240546  0.82320794  0.85079924  1
  O2-  O444  1  0.42795086  0.10361592  0.18830895  1
  O2-  O445  1  0.41093171  0.07903722  0.53667620  1
  O2-  O446  1  0.42325697  0.09430511  0.85726986  1
  O2-  O447  1  0.40031494  0.31661393  0.19728548  1
  O2-  O448  1  0.44121965  0.39377446  0.53105843  1
  O2-  O449  1  0.43120605  0.35290635  0.85423363  1
  O2-  O450  1  0.40707475  0.55894810  0.19174708  1
  O2-  O451  1  0.40316737  0.56599983  0.53589490  1
  O2-  O452  1  0.42188366  0.59068350  0.85671537  1
  O2-  O453  1  0.43168018  0.85984652  0.14659096  1
  O2-  O454  1  0.44037775  0.84490923  0.52215830  1
  O2-  O455  1  0.41276851  0.83546621  0.85274135  1
  O2-  O456  1  0.68874951  0.09849629  0.18777880  1
  O2-  O457  1  0.74248900  0.03290438  0.54210352  1
  O2-  O458  1  0.67262842  0.10067193  0.85826678  1
  O2-  O459  1  0.67542971  0.33486236  0.19218001  1
  O2-  O460  1  0.67560451  0.34682947  0.53164271  1
  O2-  O461  1  0.68540386  0.35439109  0.86057052  1
  O2-  O462  1  0.70384475  0.65071695  0.19968526  1
  O2-  O463  1  0.66028770  0.58018287  0.51632695  1
  O2-  O464  1  0.67636199  0.58633536  0.84637430  1
  O2-  O465  1  0.67600842  0.83529510  0.18587359  1
  O2-  O466  1  0.66919066  0.82105538  0.52392964  1
  O2-  O467  1  0.66415010  0.82625125  0.84764023  1
  O2-  O468  1  0.92374725  0.08983653  0.17760300  1
  O2-  O469  1  0.91471525  0.10707767  0.53647394  1
  O2-  O470  1  0.91892236  0.08472116  0.84786652  1
  O2-  O471  1  0.91817616  0.34498102  0.19039362  1
  O2-  O472  1  0.91186785  0.34911993  0.53307736  1
  O2-  O473  1  0.92355170  0.34781863  0.85787136  1
  O2-  O474  1  0.91246873  0.58309132  0.19534292  1
  O2-  O475  1  0.91568078  0.58055848  0.50901628  1
  O2-  O476  1  0.89904494  0.54211919  0.84465497  1
  O2-  O477  1  0.92886045  0.82570078  0.19449940  1
  O2-  O478  1  0.90087332  0.80787702  0.53194220  1
  O2-  O479  1  0.88942149  0.82422285  0.86009597  1
  O2-  O480  1  0.19238138  0.13201721  0.30671251  1
  O2-  O481  1  0.18794645  0.07372553  0.64341864  1
  O2-  O482  1  0.17327304  0.08503382  0.97443468  1
  O2-  O483  1  0.15892517  0.34100975  0.29980340  1
  O2-  O484  1  0.18350198  0.35050383  0.64419272  1
  O2-  O485  1  0.15205231  0.33652641  1.01704206  1
  O2-  O486  1  0.16073315  0.57698537  0.31359268  1
  O2-  O487  1  0.18440235  0.58209274  0.66126810  1
  O2-  O488  1  0.17714795  0.59852639  0.97574632  1
  O2-  O489  1  0.18028703  0.82981791  0.31887773  1
  O2-  O490  1  0.16679188  0.83424997  0.65273043  1
  O2-  O491  1  0.15552708  0.83679750  0.97336534  1
  O2-  O492  1  0.42168402  0.10530346  0.31213396  1
  O2-  O493  1  0.42359714  0.08043388  0.65893141  1
  O2-  O494  1  0.42325479  0.09093672  0.98276719  1
  O2-  O495  1  0.39942783  0.31329587  0.31309130  1
  O2-  O496  1  0.41935425  0.34126286  0.65059949  1
  O2-  O497  1  0.42245200  0.33985505  0.97610070  1
  O2-  O498  1  0.41068939  0.56937754  0.31422140  1
  O2-  O499  1  0.38459690  0.52929025  0.66087524  1
  O2-  O500  1  0.43505121  0.60833743  0.97796170  1
  O2-  O501  1  0.40975296  0.82548603  0.35283383  1
  O2-  O502  1  0.42220888  0.83402581  0.64540553  1
  O2-  O503  1  0.42450600  0.84179745  0.98004020  1
  O2-  O504  1  0.67813596  0.09443771  0.31567900  1
  O2-  O505  1  0.66595073  0.08572606  0.66304954  1
  O2-  O506  1  0.67168671  0.10242362  0.98055448  1
  O2-  O507  1  0.67244032  0.31969383  0.31846909  1
  O2-  O508  1  0.68113577  0.35448090  0.64526065  1
  O2-  O509  1  0.67212880  0.34398973  0.98349465  1
  O2-  O510  1  0.67021723  0.58921591  0.30644229  1
  O2-  O511  1  0.64969051  0.57636341  0.63896158  1
  O2-  O512  1  0.67338759  0.61451636  0.96779281  1
  O2-  O513  1  0.69484832  0.83956527  0.31082983  1
  O2-  O514  1  0.66327709  0.83556817  0.64816640  1
  O2-  O515  1  0.66245330  0.84167150  0.96200886  1
  O2-  O516  1  0.92692901  0.06117844  0.30584797  1
  O2-  O517  1  0.89905038  0.08357952  0.66212566  1
  O2-  O518  1  0.92714670  0.09668258  0.97716959  1
  O2-  O519  1  0.91728918  0.34881696  0.31758028  1
  O2-  O520  1  0.91484769  0.33501877  0.65660633  1
  O2-  O521  1  0.85342698  0.29412673  0.96575475  1
  O2-  O522  1  0.90193435  0.57764816  0.31616557  1
  O2-  O523  1  0.90333357  0.58096594  0.65764723  1
  O2-  O524  1  0.90652656  0.57352176  0.96654209  1
  O2-  O525  1  0.92233355  0.81617387  0.31759495  1
  O2-  O526  1  0.89836981  0.81987625  0.64551086  1
  O2-  O527  1  0.90810388  0.83804192  0.98435786  1
  O2-  O528  1  0.08684690  0.16257377  0.01733208  1
  O2-  O529  1  0.08127283  0.18887892  0.35207352  1
  O2-  O530  1  0.11858957  0.17702078  0.68668463  1
  O2-  O531  1  0.08333428  0.43415962  0.02189892  1
  O2-  O532  1  0.07788505  0.41661641  0.35587647  1
  O2-  O533  1  0.08364427  0.40930648  0.69570347  1
  O2-  O534  1  0.07358550  0.66523611  0.00870263  1
  O2-  O535  1  0.09807717  0.66529208  0.37646474  1
  O2-  O536  1  0.09323387  0.66955777  0.68310249  1
  O2-  O537  1  0.07952754  0.92233266  0.01930230  1
  O2-  O538  1  0.07824751  0.89471205  0.35205827  1
  O2-  O539  1  0.07653643  0.91137414  0.68748452  1
  O2-  O540  1  0.33865976  0.16827252  0.02010811  1
  O2-  O541  1  0.36108594  0.22400129  0.33469310  1
  O2-  O542  1  0.34637467  0.17279000  0.69418541  1
  O2-  O543  1  0.33528479  0.40340964  0.02856462  1
  O2-  O544  1  0.32142296  0.40498781  0.35190568  1
  O2-  O545  1  0.34172388  0.43899717  0.68080859  1
  O2-  O546  1  0.33633311  0.68033334  0.02471878  1
  O2-  O547  1  0.32087223  0.64384461  0.36400953  1
  O2-  O548  1  0.35422189  0.66474786  0.69039919  1
  O2-  O549  1  0.29839472  0.87760289  0.02918432  1
  O2-  O550  1  0.33908992  0.93955761  0.36414260  1
  O2-  O551  1  0.33540411  0.91316671  0.69284887  1
  O2-  O552  1  0.59275656  0.17835164  0.02696957  1
  O2-  O553  1  0.58807298  0.16453494  0.36071461  1
  O2-  O554  1  0.58869651  0.15748119  0.70054396  1
  O2-  O555  1  0.57781411  0.41232946  0.03508532  1
  O2-  O556  1  0.57303900  0.42881348  0.34657705  1
  O2-  O557  1  0.58639989  0.41306652  0.68865723  1
  O2-  O558  1  0.59070891  0.68510005  0.00227728  1
  O2-  O559  1  0.54934623  0.69447349  0.36489404  1
  O2-  O560  1  0.57735203  0.67398376  0.68322416  1
  O2-  O561  1  0.59630478  0.93014082  0.01658410  1
  O2-  O562  1  0.63120541  0.94047891  0.35444646  1
  O2-  O563  1  0.58905577  0.92398124  0.68559708  1
  O2-  O564  1  0.85691463  0.17332078  0.02724926  1
  O2-  O565  1  0.84263253  0.19850281  0.36194127  1
  O2-  O566  1  0.82331255  0.16384815  0.69615737  1
  O2-  O567  1  0.83659060  0.42418340  0.02634080  1
  O2-  O568  1  0.83948189  0.42955948  0.35851254  1
  O2-  O569  1  0.83102289  0.42365577  0.69651813  1
  O2-  O570  1  0.83752944  0.67166558  0.01628048  1
  O2-  O571  1  0.83225767  0.65549977  0.36112924  1
  O2-  O572  1  0.81188757  0.65789267  0.68004813  1
  O2-  O573  1  0.82978251  0.92747378  0.00590346  1
  O2-  O574  1  0.85721456  0.90645910  0.35463640  1
  O2-  O575  1  0.82643550  0.91044594  0.69051608  1
