# generated using pymatgen
data_H2O
_symmetry_space_group_name_H-M   'P 1'
_cell_length_a   17.97169536
_cell_length_b   17.96908382
_cell_length_c   22.01157697
_cell_angle_alpha   89.97484749
_cell_angle_beta   89.97736134
_cell_angle_gamma   119.99012701
_symmetry_Int_Tables_number   1
_chemical_formula_structural   H2O
_chemical_formula_sum   'H384 O192'
_cell_volume   6156.58413836
_cell_formula_units_Z   192
loop_
 _symmetry_equiv_pos_site_id
 _symmetry_equiv_pos_as_xyz
  1  'x, y, z'
loop_
 _atom_type_symbol
 _atom_type_oxidation_number
  H+  1.0
  O2-  -2.0
loop_
 _atom_site_type_symbol
 _atom_site_label
 _atom_site_symmetry_multiplicity
 _atom_site_fract_x
 _atom_site_fract_y
 _atom_site_fract_z
 _atom_site_occupancy
  H+  H0  1  0.93036118  0.34618873  0.23045625  1
  H+  H1  1  0.87400729  0.13783486  0.34405379  1
  H+  H2  1  0.45393715  0.90619287  0.20888813  1
  H+  H3  1  0.85530665  0.64538860  0.67199545  1
  H+  H4  1  0.58315197  0.46346376  0.67582663  1
  H+  H5  1  0.47312208  0.35988737  0.31645416  1
  H+  H6  1  0.01889802  0.64332919  0.15629427  1
  H+  H7  1  0.85102048  0.20292696  0.87444463  1
  H+  H8  1  0.30057883  0.90605641  0.01011543  1
  H+  H9  1  0.61583965  0.72478635  0.83182485  1
  H+  H10  1  0.37282328  0.38611453  0.83043079  1
  H+  H11  1  1.01677880  0.87415752  0.51725191  1
  H+  H12  1  0.82589366  0.66185859  0.77012565  1
  H+  H13  1  0.35295534  0.48023397  0.00165440  1
  H+  H14  1  0.15662005  0.10503334  0.18087690  1
  H+  H15  1  0.89761708  0.33267072  0.75658207  1
  H+  H16  1  0.35045124  0.47575796  0.34258625  1
  H+  H17  1  0.87706824  0.61188617  0.83916306  1
  H+  H18  1  0.78213114  0.38627782  0.48912328  1
  H+  H19  1  0.49633046  0.11832163  0.63473130  1
  H+  H20  1  0.27460871  0.66663725  0.29549681  1
  H+  H21  1  0.77569461  0.87819293  0.16507889  1
  H+  H22  1  0.34965550  0.46092474  0.75720078  1
  H+  H23  1  0.43323857  0.33337880  0.65165253  1
  H+  H24  1  0.48156246  0.16058682  0.97387763  1
  H+  H25  1  0.26185685  0.38250242  0.14963928  1
  H+  H26  1  0.87119212  0.07974478  0.83524131  1
  H+  H27  1  0.12694437  0.22349546  0.49889942  1
  H+  H28  1  0.11410133  0.48604283  0.15499632  1
  H+  H29  1  0.76339521  0.62333086  0.82718765  1
  H+  H30  1  0.96830587  0.09897208  0.83925868  1
  H+  H31  1  0.37447941  0.77625566  0.33664442  1
  H+  H32  1  0.62734334  0.60586600  0.84128860  1
  H+  H33  1  0.36916788  0.87821685  0.80037499  1
  H+  H34  1  0.08158674  0.90723905  0.09674951  1
  H+  H35  1  0.92566887  0.60249089  0.93241544  1
  H+  H36  1  0.10457895  0.62526454  0.82445985  1
  H+  H37  1  0.40170664  0.12564506  0.15722298  1
  H+  H38  1  0.03679763  0.38235371  0.34146430  1
  H+  H39  1  0.62143430  0.26651139  0.83961423  1
  H+  H40  1  0.08869708  0.08043787  0.66791566  1
  H+  H41  1  0.46240390  0.59591518  0.66912055  1
  H+  H42  1  0.64647910  0.86081955  0.84452306  1
  H+  H43  1  0.24909796  0.88776685  0.17046019  1
  H+  H44  1  0.38430998  0.77095720  0.48550872  1
  H+  H45  1  0.10499434  0.14116251  0.83353155  1
  H+  H46  1  0.14366615  1.00017909  -0.01070501  1
  H+  H47  1  0.36675758  0.23175088  0.14414705  1
  H+  H48  1  0.99260335  0.11650508  0.51416111  1
  H+  H49  1  0.23570115  0.77097308  0.95672607  1
  H+  H50  1  0.37664660  0.60987822  0.32641894  1
  H+  H51  1  0.89950025  0.37829633  0.17176055  1
  H+  H52  1  0.61804897  0.10101023  0.64953961  1
  H+  H53  1  0.74692477  0.12469849  0.16617588  1
  H+  H54  1  0.15253449  0.31103251  0.24426326  1
  H+  H55  1  0.62101357  0.85249972  0.66304883  1
  H+  H56  1  0.87828814  0.14182197  0.49409121  1
  H+  H57  1  0.03918273  0.16490751  0.67726397  1
  H+  H58  1  0.08811972  0.84834167  0.01874026  1
  H+  H59  1  0.49340218  0.87135372  1.02298586  1
  H+  H60  1  0.02317639  0.88058402  0.00409273  1
  H+  H61  1  0.77646138  0.88106321  0.35178222  1
  H+  H62  1  0.64121940  0.61848906  0.51680894  1
  H+  H63  1  0.12847591  0.38581285  0.82436485  1
  H+  H64  1  0.12406622  0.21583485  0.33514436  1
  H+  H65  1  0.35897596  0.73217269  0.01215000  1
  H+  H66  1  0.11584247  0.95985724  0.37074631  1
  H+  H67  1  0.64665192  0.14575250  0.48370202  1
  H+  H68  1  0.11950966  0.27154357  0.14115799  1
  H+  H69  1  0.86130910  0.72469616  0.34574393  1
  H+  H70  1  0.83572655  0.38290310  0.69287851  1
  H+  H71  1  0.63866165  0.59892159  0.99597951  1
  H+  H72  1  0.09780312  0.71126180  0.51384251  1
  H+  H73  1  0.77853567  0.63486008  0.15858204  1
  H+  H74  1  0.33282204  0.91918567  0.88412087  1
  H+  H75  1  0.13924449  0.10114658  0.51557214  1
  H+  H76  1  0.63726309  0.51325434  0.32931936  1
  H+  H77  1  0.02353738  0.69797681  0.00513595  1
  H+  H78  1  0.60363618  0.96838989  0.83261645  1
  H+  H79  1  0.72372683  0.60525031  0.33327207  1
  H+  H80  1  0.47841554  0.12272803  0.82815711  1
  H+  H81  1  0.12863669  1.01985064  0.84302444  1
  H+  H82  1  0.60996645  0.21120656  -0.01665826  1
  H+  H83  1  0.44295918  0.87668323  0.76127592  1
  H+  H84  1  0.64447586  0.85474431  0.99817838  1
  H+  H85  1  0.10906511  0.39227531  0.01072273  1
  H+  H86  1  0.43077954  0.85812650  0.96977998  1
  H+  H87  1  0.90061550  0.27951489  0.50394586  1
  H+  H88  1  1.00491639  0.61875352  0.50576938  1
  H+  H89  1  0.65155245  0.86228653  0.18311269  1
  H+  H90  1  0.10773137  0.58656046  0.65529285  1
  H+  H91  1  0.86229340  0.99365658  0.50661896  1
  H+  H92  1  0.41724091  0.05312017  0.31165827  1
  H+  H93  1  0.59786430  0.62911969  0.68126813  1
  H+  H94  1  0.61301922  0.71817650  0.00763695  1
  H+  H95  1  0.22888126  0.10419006  0.98837674  1
  H+  H96  1  0.36281551  0.23039251  0.33150217  1
  H+  H97  1  0.89785406  0.36939727  0.32561616  1
  H+  H98  1  0.87274121  0.65440049  0.00130671  1
  H+  H99  1  0.33680347  0.86702898  0.51533534  1
  H+  H100  1  0.77622235  0.96793036  0.47479210  1
  H+  H101  1  0.36042114  0.63831777  0.50322744  1
  H+  H102  1  0.88867114  0.61711650  0.32721362  1
  H+  H103  1  0.38898468  0.92254365  1.03346102  1
  H+  H104  1  0.77681451  0.63894017  0.50405143  1
  H+  H105  1  0.52712568  0.87262067  0.83803309  1
  H+  H106  1  0.83527772  0.38968783  0.83603092  1
  H+  H107  1  0.84378964  0.16657071  0.43368593  1
  H+  H108  1  0.27142489  0.63771516  0.50200471  1
  H+  H109  1  0.16369087  0.78404937  -0.01163538  1
  H+  H110  1  0.52463667  0.37862977  0.15239586  1
  H+  H111  1  0.64770635  0.53357483  0.52099779  1
  H+  H112  1  0.84982602  0.14074521  0.99021759  1
  H+  H113  1  0.62223290  0.18067636  0.76828956  1
  H+  H114  1  0.75970821  0.01167244  0.78077641  1
  H+  H115  1  0.36275355  0.27493670  0.97503254  1
  H+  H116  1  0.77741618  0.87972880  1.00893604  1
  H+  H117  1  0.61292147  0.46515167  0.15401161  1
  H+  H118  1  0.37484229  0.00651078  0.61327822  1
  H+  H119  1  0.41061060  0.84482697  0.43743916  1
  H+  H120  1  0.99031319  0.34095773  0.85022305  1
  H+  H121  1  0.45726028  0.37288727  0.83418975  1
  H+  H122  1  0.21254725  0.36885413  0.99271849  1
  H+  H123  1  0.23289533  0.33660915  0.28386120  1
  H+  H124  1  0.28136826  0.31407057  0.63045577  1
  H+  H125  1  0.26483230  0.38917092  0.36184207  1
  H+  H126  1  0.89090630  0.20389647  0.86355948  1
  H+  H127  1  0.31375918  0.85711209  0.37117559  1
  H+  H128  1  0.26088037  0.11718038  0.56559240  1
  H+  H129  1  0.88199105  0.60688011  0.50724144  1
  H+  H130  1  0.87756616  0.02677468  0.99969300  1
  H+  H131  1  0.11742914  0.49298077  1.00314072  1
  H+  H132  1  0.22552243  0.61916325  0.83916827  1
  H+  H133  1  0.58125374  0.37139543  0.82897249  1
  H+  H134  1  0.63714893  0.85756236  0.33672600  1
  H+  H135  1  0.38042418  0.76469845  0.16668834  1
  H+  H136  1  0.84734088  0.22998275  0.98744092  1
  H+  H137  1  0.38017332  0.36082200  0.16408182  1
  H+  H138  1  0.34924226  0.73619700  0.79800980  1
  H+  H139  1  0.11200913  0.88801861  0.16120568  1
  H+  H140  1  0.16422573  0.80664694  0.34632450  1
  H+  H141  1  0.73346411  0.36727637  0.17109399  1
  H+  H142  1  0.38183228  0.61781023  -0.00362533  1
  H+  H143  1  0.08426253  0.45295864  0.66758945  1
  H+  H144  1  0.88971897  0.62054213  0.17115511  1
  H+  H145  1  0.10450266  0.71405743  0.82094446  1
  H+  H146  1  0.52254518  0.13686502  0.70294102  1
  H+  H147  1  0.60907313  0.87493732  0.50000519  1
  H+  H148  1  0.60001728  0.07721861  0.14132831  1
  H+  H149  1  0.35802644  0.75292323  0.64836035  1
  H+  H150  1  0.97937480  0.86701976  0.84610848  1
  H+  H151  1  0.52152383  0.88475878  0.35094980  1
  H+  H152  1  0.90272737  0.36818106  0.49998421  1
  H+  H153  1  0.16112179  0.52190264  0.83392829  1
  H+  H154  1  0.43595085  0.13441694  0.47352024  1
  H+  H155  1  0.96540788  0.11171139  0.14182893  1
  H+  H156  1  0.67940312  0.47725546  -0.00500984  1
  H+  H157  1  0.35860459  0.18015697  0.50242504  1
  H+  H158  1  0.31906654  0.43467452  0.65822592  1
  H+  H159  1  0.88443955  0.85095517  0.51976221  1
  H+  H160  1  0.87366503  0.48509915  0.33622444  1
  H+  H161  1  0.09435726  0.31384040  0.90920073  1
  H+  H162  1  0.63823015  0.76885131  0.33435457  1
  H+  H163  1  0.62462272  0.97166724  0.00986850  1
  H+  H164  1  0.86356069  -0.03778183  0.82618757  1
  H+  H165  1  0.36085194  -0.00454444  0.83799634  1
  H+  H166  1  0.34322752  0.86636758  0.64995035  1
  H+  H167  1  0.28753592  0.92851844  0.37350083  1
  H+  H168  1  0.78463156  0.39700613  0.33208907  1
  H+  H169  1  0.38401399  0.61653368  0.17538866  1
  H+  H170  1  0.37821467  0.15044490  0.33118510  1
  H+  H171  1  0.78478120  0.13687921  0.33928656  1
  H+  H172  1  0.60133696  0.27240687  0.93524744  1
  H+  H173  1  0.40730721  1.06194776  -0.00942700  1
  H+  H174  1  0.12189255  0.76776278  0.17207616  1
  H+  H175  1  0.08679425  0.95125461  0.68409068  1
  H+  H176  1  0.51520254  0.08273159  0.13125296  1
  H+  H177  1  0.61187003  0.26501380  0.65089961  1
  H+  H178  1  0.46608502  0.60716213  0.18661735  1
  H+  H179  1  0.99821091  0.43065876  0.83988549  1
  H+  H180  1  -0.01747214  0.10805094  0.34139594  1
  H+  H181  1  0.54394365  0.40784954  0.49414131  1
  H+  H182  1  0.64985441  0.36652142  0.50390547  1
  H+  H183  1  0.36194429  0.36781855  -0.01864005  1
  H+  H184  1  0.35291283  0.14990595  0.81899898  1
  H+  H185  1  0.62123928  0.51423025  0.84005111  1
  H+  H186  1  0.28029075  0.14273381  0.13351245  1
  H+  H187  1  0.21305879  0.86336701  0.83492370  1
  H+  H188  1  0.61693019  0.13133867  0.82867018  1
  H+  H189  1  0.51528562  0.62284627  0.34068125  1
  H+  H190  1  0.85854435  0.51885088  0.66318303  1
  H+  H191  1  0.08237552  0.17337231  0.77215509  1
  H+  H192  1  0.46932737  0.61355334  0.99631514  1
  H+  H193  1  0.12431030  0.27989595  1.00395343  1
  H+  H194  1  0.88092940  1.02888423  0.16259983  1
  H+  H195  1  0.71726100  0.85332966  0.51859673  1
  H+  H196  1  0.84060598  0.67411027  0.10196343  1
  H+  H197  1  0.71433246  0.61426818  0.67270943  1
  H+  H198  1  0.35982027  0.87968682  0.19050962  1
  H+  H199  1  0.11383175  0.84018614  0.52680702  1
  H+  H200  1  0.88193967  0.51583745  0.50411801  1
  H+  H201  1  0.52503214  0.88345071  0.48755661  1
  H+  H202  1  0.41935547  0.57883618  0.57056984  1
  H+  H203  1  0.64923023  0.11256586  0.32018917  1
  H+  H204  1  0.16294680  0.06645855  0.92482438  1
  H+  H205  1  0.21147312  0.32997441  0.59745856  1
  H+  H206  1  1.00058762  0.61353608  0.67007462  1
  H+  H207  1  0.12554185  0.36113108  0.15747511  1
  H+  H208  1  0.23827867  0.10443326  0.33794978  1
  H+  H209  1  0.69621332  0.36005605  0.85432110  1
  H+  H210  1  0.58118793  0.65550110  0.43783331  1
  H+  H211  1  0.89302495  0.02092301  0.34393963  1
  H+  H212  1  0.10197133  0.88028507  0.83678115  1
  H+  H213  1  0.56209386  0.90747067  0.15816638  1
  H+  H214  1  0.86713152  0.72395131  0.50681049  1
  H+  H215  1  0.85893723  0.73602304  0.67731698  1
  H+  H216  1  0.78043256  0.64752526  0.00175953  1
  H+  H217  1  0.89594997  0.27948272  0.32525696  1
  H+  H218  1  0.10216075  0.13912573  0.10430133  1
  H+  H219  1  0.57457723  0.65035076  0.24424116  1
  H+  H220  1  0.36266917  0.65753017  0.82240237  1
  H+  H221  1  0.63991841  0.60529812  0.18071851  1
  H+  H222  1  0.13239864  0.00757206  0.52172746  1
  H+  H223  1  0.11728062  0.37063217  0.33650810  1
  H+  H224  1  0.88746476  0.77787063  0.99176979  1
  H+  H225  1  1.00553438  0.86289481  0.68609775  1
  H+  H226  1  0.64342507  0.02072052  0.32454097  1
  H+  H227  1  0.52240581  0.63047028  0.49815207  1
  H+  H228  1  0.37169681  0.69706415  0.27226109  1
  H+  H229  1  0.58348569  0.37593917  0.67031794  1
  H+  H230  1  0.19770458  0.58643614  0.65514555  1
  H+  H231  1  0.02566504  0.87485972  0.36543591  1
  H+  H232  1  0.65375754  0.99151682  0.16267713  1
  H+  H233  1  0.21868204  0.11239435  0.84240298  1
  H+  H234  1  0.75657624  0.13203249  0.67076577  1
  H+  H235  1  0.63286000  0.75929458  0.51215670  1
  H+  H236  1  0.02262043  0.39507795  0.15682350  1
  H+  H237  1  0.61745969  0.37338466  0.32574960  1
  H+  H238  1  0.10905174  0.64655643  0.14457208  1
  H+  H239  1  0.12188343  0.85551536  0.67463626  1
  H+  H240  1  0.36367186  0.50644889  0.82130634  1
  H+  H241  1  0.92050873  0.59171110  0.23132742  1
  H+  H242  1  0.39210333  0.52779761  0.50849805  1
  H+  H243  1  0.14750276  0.36221269  0.51103466  1
  H+  H244  1  0.10377384  0.61734829  0.50578383  1
  H+  H245  1  0.65821727  0.28455898  0.31682213  1
  H+  H246  1  0.89308241  0.86053137  0.34442170  1
  H+  H247  1  0.12939393  0.67001262  0.31085666  1
  H+  H248  1  0.12396731  0.12816162  0.34672366  1
  H+  H249  1  0.64198578  0.37784427  0.00740431  1
  H+  H250  1  0.00929318  0.14313250  0.01718912  1
  H+  H251  1  0.65540326  0.07175418  0.90234123  1
  H+  H252  1  0.35009043  0.47248172  0.15539543  1
  H+  H253  1  0.86922708  0.23734752  0.15745195  1
  H+  H254  1  -0.03417632  0.36996829  -0.00604935  1
  H+  H255  1  0.23748415  0.36530558  0.50616513  1
  H+  H256  1  0.42939988  0.34805199  0.55544359  1
  H+  H257  1  -0.03504896  0.60618479  0.83687424  1
  H+  H258  1  0.59481746  -0.03425023  0.67040815  1
  H+  H259  1  0.42316671  0.10694549  0.88862041  1
  H+  H260  1  0.68476332  0.08569022  0.22700225  1
  H+  H261  1  0.37979888  0.03108483  0.17243915  1
  H+  H262  1  0.87091648  0.48692312  0.16305091  1
  H+  H263  1  0.06613240  0.25161645  0.85159525  1
  H+  H264  1  0.55026774  0.15504496  0.32952352  1
  H+  H265  1  0.42471319  0.30497404  0.49095812  1
  H+  H266  1  0.38641826  0.36520778  0.32288459  1
  H+  H267  1  1.00010126  0.90099137  0.18238055  1
  H+  H268  1  0.61450609  0.92096071  0.07211679  1
  H+  H269  1  0.64721303  0.02155627  0.50525870  1
  H+  H270  1  0.90664529  0.55390984  0.99638201  1
  H+  H271  1  0.38267291  0.40234413  0.49403832  1
  H+  H272  1  0.21646387  0.61220414  0.14946974  1
  H+  H273  1  0.84029303  0.21926431  0.69630365  1
  H+  H274  1  0.36129326  0.15378113  0.98783587  1
  H+  H275  1  0.17827706  0.61828315  0.21594776  1
  H+  H276  1  0.13088714  0.51965651  0.50292407  1
  H+  H277  1  0.51426365  0.11902498  0.47822607  1
  H+  H278  1  0.47705618  0.63111826  0.84215450  1
  H+  H279  1  0.44619409  0.84045870  0.64889347  1
  H+  H280  1  0.70791107  1.08089532  0.83946547  1
  H+  H281  1  0.85807858  0.89064085  0.67438935  1
  H+  H282  1  0.20318054  0.83669018  0.53177164  1
  H+  H283  1  0.88226438  0.86171936  0.84104216  1
  H+  H284  1  0.73350962  0.85628592  0.84159044  1
  H+  H285  1  0.61111091  0.72259578  0.19508568  1
  H+  H286  1  0.78585306  0.43638994  0.01062006  1
  H+  H287  1  0.89127382  0.87066767  -0.00516385  1
  H+  H288  1  0.14790264  0.57022173  0.56668201  1
  H+  H289  1  0.64414999  0.23475986  0.48450306  1
  H+  H290  1  0.88570691  0.12071315  0.66361935  1
  H+  H291  1  0.84319334  0.48139681  0.83694348  1
  H+  H292  1  0.55933539  0.36062602  0.38339516  1
  H+  H293  1  0.33971961  0.91900713  0.70581141  1
  H+  H294  1  1.03566898  0.38595258  0.49529074  1
  H+  H295  1  0.07027818  0.90587517  0.77670495  1
  H+  H296  1  0.16543518  0.81837509  0.89328741  1
  H+  H297  1  0.98174975  0.62535192  0.32062340  1
  H+  H298  1  0.79432510  0.10568952  0.75496137  1
  H+  H299  1  0.29191419  0.89527617  0.46889917  1
  H+  H300  1  0.83626476  0.91252010  0.06832288  1
  H+  H301  1  0.90949444  0.07757332  0.93758524  1
  H+  H302  1  0.61636327  0.45447562  0.44217350  1
  H+  H303  1  0.42941337  0.87136125  0.89160033  1
  H+  H304  1  0.93306650  0.09648665  0.57433930  1
  H+  H305  1  0.60590750  0.62196318  0.33981499  1
  H+  H306  1  0.07677619  0.72480007  0.06682399  1
  H+  H307  1  0.66230745  0.07597702  0.59659140  1
  H+  H308  1  0.09658989  0.16400747  0.43982440  1
  H+  H309  1  0.39746609  0.85883688  0.29985555  1
  H+  H310  1  0.36424456  0.24879043  0.61424993  1
  H+  H311  1  0.64117065  0.36000521  0.16840397  1
  H+  H312  1  0.38989318  0.34256133  0.90922350  1
  H+  H313  1  0.40004516  0.56946156  0.27227107  1
  H+  H314  1  0.07744403  0.89898792  0.45735644  1
  H+  H315  1  0.33991404  0.23094479  0.82044921  1
  H+  H316  1  0.13740751  0.02859267  0.13748493  1
  H+  H317  1  0.92252557  0.35724109  0.92989502  1
  H+  H318  1  0.57575015  0.66473653  0.77256113  1
  H+  H319  1  0.58851536  0.08761158  0.04293424  1
  H+  H320  1  0.98056839  0.96077832  0.22290460  1
  H+  H321  1  0.91346590  0.83857106  0.58940323  1
  H+  H322  1  0.55657730  0.40306211  0.76719358  1
  H+  H323  1  0.85854986  0.40822445  0.00379846  1
  H+  H324  1  0.10956843  0.04442765  0.60749098  1
  H+  H325  1  0.22871091  0.72404642  0.25696691  1
  H+  H326  1  0.69986060  0.35409872  0.66328613  1
  H+  H327  1  0.72290892  0.11675298  -0.01240456  1
  H+  H328  1  0.65905997  0.58604114  0.61298357  1
  H+  H329  1  0.09226625  0.40768475  0.72613161  1
  H+  H330  1  0.42259398  0.06642103  0.55331223  1
  H+  H331  1  0.32345074  0.41674789  0.05944114  1
  H+  H332  1  0.86766508  0.14800455  0.15158564  1
  H+  H333  1  0.76588031  0.88795776  0.67798107  1
  H+  H334  1  0.16142328  0.57026969  0.92991884  1
  H+  H335  1  0.91660268  0.84030872  0.91085699  1
  H+  H336  1  0.14333128  0.81502274  0.60958495  1
  H+  H337  1  0.87317860  0.89944002  0.16504514  1
  H+  H338  1  0.67805861  0.83533314  0.24594355  1
  H+  H339  1  0.41173418  0.82305198  0.89169252  1
  H+  H340  1  0.74032582  0.10887109  0.50671261  1
  H+  H341  1  0.93506370  0.84782623  0.28488077  1
  H+  H342  1  0.67343967  0.57089971  0.23243872  1
  H+  H343  1  0.08248807  0.43005466  0.07385952  1
  H+  H344  1  0.34532015  0.42710159  0.43705421  1
  H+  H345  1  0.59466773  0.71664881  0.67885185  1
  H+  H346  1  0.83994140  0.42083752  0.42827111  1
  H+  H347  1  0.66895751  0.33084652  0.56374468  1
  H+  H348  1  0.31569657  0.92438484  0.11263578  1
  H+  H349  1  0.43901704  0.10891718  0.25202130  1
  H+  H350  1  0.79837071  0.41847298  0.74114559  1
  H+  H351  1  0.41320276  0.60058376  0.89935317  1
  H+  H352  1  0.22062048  0.44165444  0.79568443  1
  H+  H353  1  0.33565527  0.61014391  0.66879051  1
  H+  H354  1  0.21766617  0.60740704  0.99167087  1
  H+  H355  1  0.83019135  0.91313690  0.41290378  1
  H+  H356  1  0.58935962  0.91395584  0.40438433  1
  H+  H357  1  0.22122045  0.86258936  0.66256023  1
  H+  H358  1  0.33301682  0.18076189  0.04892208  1
  H+  H359  1  0.09757899  0.41138214  0.43720330  1
  H+  H360  1  0.30931715  0.64736440  0.72484003  1
  H+  H361  1  0.32992204  0.67283770  0.06775515  1
  H+  H362  1  0.44323169  0.75026912  0.12648558  1
  H+  H363  1  0.57216117  0.90818230  0.73048067  1
  H+  H364  1  0.16751742  0.04503758  0.29025839  1
  H+  H365  1  0.36509981  0.19043548  0.42748104  1
  H+  H366  1  0.14161670  0.23095693  0.67575045  1
  H+  H367  1  0.40820639  0.32941112  0.22308593  1
  H+  H368  1  0.61304561  0.17845343  0.38771167  1
  H+  H369  1  0.89573937  0.57365403  0.60206620  1
  H+  H370  1  0.96695746  0.92330970  0.64474593  1
  H+  H371  1  0.89173686  0.03579066  0.66650603  1
  H+  H372  1  0.06443498  0.64098033  0.72621047  1
  H+  H373  1  0.65475073  0.81924978  0.60840781  1
  H+  H374  1  0.83009609  0.90398887  0.76481364  1
  H+  H375  1  0.66940414  0.57935800  0.93341034  1
  H+  H376  1  0.83201412  0.66521863  0.40450635  1
  H+  H377  1  0.84333917  0.43262622  0.10221075  1
  H+  H378  1  0.58163093  0.65811737  0.06562514  1
  H+  H379  1  0.67899570  0.34279267  0.25573116  1
  H+  H380  1  0.95642914  0.35584938  0.69922062  1
  H+  H381  1  0.67379261  0.82488618  0.93850440  1
  H+  H382  1  0.13831584  0.81120518  0.23767133  1
  H+  H383  1  0.34671657  0.11544769  0.58759634  1
  O2-  O384  1  0.06941147  0.16978868  0.09682641  1
  O2-  O385  1  0.09607867  0.16216869  0.48517077  1
  O2-  O386  1  0.07066932  0.16569499  0.81706796  1
  O2-  O387  1  0.08376879  0.42550250  0.13805985  1
  O2-  O388  1  0.09833054  0.41706944  0.48250776  1
  O2-  O389  1  0.16371703  0.43776978  0.79856999  1
  O2-  O390  1  0.07791551  0.67863546  0.13690458  1
  O2-  O391  1  0.06977835  0.65170424  0.49444605  1
  O2-  O392  1  0.07240321  0.65276940  0.80873236  1
  O2-  O393  1  0.08791412  0.92159379  0.14109237  1
  O2-  O394  1  0.07843065  0.90075494  0.50374616  1
  O2-  O395  1  0.07311631  0.91279638  0.82242278  1
  O2-  O396  1  0.34235541  0.17428016  0.12325110  1
  O2-  O397  1  0.39707759  0.20895890  0.46647691  1
  O2-  O398  1  0.31063836  0.16880483  0.81183890  1
  O2-  O399  1  0.32357563  0.41413478  0.13695201  1
  O2-  O400  1  0.34562292  0.42738975  0.48211150  1
  O2-  O401  1  0.33265632  0.44892063  0.80082102  1
  O2-  O402  1  0.38500672  0.71960088  0.14313405  1
  O2-  O403  1  0.33081557  0.66760154  0.48632582  1
  O2-  O404  1  0.32192897  0.67287399  0.80285037  1
  O2-  O405  1  0.31135396  0.92189882  0.15790122  1
  O2-  O406  1  0.29746029  0.89051701  0.51317718  1
  O2-  O407  1  0.32726955  0.93036641  0.84141636  1
  O2-  O408  1  0.55068019  0.06083872  0.11318843  1
  O2-  O409  1  0.62154020  0.17819106  0.46363999  1
  O2-  O410  1  0.59369198  0.16567570  0.80770441  1
  O2-  O411  1  0.58461495  0.40573896  0.13822669  1
  O2-  O412  1  0.60802496  0.43539715  0.48439306  1
  O2-  O413  1  0.55540499  0.40542674  0.81272042  1
  O2-  O414  1  0.57404531  0.65785680  0.20010728  1
  O2-  O415  1  0.58357311  0.65842691  0.48270514  1
  O2-  O416  1  0.57840123  0.66427816  0.81811476  1
  O2-  O417  1  0.62185877  0.92704228  0.14818550  1
  O2-  O418  1  0.58918987  0.91274301  0.48144633  1
  O2-  O419  1  0.58057010  0.90826090  0.81581414  1
  O2-  O420  1  0.83557862  0.17847559  0.14097207  1
  O2-  O421  1  0.84142214  0.16484558  0.47945586  1
  O2-  O422  1  0.78219351  0.07084856  0.79409362  1
  O2-  O423  1  0.84424671  0.42654679  0.14722116  1
  O2-  O424  1  0.84223468  0.42073357  0.47391238  1
  O2-  O425  1  0.80471996  0.41933283  0.82356118  1
  O2-  O426  1  0.83993862  0.66872714  0.14664236  1
  O2-  O427  1  0.83621074  0.66593773  0.48688103  1
  O2-  O428  1  0.82468500  0.65340746  0.81474160  1
  O2-  O429  1  0.83219920  0.91311227  0.14448886  1
  O2-  O430  1  0.81059888  0.94240509  0.48744978  1
  O2-  O431  1  0.83250379  0.90097671  0.81125626  1
  O2-  O432  1  0.16308264  0.09313202  0.13857714  1
  O2-  O433  1  0.15882519  0.06685616  0.53948611  1
  O2-  O434  1  0.15876535  0.07858412  0.86179403  1
  O2-  O435  1  0.15118368  0.32396265  0.16637017  1
  O2-  O436  1  0.17855541  0.33090320  0.52341646  1
  O2-  O437  1  0.06501462  0.30213489  0.86945469  1
  O2-  O438  1  0.16189104  0.58968854  0.17065976  1
  O2-  O439  1  0.15178821  0.57888955  0.52056708  1
  O2-  O440  1  0.16678743  0.57494143  0.85373838  1
  O2-  O441  1  0.14840623  0.82563849  0.19378595  1
  O2-  O442  1  0.13899941  0.80438925  0.54393430  1
  O2-  O443  1  0.15376300  0.82508982  0.85011202  1
  O2-  O444  1  0.42535870  0.09236071  0.17745033  1
  O2-  O445  1  0.45075187  0.08979036  0.48407877  1
  O2-  O446  1  0.41902365  0.09968512  0.84330394  1
  O2-  O447  1  0.40829924  0.32821532  0.17791700  1
  O2-  O448  1  0.44574069  0.36258310  0.51119242  1
  O2-  O449  1  0.39526367  0.34921956  0.84821906  1
  O2-  O450  1  0.40177498  0.57608434  0.19035868  1
  O2-  O451  1  0.42366681  0.58745379  0.52594908  1
  O2-  O452  1  0.41519926  0.60684113  0.85438405  1
  O2-  O453  1  0.39578842  0.85695016  0.21076895  1
  O2-  O454  1  0.41666908  0.83608532  0.48058640  1
  O2-  O455  1  0.38259905  0.84264700  0.77264178  1
  O2-  O456  1  0.68499544  0.08195282  0.18184746  1
  O2-  O457  1  0.67875810  0.08178971  0.52071196  1
  O2-  O458  1  0.65140604  0.06882277  0.85649375  1
  O2-  O459  1  0.67431026  0.33519713  0.18791689  1
  O2-  O460  1  0.67696345  0.33346016  0.51864803  1
  O2-  O461  1  0.63375558  0.32011461  0.86103371  1
  O2-  O462  1  0.67154361  0.57424343  0.18750950  1
  O2-  O463  1  0.67442569  0.59368216  0.53624647  1
  O2-  O464  1  0.65611662  0.57383023  0.85576043  1
  O2-  O465  1  0.67462384  0.82646830  0.20071458  1
  O2-  O466  1  0.65619358  0.81778204  0.53080454  1
  O2-  O467  1  0.67456809  0.82933694  0.86023859  1
  O2-  O468  1  0.91648408  0.09140811  0.16973804  1
  O2-  O469  1  0.93200710  0.09088539  0.52906018  1
  O2-  O470  1  0.90873985  0.06122106  0.85560311  1
  O2-  O471  1  0.93230937  0.34913125  0.18486772  1
  O2-  O472  1  0.93428100  0.34050327  0.51627491  1
  O2-  O473  1  0.95590132  0.37022011  0.84621313  1
  O2-  O474  1  0.92263971  0.59148157  0.18589006  1
  O2-  O475  1  0.91077507  0.57513699  0.52340263  1
  O2-  O476  1  0.90754795  0.58101669  0.85664121  1
  O2-  O477  1  0.95523487  0.90122115  0.20953266  1
  O2-  O478  1  0.91293594  0.82393607  0.54029859  1
  O2-  O479  1  0.91767537  0.83877756  0.86276984  1
  O2-  O480  1  0.17426822  0.06650656  0.33164811  1
  O2-  O481  1  0.08031078  0.02733506  0.64802831  1
  O2-  O482  1  0.16775530  0.06102140  0.97352235  1
  O2-  O483  1  0.17099702  0.31319912  0.28751330  1
  O2-  O484  1  0.23561092  0.32837028  0.63820727  1
  O2-  O485  1  0.14899535  0.33879553  0.98550843  1
  O2-  O486  1  0.20268844  0.66476870  0.27128665  1
  O2-  O487  1  0.13852862  0.55652801  0.63790430  1
  O2-  O488  1  0.15835819  0.57129445  0.97581881  1
  O2-  O489  1  0.11787354  0.77354432  0.31633771  1
  O2-  O490  1  0.15551102  0.82807899  0.65652939  1
  O2-  O491  1  0.21790324  0.81372774  0.96246934  1
  O2-  O492  1  0.44243052  0.11251375  0.29814947  1
  O2-  O493  1  0.40776476  0.06629855  0.59833279  1
  O2-  O494  1  0.41992461  0.11313286  0.96609182  1
  O2-  O495  1  0.41159087  0.33287927  0.30375854  1
  O2-  O496  1  0.38472413  0.31077094  0.62267816  1
  O2-  O497  1  0.38850130  0.33622691  0.95945833  1
  O2-  O498  1  0.40345293  0.57360595  0.31746961  1
  O2-  O499  1  0.40175673  0.56123566  0.65178611  1
  O2-  O500  1  0.40938845  0.58576255  0.98015461  1
  O2-  O501  1  0.39744154  0.84052606  0.34221403  1
  O2-  O502  1  0.38703718  0.81296746  0.63323136  1
  O2-  O503  1  0.43034191  0.84852270  1.01375628  1
  O2-  O504  1  0.67735165  0.07916131  0.30706052  1
  O2-  O505  1  0.65325309  0.07349791  0.64193705  1
  O2-  O506  1  0.65643595  0.06981312  0.97797026  1
  O2-  O507  1  0.68015018  0.34507291  0.30328193  1
  O2-  O508  1  0.64383925  0.32720572  0.64094196  1
  O2-  O509  1  0.57907529  0.24265270  0.97489481  1
  O2-  O510  1  0.66358711  0.57386046  0.31640210  1
  O2-  O511  1  0.65355478  0.58146715  0.65831508  1
  O2-  O512  1  0.67732612  0.58034719  0.97856015  1
  O2-  O513  1  0.67141558  0.83067701  0.32282854  1
  O2-  O514  1  0.65401626  0.82291669  0.65378799  1
  O2-  O515  1  0.67147590  0.82079152  0.98390073  1
  O2-  O516  1  0.92144468  0.08112835  0.32969655  1
  O2-  O517  1  0.92295373  0.09649206  0.65238070  1
  O2-  O518  1  0.90814202  0.08592713  0.98223253  1
  O2-  O519  1  0.92776084  0.33941381  0.30927459  1
  O2-  O520  1  0.89302360  0.32787107  0.71216393  1
  O2-  O521  1  0.90956863  0.34636709  0.97377824  1
  O2-  O522  1  0.91952462  0.58911775  0.30946596  1
  O2-  O523  1  0.89321273  0.57834435  0.64710470  1
  O2-  O524  1  0.93307021  0.61252975  0.97748816  1
  O2-  O525  1  0.92507670  0.83225615  0.32844552  1
  O2-  O526  1  0.92185671  0.86251248  0.64969753  1
  O2-  O527  1  0.92109773  0.84051210  0.97667511  1
  O2-  O528  1  0.07171651  0.17692465  0.02991050  1
  O2-  O529  1  0.09771572  0.16274070  0.35999260  1
  O2-  O530  1  0.09503400  0.17809521  0.69521828  1
  O2-  O531  1  0.08229950  0.42862783  0.02475591  1
  O2-  O532  1  0.09501296  0.40277768  0.35850378  1
  O2-  O533  1  0.05688662  0.39671829  0.68943428  1
  O2-  O534  1  0.07527604  0.74668837  0.02530083  1
  O2-  O535  1  0.08918911  0.68447040  0.33479129  1
  O2-  O536  1  0.06145389  0.63523773  0.68149972  1
  O2-  O537  1  0.08327614  0.90158346  0.01903521  1
  O2-  O538  1  0.08282268  0.90030470  0.38557784  1
  O2-  O539  1  0.06720887  0.89206664  0.70192347  1
  O2-  O540  1  0.32376748  0.17730634  0.00322277  1
  O2-  O541  1  0.34132099  0.17169156  0.34922568  1
  O2-  O542  1  0.32377229  0.15331678  0.57421950  1
  O2-  O543  1  0.32052072  0.41785155  0.01372213  1
  O2-  O544  1  0.32696782  0.41443191  0.35736892  1
  O2-  O545  1  0.37399862  0.47642839  0.67928314  1
  O2-  O546  1  0.32448136  0.67021792  0.02309798  1
  O2-  O547  1  0.33921022  0.67974531  0.31017810  1
  O2-  O548  1  0.30539822  0.64157769  0.67973212  1
  O2-  O549  1  0.35000410  0.94669617  0.03527959  1
  O2-  O550  1  0.26922319  0.87014589  0.38665394  1
  O2-  O551  1  0.32045346  0.90643356  0.66364573  1
  O2-  O552  1  0.60329031  0.10601445  -0.00122799  1
  O2-  O553  1  0.61087649  0.17881494  0.34207284  1
  O2-  O554  1  0.54877393  0.14817523  0.66274028  1
  O2-  O555  1  0.69221538  0.42999256  -0.00750333  1
  O2-  O556  1  0.57703201  0.39290193  0.34536608  1
  O2-  O557  1  0.55039026  0.40180863  0.68772544  1
  O2-  O558  1  0.57669052  0.65654179  0.02149192  1
  O2-  O559  1  0.57774501  0.65654129  0.35013051  1
  O2-  O560  1  0.56339503  0.65638938  0.69491809  1
  O2-  O561  1  0.59950818  0.91249719  0.02775576  1
  O2-  O562  1  0.58377519  0.91097754  0.35877509  1
  O2-  O563  1  0.56307870  0.90539376  0.68603139  1
  O2-  O564  1  0.81291563  0.16722153  -0.00611265  1
  O2-  O565  1  0.84378579  0.17032518  0.35624048  1
  O2-  O566  1  0.81331942  0.15531469  0.69182831  1
  O2-  O567  1  0.84510221  0.44966985  0.02339092  1
  O2-  O568  1  0.84324107  0.42404883  0.35068594  1
  O2-  O569  1  0.80120100  0.41223714  0.69635900  1
  O2-  O570  1  0.84108250  0.68364840  0.01648062  1
  O2-  O571  1  0.82819431  0.66322572  0.35928389  1
  O2-  O572  1  0.82653725  0.67552374  0.69026466  1
  O2-  O573  1  0.83833225  0.91583326  0.02263362  1
  O2-  O574  1  0.83591227  0.90783522  0.36853479  1
  O2-  O575  1  0.82609668  0.91988801  0.69319570  1
