# generated using pymatgen
data_H2O
_symmetry_space_group_name_H-M   'P 1'
_cell_length_a   17.98353543
_cell_length_b   17.99184862
_cell_length_c   22.00206927
_cell_angle_alpha   89.99731697
_cell_angle_beta   90.01785315
_cell_angle_gamma   120.01478884
_symmetry_Int_Tables_number   1
_chemical_formula_structural   H2O
_chemical_formula_sum   'H384 O192'
_cell_volume   6164.25021717
_cell_formula_units_Z   192
loop_
 _symmetry_equiv_pos_site_id
 _symmetry_equiv_pos_as_xyz
  1  'x, y, z'
loop_
 _atom_type_symbol
 _atom_type_oxidation_number
  H+  1.0
  O2-  -2.0
loop_
 _atom_site_type_symbol
 _atom_site_label
 _atom_site_symmetry_multiplicity
 _atom_site_fract_x
 _atom_site_fract_y
 _atom_site_fract_z
 _atom_site_occupancy
  H+  H0  1  0.39365302  1.02840157  0.34743114  1
  H+  H1  1  0.60256804  0.61394240  0.50269242  1
  H+  H2  1  0.08732673  0.46229955  0.00507790  1
  H+  H3  1  0.39342873  0.51531617  -0.00256577  1
  H+  H4  1  0.85812177  0.90802157  0.81217955  1
  H+  H5  1  0.57311617  0.34393010  0.60628973  1
  H+  H6  1  0.77799107  0.88657762  0.35309847  1
  H+  H7  1  0.45890063  0.34872444  0.65170142  1
  H+  H8  1  0.47951319  0.11412885  0.36560987  1
  H+  H9  1  0.10474974  0.38328904  0.01006192  1
  H+  H10  1  0.24659011  0.88411555  0.65708973  1
  H+  H11  1  0.20657223  0.12119831  0.51506812  1
  H+  H12  1  0.36351807  0.48356393  0.67609940  1
  H+  H13  1  -0.01343873  0.11162986  0.33002613  1
  H+  H14  1  0.12263795  0.98618248  0.82464266  1
  H+  H15  1  0.10856617  0.67421447  0.10643677  1
  H+  H16  1  0.10047443  0.87628224  0.16495119  1
  H+  H17  1  0.11651060  0.47175901  0.82583538  1
  H+  H18  1  0.66201308  0.80406869  0.48686772  1
  H+  H19  1  0.67981390  0.10723682  0.57100700  1
  H+  H20  1  0.86229581  0.14859333  0.16125542  1
  H+  H21  1  0.68433827  0.75413889  0.04823198  1
  H+  H22  1  0.89140876  0.28531071  0.17467134  1
  H+  H23  1  0.60298402  0.45957739  0.34738463  1
  H+  H24  1  0.97524618  0.11443138  0.17247081  1
  H+  H25  1  0.62449858  0.34684698  0.18390489  1
  H+  H26  1  0.89204870  0.03474048  0.83641765  1
  H+  H27  1  0.87034120  0.97038672  0.34524480  1
  H+  H28  1  0.35845419  0.89771616  0.16024482  1
  H+  H29  1  0.14024179  0.73994039  0.81357440  1
  H+  H30  1  0.72677075  0.12227225  0.16579758  1
  H+  H31  1  0.72674621  0.62991941  0.16341826  1
  H+  H32  1  0.89992590  0.74976870  0.50665467  1
  H+  H33  1  0.76949710  0.88596607  0.66404309  1
  H+  H34  1  0.67353481  0.05206939  0.66127262  1
  H+  H35  1  0.26717773  0.37651886  0.16607336  1
  H+  H36  1  0.88224699  0.30019601  0.33044703  1
  H+  H37  1  0.60789294  0.70887446  0.17603303  1
  H+  H38  1  0.38406371  0.60136832  0.18342801  1
  H+  H39  1  0.83206714  0.68852091  0.08455117  1
  H+  H40  1  0.63365833  0.11726753  0.16880092  1
  H+  H41  1  0.60711880  0.62091306  0.17076724  1
  H+  H42  1  0.60700322  0.89911101  0.16646934  1
  H+  H43  1  0.11805381  0.97949820  0.34719404  1
  H+  H44  1  0.72956026  0.59174241  0.65280282  1
  H+  H45  1  0.99225055  0.11292188  0.67269756  1
  H+  H46  1  0.82978010  0.18989611  0.40850363  1
  H+  H47  1  0.89034241  0.60533199  0.51763025  1
  H+  H48  1  0.63514495  0.36706199  0.99447415  1
  H+  H49  1  0.36105617  0.88268913  0.50177038  1
  H+  H50  1  0.27594736  0.58956194  -0.00431356  1
  H+  H51  1  0.11012119  0.11354798  0.16386434  1
  H+  H52  1  0.75746727  0.12102978  0.78668191  1
  H+  H53  1  0.37286678  0.35565779  0.50557365  1
  H+  H54  1  0.89180628  0.80646810  0.82834927  1
  H+  H55  1  0.35590528  0.22414039  0.67167160  1
  H+  H56  1  0.75673397  0.84261025  0.08100456  1
  H+  H57  1  0.39832541  0.12265160  -0.00941717  1
  H+  H58  1  0.52481662  0.87196926  0.67306848  1
  H+  H59  1  0.86332119  0.24064034  0.49809152  1
  H+  H60  1  0.25502418  0.59667891  1.02293097  1
  H+  H61  1  0.35050219  0.17017899  0.42849877  1
  H+  H62  1  0.22999575  0.36974673  0.83953721  1
  H+  H63  1  0.62931819  0.34663587  0.33928485  1
  H+  H64  1  0.16300745  0.79023426  0.64974666  1
  H+  H65  1  0.38098995  0.27647881  0.83893156  1
  H+  H66  1  0.48179200  0.86521721  0.83586281  1
  H+  H67  1  0.74532884  0.13915261  0.68857748  1
  H+  H68  1  0.35450972  0.46653778  0.16591986  1
  H+  H69  1  0.75377664  0.60691175  0.49120062  1
  H+  H70  1  0.10359288  0.47408852  0.49282414  1
  H+  H71  1  -0.03986892  0.34839403  0.00815605  1
  H+  H72  1  0.42156016  0.84710578  0.26997075  1
  H+  H73  1  0.63939631  1.03316656  0.52163646  1
  H+  H74  1  0.02603814  0.87989441  0.67158305  1
  H+  H75  1  0.37710219  0.76540383  0.51175666  1
  H+  H76  1  0.16637668  0.34199275  0.27641298  1
  H+  H77  1  0.56486613  0.52461911  0.28424715  1
  H+  H78  1  0.74498901  0.88726830  0.51051677  1
  H+  H79  1  0.61694003  0.88777266  0.52022271  1
  H+  H80  1  0.51342367  0.13331257  0.16274994  1
  H+  H81  1  0.36382471  0.47654797  0.34502216  1
  H+  H82  1  0.13276468  1.01749699  0.66495132  1
  H+  H83  1  0.35012360  0.46826933  0.49773982  1
  H+  H84  1  0.12656569  0.20584517  0.14372315  1
  H+  H85  1  0.31655773  0.11614839  0.48940078  1
  H+  H86  1  0.43427200  0.11915278  0.50478804  1
  H+  H87  1  0.23035124  0.11413986  0.33149146  1
  H+  H88  1  0.39477277  0.87038097  0.66555474  1
  H+  H89  1  0.57025537  0.89407250  0.46392700  1
  H+  H90  1  0.12694351  0.26989075  0.98554942  1
  H+  H91  1  0.64688282  0.49799978  0.64575695  1
  H+  H92  1  0.83676037  0.13066144  0.00973258  1
  H+  H93  1  -0.02768536  0.58268127  0.85793699  1
  H+  H94  1  0.84108410  0.93459715  0.44656638  1
  H+  H95  1  0.98870057  0.86299818  0.98856962  1
  H+  H96  1  0.38202963  0.99136265  0.67327690  1
  H+  H97  1  0.85012847  0.48407774  0.34345833  1
  H+  H98  1  0.47737863  0.61488163  0.33497617  1
  H+  H99  1  0.00028193  0.63120462  0.65778628  1
  H+  H100  1  0.22737602  0.86284732  0.33172923  1
  H+  H101  1  0.71662473  0.37707200  0.65886963  1
  H+  H102  1  0.74457177  0.79650361  0.21800030  1
  H+  H103  1  0.85488610  0.78141453  0.18019222  1
  H+  H104  1  0.10748338  0.97719303  0.49642134  1
  H+  H105  1  1.03611169  0.64728450  1.01774783  1
  H+  H106  1  0.61417275  0.59806250  0.33069701  1
  H+  H107  1  0.62470188  0.50934557  0.50706720  1
  H+  H108  1  1.02534042  0.63315870  0.49325009  1
  H+  H109  1  0.11659229  0.11455519  0.51206393  1
  H+  H110  1  0.48535717  0.87551872  0.32645482  1
  H+  H111  1  0.90192474  0.58372538  0.27233885  1
  H+  H112  1  0.64586022  0.60799610  1.00479817  1
  H+  H113  1  0.27317688  0.63868384  0.18558668  1
  H+  H114  1  0.10845057  0.72592578  0.33753611  1
  H+  H115  1  0.60035780  0.38222963  0.82999058  1
  H+  H116  1  0.51149768  0.38114888  0.49825188  1
  H+  H117  1  0.13774078  0.52570963  0.33354612  1
  H+  H118  1  0.97503781  0.12985797  0.51114002  1
  H+  H119  1  0.11117444  0.99139849  0.17885769  1
  H+  H120  1  0.16141645  0.34851301  0.60264021  1
  H+  H121  1  0.36896454  0.98283380  0.82821066  1
  H+  H122  1  0.12327286  0.89055629  0.01224908  1
  H+  H123  1  0.61937101  0.24919270  0.18659992  1
  H+  H124  1  0.38619478  0.61898874  0.66429400  1
  H+  H125  1  0.73076967  0.12532694  0.31935209  1
  H+  H126  1  0.11848506  0.22789002  0.82611010  1
  H+  H127  1  0.61322063  0.73550445  0.83752918  1
  H+  H128  1  0.87160525  0.47576592  0.49925859  1
  H+  H129  1  0.47530474  0.87971805  0.17314647  1
  H+  H130  1  0.27890507  0.14120446  0.82618163  1
  H+  H131  1  0.62852726  -0.00450133  0.32261687  1
  H+  H132  1  0.64422291  0.24204462  0.67037642  1
  H+  H133  1  0.18592390  0.86000463  0.57047060  1
  H+  H134  1  0.22316053  0.87093121  0.17468684  1
  H+  H135  1  0.00458133  0.39140010  0.67158754  1
  H+  H136  1  0.78596758  0.63659274  -0.00410171  1
  H+  H137  1  0.81779458  0.00454133  0.97693037  1
  H+  H138  1  0.96460018  0.61943576  0.84985170  1
  H+  H139  1  0.62432453  0.52430263  0.84477088  1
  H+  H140  1  0.46939339  0.85996828  0.99159591  1
  H+  H141  1  0.17767811  0.84242684  0.94127087  1
  H+  H142  1  0.20635050  0.06831245  0.18791828  1
  H+  H143  1  0.21567520  0.36123298  0.50601640  1
  H+  H144  1  0.88839293  0.33227952  0.80757066  1
  H+  H145  1  0.38951359  0.12242671  0.16820864  1
  H+  H146  1  0.87668380  0.72770212  -0.00872328  1
  H+  H147  1  0.91585770  0.06330032  0.99901317  1
  H+  H148  1  -0.03377652  0.32367948  0.82571446  1
  H+  H149  1  0.29052749  0.18070584  0.14792147  1
  H+  H150  1  0.38788456  0.36216119  0.33205265  1
  H+  H151  1  0.27648096  0.64194545  0.68387730  1
  H+  H152  1  0.37535211  0.60626435  0.50751715  1
  H+  H153  1  0.10827075  0.59446286  0.98679532  1
  H+  H154  1  0.52679156  0.14120651  0.81953522  1
  H+  H155  1  0.48821876  0.12543301  -0.00570246  1
  H+  H156  1  0.52156115  0.64908365  0.67717673  1
  H+  H157  1  0.10833992  0.23214354  0.49699476  1
  H+  H158  1  0.57840879  0.64591907  0.08252054  1
  H+  H159  1  0.12859621  0.61291668  0.49655732  1
  H+  H160  1  0.13503000  0.36721328  0.33658775  1
  H+  H161  1  0.66888249  0.75362472  0.65362084  1
  H+  H162  1  0.21983346  0.38093551  0.66230302  1
  H+  H163  1  0.59149258  0.69205602  0.52208123  1
  H+  H164  1  0.86504045  1.00026075  0.50306189  1
  H+  H165  1  0.89739499  0.78240259  0.32978444  1
  H+  H166  1  0.49408456  0.62414530  0.83837538  1
  H+  H167  1  0.37106166  0.23356130  0.00006353  1
  H+  H168  1  0.39446313  0.52507954  0.83355082  1
  H+  H169  1  0.12728112  0.73352335  0.01154029  1
  H+  H170  1  0.68201415  0.85640967  0.89898446  1
  H+  H171  1  0.15178627  0.88764375  0.50574736  1
  H+  H172  1  0.88368412  0.19566815  0.35000265  1
  H+  H173  1  0.22588019  0.61616409  0.33178393  1
  H+  H174  1  0.88678420  0.85141405  0.64738478  1
  H+  H175  1  0.12533103  0.97959310  0.00782979  1
  H+  H176  1  0.33901928  0.42926385  0.76694785  1
  H+  H177  1  0.12204268  0.86325385  0.83910317  1
  H+  H178  1  0.71554898  0.60671841  0.84163100  1
  H+  H179  1  0.61217402  0.97841039  0.82382546  1
  H+  H180  1  0.53283348  0.38028878  0.16555813  1
  H+  H181  1  0.61477335  -0.00963783  0.15710666  1
  H+  H182  1  0.96618079  0.61404780  0.32972771  1
  H+  H183  1  0.60829860  0.26458199  0.51981970  1
  H+  H184  1  0.03048484  0.13693931  0.83343377  1
  H+  H185  1  0.36487667  0.22414854  0.33934123  1
  H+  H186  1  0.28144295  0.89343935  0.82772271  1
  H+  H187  1  0.37245475  -0.01188445  1.00501100  1
  H+  H188  1  0.71665359  0.11791883  0.99329734  1
  H+  H189  1  0.77104842  0.39204931  1.00736736  1
  H+  H190  1  0.11545387  0.22982005  0.34324285  1
  H+  H191  1  0.38618276  0.36242536  0.99558744  1
  H+  H192  1  0.36971234  0.13641208  0.34682265  1
  H+  H193  1  0.62445988  0.03409068  -0.01547114  1
  H+  H194  1  0.60058896  0.95381522  0.38631979  1
  H+  H195  1  0.16166344  0.07591680  0.27628760  1
  H+  H196  1  0.63064593  0.14911888  0.67742103  1
  H+  H197  1  0.36517082  0.88828218  0.34495632  1
  H+  H198  1  0.14314157  0.11804140  0.83871405  1
  H+  H199  1  0.91407305  0.33774632  0.56830978  1
  H+  H200  1  0.39644236  0.62315994  0.83638894  1
  H+  H201  1  0.59709893  0.37613230  0.50628900  1
  H+  H202  1  0.36714658  0.39736576  0.82762222  1
  H+  H203  1  0.80055214  0.93727485  0.72896972  1
  H+  H204  1  0.13000180  0.73108377  0.16671195  1
  H+  H205  1  0.86388364  0.47784330  0.01033485  1
  H+  H206  1  0.46081672  0.59837778  0.50979430  1
  H+  H207  1  0.82714513  0.17378767  0.10187249  1
  H+  H208  1  0.61437766  0.72885244  0.35293463  1
  H+  H209  1  0.11970818  0.88768222  0.67151095  1
  H+  H210  1  0.72221585  0.35614533  0.33558571  1
  H+  H211  1  0.80070083  0.35176272  0.64407430  1
  H+  H212  1  0.62171558  0.22417694  0.37499050  1
  H+  H213  1  0.24166443  0.87493464  0.99852603  1
  H+  H214  1  0.70008565  0.94567402  0.67021362  1
  H+  H215  1  0.87581665  0.35629791  1.00577498  1
  H+  H216  1  0.86435256  0.64954907  0.33724848  1
  H+  H217  1  0.02390930  0.39578814  0.34145399  1
  H+  H218  1  0.14064268  0.65001202  0.65245032  1
  H+  H219  1  0.36792318  0.64286631  0.34208477  1
  H+  H220  1  0.86977127  0.40207767  0.16408537  1
  H+  H221  1  0.83824240  0.45424648  0.79926087  1
  H+  H222  1  0.88958942  0.09107003  0.33543811  1
  H+  H223  1  0.12632759  0.36228033  0.50573240  1
  H+  H224  1  0.61702166  0.47491366  1.01186409  1
  H+  H225  1  0.35588398  0.68384075  0.22815538  1
  H+  H226  1  0.89767251  0.61828315  0.99395357  1
  H+  H227  1  0.62508873  0.15003316  0.47733769  1
  H+  H228  1  0.39104574  0.86207675  0.83396074  1
  H+  H229  1  0.98410514  0.84203864  0.50624093  1
  H+  H230  1  0.10678362  0.63635123  0.33701899  1
  H+  H231  1  0.73234918  0.86209279  0.99310483  1
  H+  H232  1  0.40506074  0.12386881  0.66225224  1
  H+  H233  1  0.36454161  0.73366077  0.68053097  1
  H+  H234  1  0.88696797  0.13310816  0.51279446  1
  H+  H235  1  0.35632943  0.39059150  0.67544741  1
  H+  H236  1  0.53650958  0.63091929  0.01656015  1
  H+  H237  1  0.84520837  0.20217120  0.77444921  1
  H+  H238  1  0.38712419  0.79053985  0.17889602  1
  H+  H239  1  0.76587255  0.89837156  0.82267958  1
  H+  H240  1  0.15059006  0.62271922  0.17637125  1
  H+  H241  1  -0.12499760  0.52430079  0.17988092  1
  H+  H242  1  0.38210408  0.27028359  0.50550320  1
  H+  H243  1  0.08787064  0.42326652  0.10421567  1
  H+  H244  1  0.87488235  0.03043816  0.66263990  1
  H+  H245  1  0.72384515  0.85690648  0.18455563  1
  H+  H246  1  0.52547701  0.38824529  0.00928428  1
  H+  H247  1  0.80731751  0.56338785  0.81106328  1
  H+  H248  1  0.02826761  0.89072987  0.34415101  1
  H+  H249  1  0.88495218  0.36645375  0.50609469  1
  H+  H250  1  0.26502003  0.63344203  0.49192200  1
  H+  H251  1  0.00758971  0.02128071  0.03265556  1
  H+  H252  1  0.84524192  0.22507691  0.01286191  1
  H+  H253  1  0.90651646  0.62130216  0.66210896  1
  H+  H254  1  0.64381900  0.87060584  0.33336706  1
  H+  H255  1  0.46712492  0.85329678  0.52177767  1
  H+  H256  1  0.37969181  0.73047163  0.83155713  1
  H+  H257  1  0.10019096  0.11876626  0.68063476  1
  H+  H258  1  0.98395669  0.88871768  0.83065543  1
  H+  H259  1  0.86634151  0.60805821  0.18348206  1
  H+  H260  1  0.26817605  0.37921108  0.00788337  1
  H+  H261  1  0.77404155  0.14896855  0.49669086  1
  H+  H262  1  0.38198320  0.03015755  0.16781543  1
  H+  H263  1  0.95361891  0.46620088  0.76794137  1
  H+  H264  1  0.89748017  0.87019549  0.33763528  1
  H+  H265  1  0.84778718  -0.01306898  0.15179301  1
  H+  H266  1  0.62667528  0.27212657  0.83521280  1
  H+  H267  1  0.49816631  0.12967615  0.66272870  1
  H+  H268  1  0.13084629  0.37191565  0.17659630  1
  H+  H269  1  0.25086889  0.88778862  0.50676716  1
  H+  H270  1  0.52548825  0.80561806  0.04078290  1
  H+  H271  1  0.12724474  0.51030961  0.66293965  1
  H+  H272  1  0.23644722  0.12056000  -0.00662713  1
  H+  H273  1  0.47512103  0.35704816  0.33458059  1
  H+  H274  1  0.09947457  0.27709921  0.19785161  1
  H+  H275  1  0.08062647  0.77908569  0.87771962  1
  H+  H276  1  0.39478004  0.37175344  0.17878637  1
  H+  H277  1  0.37014996  0.89733689  0.00348836  1
  H+  H278  1  0.24408275  0.60893075  0.84403674  1
  H+  H279  1  0.39090229  0.11693461  0.83812350  1
  H+  H280  1  0.63487993  0.86748724  0.84072364  1
  H+  H281  1  0.41656436  0.33827875  0.93379849  1
  H+  H282  1  0.86178915  0.65992631  0.83089336  1
  H+  H283  1  0.61870238  0.23986759  0.01239412  1
  H+  H284  1  0.84546594  0.89902132  0.16315817  1
  H+  H285  1  0.78586898  0.74006532  0.09428573  1
  H+  H286  1  0.46871041  0.36589251  0.84031687  1
  H+  H287  1  0.09618613  0.39141194  0.67306516  1
  H+  H288  1  0.98280049  0.37274345  0.17571816  1
  H+  H289  1  0.88892181  0.83220319  0.24517311  1
  H+  H290  1  0.15477124  0.08027993  0.60803158  1
  H+  H291  1  0.59168344  0.17783183  0.76145734  1
  H+  H292  1  0.16730131  0.83787910  0.23621610  1
  H+  H293  1  0.33012231  0.92381560  0.09862307  1
  H+  H294  1  0.66589642  0.58135288  0.93998749  1
  H+  H295  1  0.41692035  0.84248512  0.93017764  1
  H+  H296  1  0.13962569  0.86509608  0.33197995  1
  H+  H297  1  0.09048631  0.92307330  0.76524772  1
  H+  H298  1  0.42560179  0.08991661  0.89663390  1
  H+  H299  1  0.58484527  0.91038432  0.76802754  1
  H+  H300  1  0.92316658  0.09656722  0.60491751  1
  H+  H301  1  0.12584532  0.68508941  0.71449841  1
  H+  H302  1  0.01352435  0.38409275  0.49637342  1
  H+  H303  1  0.11910754  0.14151221  0.34423266  1
  H+  H304  1  0.41784454  0.57871540  0.27491680  1
  H+  H305  1  0.66393237  0.89230453  0.99108002  1
  H+  H306  1  0.33305360  0.91284578  0.40538202  1
  H+  H307  1  0.08950700  0.91989703  0.43531580  1
  H+  H308  1  0.70045143  0.80721049  0.59233004  1
  H+  H309  1  0.42232236  0.65982738  0.04124709  1
  H+  H310  1  0.07568107  0.91026848  0.10566422  1
  H+  H311  1  0.37045952  0.73407626  0.34105453  1
  H+  H312  1  0.66830923  0.08870980  0.88802265  1
  H+  H313  1  0.91440250  0.08422287  0.89951554  1
  H+  H314  1  0.88039352  0.40966898  0.71777075  1
  H+  H315  1  0.17471866  0.08662122  0.89689443  1
  H+  H316  1  0.16432394  0.62025691  0.83152071  1
  H+  H317  1  0.16464700  0.33349084  0.92969255  1
  H+  H318  1  0.13841306  0.36392714  0.83625595  1
  H+  H319  1  0.40201079  0.69773462  0.09958867  1
  H+  H320  1  0.57913260  0.33489167  0.67521619  1
  H+  H321  1  0.93033924  0.58316439  0.57512064  1
  H+  H322  1  0.43650465  0.08345518  0.57059613  1
  H+  H323  1  0.93021995  0.84577555  0.92947987  1
  H+  H324  1  0.16763254  0.58283997  0.23826908  1
  H+  H325  1  0.58005866  0.68125414  0.73649140  1
  H+  H326  1  0.07818926  0.66179337  0.43064470  1
  H+  H327  1  0.42720993  0.57893299  0.94088813  1
  H+  H328  1  0.86247626  0.71986254  0.66993974  1
  H+  H329  1  0.66331426  0.31866836  0.57909757  1
  H+  H330  1  0.39262484  0.32561485  0.59960924  1
  H+  H331  1  0.94227691  0.58713037  0.94457335  1
  H+  H332  1  0.57712429  0.40277144  0.40838944  1
  H+  H333  1  0.70489925  0.37163108  0.83899192  1
  H+  H334  1  0.80449640  0.57617084  0.44932157  1
  H+  H335  1  0.42544431  0.34196194  0.23863745  1
  H+  H336  1  0.38489286  0.25273533  0.16031529  1
  H+  H337  1  0.20983664  0.54609481  0.62181017  1
  H+  H338  1  0.32611289  0.41241843  0.43648957  1
  H+  H339  1  0.33851831  0.17111286  0.76690815  1
  H+  H340  1  0.04594806  0.10693820  0.06930569  1
  H+  H341  1  0.83005494  0.67968539  0.39265750  1
  H+  H342  1  0.34347706  0.92895042  0.73122122  1
  H+  H343  1  0.61387961  0.64473055  0.83488892  1
  H+  H344  1  0.07980245  0.41490869  0.76592513  1
  H+  H345  1  0.12218058  0.48623092  0.16370772  1
  H+  H346  1  0.86092651  0.40193913  0.33986070  1
  H+  H347  1  0.37622214  0.97994251  0.50125355  1
  H+  H348  1  0.58214622  0.17419806  0.10672944  1
  H+  H349  1  0.91993010  0.35159662  0.26798145  1
  H+  H350  1  0.82422163  0.47524716  0.86743933  1
  H+  H351  1  0.59191429  0.39846813  0.10686275  1
  H+  H352  1  0.65890014  0.33306826  0.93410619  1
  H+  H353  1  0.57485422  0.89770696  0.06763608  1
  H+  H354  1  0.34793976  0.67016490  0.77183568  1
  H+  H355  1  0.57787502  0.42167422  0.77235748  1
  H+  H356  1  0.63440070  0.11344320  0.82956232  1
  H+  H357  1  0.82881537  0.65439179  0.72665944  1
  H+  H358  1  0.06494846  0.64708172  0.80420683  1
  H+  H359  1  0.07112242  0.15297106  0.74030042  1
  H+  H360  1  0.61590943  0.14990698  0.00921747  1
  H+  H361  1  0.83458108  0.42618400  0.10591814  1
  H+  H362  1  0.15485705  0.58083949  0.55732592  1
  H+  H363  1  0.66443210  0.57007154  0.56601746  1
  H+  H364  1  0.92409348  0.81730331  0.59606806  1
  H+  H365  1  0.34736557  0.17944556  0.06087100  1
  H+  H366  1  0.40980451  0.58459623  0.60394845  1
  H+  H367  1  0.58038735  0.66342916  0.40941269  1
  H+  H368  1  0.67647925  0.09260036  0.25665325  1
  H+  H369  1  0.27384421  0.13108086  0.67490434  1
  H+  H370  1  0.83586498  0.42060535  0.43827460  1
  H+  H371  1  0.47199847  0.59878475  0.18126312  1
  H+  H372  1  0.91779021  0.08716136  0.23180184  1
  H+  H373  1  0.41103852  0.82809127  0.60693109  1
  H+  H374  1  0.27386656  0.38803102  0.34384072  1
  H+  H375  1  0.67650101  0.82789198  0.28317501  1
  H+  H376  1  0.07776013  0.41673623  0.40355701  1
  H+  H377  1  0.33046846  0.66758845  0.43563656  1
  H+  H378  1  0.32479104  0.40606702  0.06893565  1
  H+  H379  1  0.13863958  0.10377351  0.99326660  1
  H+  H380  1  0.64986382  0.31120892  0.25230682  1
  H+  H381  1  0.13520093  0.56031081  0.92825599  1
  H+  H382  1  0.07981023  0.17025102  0.43784763  1
  H+  H383  1  0.68072697  0.58690285  0.22710775  1
  O2-  O384  1  0.08304410  0.14501509  0.14396935  1
  O2-  O385  1  0.07691919  0.16989209  0.48314554  1
  O2-  O386  1  0.08990798  0.16640194  0.81369006  1
  O2-  O387  1  0.09063772  0.42453876  0.15010962  1
  O2-  O388  1  0.07430362  0.41267549  0.47947523  1
  O2-  O389  1  0.08681269  0.41164724  0.81090833  1
  O2-  O390  1  0.11159027  0.67238944  0.15145978  1
  O2-  O391  1  0.08428636  0.66094654  0.47562651  1
  O2-  O392  1  0.12560774  0.68439074  0.79378117  1
  O2-  O393  1  0.06928041  0.90629631  0.15058404  1
  O2-  O394  1  0.09134020  0.91880160  0.48160796  1
  O2-  O395  1  0.08870571  0.92428989  0.81087346  1
  O2-  O396  1  0.34928850  0.19413864  0.14034130  1
  O2-  O397  1  0.36047840  0.17181048  0.47429203  1
  O2-  O398  1  0.34025547  0.17341509  0.81246726  1
  O2-  O399  1  0.32621733  0.40615037  0.14975961  1
  O2-  O400  1  0.32121920  0.40801564  0.48189184  1
  O2-  O401  1  0.34290668  0.43407138  0.81320229  1
  O2-  O402  1  0.34032338  0.67365952  0.18519144  1
  O2-  O403  1  0.32784903  0.66418401  0.48097055  1
  O2-  O404  1  0.35303019  0.66842115  0.81751919  1
  O2-  O405  1  0.32597235  0.92479865  0.14398308  1
  O2-  O406  1  0.33652227  0.91840297  0.48603355  1
  O2-  O407  1  0.33953636  0.92235509  0.81117571  1
  O2-  O408  1  0.57793459  0.16589920  0.15193573  1
  O2-  O409  1  0.60545915  0.18877666  0.46067038  1
  O2-  O410  1  0.58841808  0.17487184  0.80761832  1
  O2-  O411  1  0.59009029  0.39164008  0.15171216  1
  O2-  O412  1  0.57280113  0.40872577  0.48468670  1
  O2-  O413  1  0.57496843  0.41932281  0.81662596  1
  O2-  O414  1  0.57205611  0.64985696  0.15978746  1
  O2-  O415  1  0.57062392  0.64618698  0.49189724  1
  O2-  O416  1  0.58130734  0.67407986  0.82225343  1
  O2-  O417  1  0.57959300  0.92683324  0.14557650  1
  O2-  O418  1  0.57789437  0.91008321  0.50669685  1
  O2-  O419  1  0.58249680  0.91513570  0.81318962  1
  O2-  O420  1  0.83167890  0.17880149  0.14768249  1
  O2-  O421  1  0.83363366  0.17980205  0.47988713  1
  O2-  O422  1  0.80077874  0.14844960  0.75447908  1
  O2-  O423  1  0.83816234  0.43100922  0.15083630  1
  O2-  O424  1  0.83948155  0.41630408  0.48300636  1
  O2-  O425  1  0.89195610  0.42698960  0.76485999  1
  O2-  O426  1  0.80849462  0.70841546  0.11774302  1
  O2-  O427  1  0.81228674  0.62583333  0.47248137  1
  O2-  O428  1  0.81120134  0.62129560  0.80720626  1
  O2-  O429  1  0.81623264  0.92536025  0.14043107  1
  O2-  O430  1  0.83565919  0.93843257  0.49120618  1
  O2-  O431  1  0.82262611  0.93400070  0.80185172  1
  O2-  O432  1  0.14772060  0.05490966  0.19660083  1
  O2-  O433  1  0.14725202  0.08359466  0.52775614  1
  O2-  O434  1  0.17387977  0.08643921  0.85151659  1
  O2-  O435  1  0.15196540  0.33262456  0.19458376  1
  O2-  O436  1  0.15540947  0.33083016  0.52167441  1
  O2-  O437  1  0.16998621  0.33560307  0.85420110  1
  O2-  O438  1  0.17666865  0.58636266  0.19317760  1
  O2-  O439  1  0.15988714  0.58127358  0.51279956  1
  O2-  O440  1  0.18134464  0.58185540  0.85154745  1
  O2-  O441  1  0.16337903  0.83698625  0.19085278  1
  O2-  O442  1  0.18711494  0.86192846  0.52362705  1
  O2-  O443  1  0.13514449  0.81935604  0.85844837  1
  O2-  O444  1  0.41787200  0.09071983  0.18191910  1
  O2-  O445  1  0.43633555  0.07242578  0.52609047  1
  O2-  O446  1  0.42084428  0.08531932  0.85117217  1
  O2-  O447  1  0.42913843  0.34538944  0.19298282  1
  O2-  O448  1  0.40568000  0.32889448  0.52295035  1
  O2-  O449  1  0.40814111  0.33690671  0.85493089  1
  O2-  O450  1  0.41034061  0.56671964  0.19615330  1
  O2-  O451  1  0.40073127  0.57242536  0.52501389  1
  O2-  O452  1  0.42697932  0.58836181  0.85075101  1
  O2-  O453  1  0.41623160  0.85179640  0.19102139  1
  O2-  O454  1  0.40423497  0.82461069  0.52994994  1
  O2-  O455  1  0.42005453  0.83146334  0.84988183  1
  O2-  O456  1  0.66558533  0.08651377  0.17990785  1
  O2-  O457  1  0.67061873  0.09613487  0.52666725  1
  O2-  O458  1  0.66166449  0.07978510  0.84352307  1
  O2-  O459  1  0.64864505  0.31015397  0.20567158  1
  O2-  O460  1  0.61747150  0.31142961  0.54748112  1
  O2-  O461  1  0.64605449  0.33069620  0.85377898  1
  O2-  O462  1  0.67155663  0.58891222  0.18338160  1
  O2-  O463  1  0.65830260  0.57159207  0.51972475  1
  O2-  O464  1  0.65731251  0.58498534  0.85918111  1
  O2-  O465  1  0.69458088  0.80596040  0.21192050  1
  O2-  O466  1  0.67982816  0.84424251  0.52079841  1
  O2-  O467  1  0.66746951  0.83883097  0.85535830  1
  O2-  O468  1  0.91590227  0.09288840  0.18700109  1
  O2-  O469  1  0.91656011  0.10283600  0.52980166  1
  O2-  O470  1  0.93638955  0.08619815  0.85813334  1
  O2-  O471  1  0.92315203  0.34435803  0.19210622  1
  O2-  O472  1  0.91520426  0.33472549  0.52175691  1
  O2-  O473  1  0.90312326  0.29056619  0.82431413  1
  O2-  O474  1  0.89846079  0.58263134  0.20014996  1
  O2-  O475  1  0.92643707  0.58072400  0.52896787  1
  O2-  O476  1  0.80050580  0.46954311  0.82669082  1
  O2-  O477  1  0.85340117  0.82398130  0.20788447  1
  O2-  O478  1  0.92685454  0.80673241  0.52512472  1
  O2-  O479  1  0.92310225  0.86416495  0.84520325  1
  O2-  O480  1  0.16738975  0.08504315  0.32102833  1
  O2-  O481  1  0.16087578  0.07946412  0.65295078  1
  O2-  O482  1  0.17682597  0.08428778  0.97641773  1
  O2-  O483  1  0.16641026  0.33737787  0.32137944  1
  O2-  O484  1  0.16125590  0.36025195  0.64663404  1
  O2-  O485  1  0.16283364  0.33055285  0.97575966  1
  O2-  O486  1  0.16596036  0.58510762  0.31613434  1
  O2-  O487  1  0.17537167  0.56644603  0.64264533  1
  O2-  O488  1  0.09806433  0.54219863  0.96451008  1
  O2-  O489  1  0.16760194  0.83366597  0.31508109  1
  O2-  O490  1  0.18628532  0.85264565  0.64002893  1
  O2-  O491  1  0.17869985  0.84134637  0.98594280  1
  O2-  O492  1  0.42572726  0.09167587  0.34223943  1
  O2-  O493  1  0.43667177  0.09471850  0.64846118  1
  O2-  O494  1  0.42934400  0.09319982  0.97567299  1
  O2-  O495  1  0.41684314  0.33158485  0.31511852  1
  O2-  O496  1  0.39664950  0.32717155  0.64521067  1
  O2-  O497  1  0.42016610  0.33670036  0.97912344  1
  O2-  O498  1  0.41657037  0.58348082  0.32022091  1
  O2-  O499  1  0.41354004  0.58617557  0.64928199  1
  O2-  O500  1  0.43091940  0.57652434  0.98528587  1
  O2-  O501  1  0.42346927  0.84110870  0.31507112  1
  O2-  O502  1  0.41866051  0.83331329  0.65222112  1
  O2-  O503  1  0.41279162  0.84591900  0.97493001  1
  O2-  O504  1  0.67356968  0.08709847  0.30180679  1
  O2-  O505  1  0.64716612  -0.05400374  0.65380975  1
  O2-  O506  1  0.65854098  0.09407095  0.97232082  1
  O2-  O507  1  0.65982220  0.31624240  0.32473155  1
  O2-  O508  1  0.71283785  0.32683963  0.63922963  1
  O2-  O509  1  0.66664710  0.33770970  0.97899326  1
  O2-  O510  1  0.61776560  0.55191828  0.30795530  1
  O2-  O511  1  0.67026946  0.55889919  0.63614198  1
  O2-  O512  1  0.67506588  0.57945974  0.98441530  1
  O2-  O513  1  0.67110956  0.83450413  0.32802866  1
  O2-  O514  1  0.72159970  0.79576196  0.63063426  1
  O2-  O515  1  0.71661358  0.90011084  0.97002163  1
  O2-  O516  1  0.92630195  0.07541128  0.31284043  1
  O2-  O517  1  0.92418222  0.08881368  0.65025758  1
  O2-  O518  1  0.86835381  0.06364426  0.97695975  1
  O2-  O519  1  0.92119935  0.35810654  0.31352554  1
  O2-  O520  1  0.91417665  0.34327598  0.64069088  1
  O2-  O521  1  0.89979471  0.31910560  0.99389059  1
  O2-  O522  1  0.90412643  0.58607651  0.31866103  1
  O2-  O523  1  0.93921841  0.59373196  0.64772721  1
  O2-  O524  1  0.93058018  0.58612098  0.98791781  1
  O2-  O525  1  0.92946590  0.84549204  0.31676183  1
  O2-  O526  1  0.92253156  0.82516180  0.64208061  1
  O2-  O527  1  0.92927274  0.82956435  0.97231561  1
  O2-  O528  1  0.02853136  0.08254546  0.02764560  1
  O2-  O529  1  0.08466348  0.16868276  0.35749496  1
  O2-  O530  1  0.06537701  0.14512094  0.69464039  1
  O2-  O531  1  0.07350502  0.40903688  0.02952428  1
  O2-  O532  1  0.08360161  0.41986955  0.35788142  1
  O2-  O533  1  0.06610936  0.42189612  0.68972141  1
  O2-  O534  1  0.09826105  0.67367530  0.02737703  1
  O2-  O535  1  0.07498655  0.66503501  0.35159515  1
  O2-  O536  1  0.11983741  0.68680457  0.66962611  1
  O2-  O537  1  0.09079585  0.92011382  0.02398582  1
  O2-  O538  1  0.08841535  0.91875730  0.36174355  1
  O2-  O539  1  0.08577149  0.91310093  0.68836103  1
  O2-  O540  1  0.34108369  0.17285107  0.01598205  1
  O2-  O541  1  0.33364508  0.16467323  0.35613169  1
  O2-  O542  1  0.33496292  0.16478356  0.68793776  1
  O2-  O543  1  0.32818244  0.40802557  0.02365374  1
  O2-  O544  1  0.33450113  0.41533536  0.35869364  1
  O2-  O545  1  0.33116756  0.42405422  0.69348213  1
  O2-  O546  1  0.44681084  0.70805987  0.07014872  1
  O2-  O547  1  0.33682065  0.67320646  0.35520235  1
  O2-  O548  1  0.33700137  0.67347882  0.69761871  1
  O2-  O549  1  0.33997122  0.92796858  0.02060367  1
  O2-  O550  1  0.33191291  0.91512164  0.36026845  1
  O2-  O551  1  0.34593866  0.92946800  0.68593861  1
  O2-  O552  1  0.58731751  0.17943063  0.02844189  1
  O2-  O553  1  0.59179576  0.16691533  0.39594588  1
  O2-  O554  1  0.60060400  0.18221209  0.68766681  1
  O2-  O555  1  0.58503044  0.41370902  0.02562314  1
  O2-  O556  1  0.57684197  0.39958908  0.36274090  1
  O2-  O557  1  0.56508759  0.36656524  0.64577090  1
  O2-  O558  1  0.59238952  0.65310624  0.03808361  1
  O2-  O559  1  0.58151550  0.66660961  0.36438586  1
  O2-  O560  1  0.58104605  0.68524924  0.69200914  1
  O2-  O561  1  0.56447396  0.86676568  0.02837777  1
  O2-  O562  1  0.59645865  0.93567118  0.34414934  1
  O2-  O563  1  0.57946594  0.88290586  0.69332575  1
  O2-  O564  1  0.80919748  0.16207672  0.02734983  1
  O2-  O565  1  0.83138189  0.19516464  0.36190506  1
  O2-  O566  1  0.69834490  0.11506005  0.65690021  1
  O2-  O567  1  0.82970561  0.41796704  0.02530328  1
  O2-  O568  1  0.82320638  0.42253913  0.35730430  1
  O2-  O569  1  0.86917388  0.38961274  0.65467216  1
  O2-  O570  1  0.84782215  0.66721251  0.00816067  1
  O2-  O571  1  0.83893677  0.68635152  0.34853077  1
  O2-  O572  1  0.83448705  0.65813682  0.68198333  1
  O2-  O573  1  0.74572207  0.80028633  0.04868417  1
  O2-  O574  1  0.83898575  0.91504471  0.36724500  1
  O2-  O575  1  0.78978225  0.94382007  0.68497232  1
