# generated using pymatgen
data_H2O
_symmetry_space_group_name_H-M   'P 1'
_cell_length_a   18.00050012
_cell_length_b   17.99894523
_cell_length_c   22.01774223
_cell_angle_alpha   89.99756757
_cell_angle_beta   90.00917846
_cell_angle_gamma   119.99649978
_symmetry_Int_Tables_number   1
_chemical_formula_structural   H2O
_chemical_formula_sum   'H384 O192'
_cell_volume   6178.03483056
_cell_formula_units_Z   192
loop_
 _symmetry_equiv_pos_site_id
 _symmetry_equiv_pos_as_xyz
  1  'x, y, z'
loop_
 _atom_type_symbol
 _atom_type_oxidation_number
  H+  1.0
  O2-  -2.0
loop_
 _atom_site_type_symbol
 _atom_site_label
 _atom_site_symmetry_multiplicity
 _atom_site_fract_x
 _atom_site_fract_y
 _atom_site_fract_z
 _atom_site_occupancy
  H+  H0  1  0.90517807  0.36391351  0.18065776  1
  H+  H1  1  0.72537496  0.09969263  0.32340700  1
  H+  H2  1  0.41513820  0.20824637  0.77541645  1
  H+  H3  1  0.31949129  0.77837499  0.22129719  1
  H+  H4  1  0.83450842  0.66658374  0.06244640  1
  H+  H5  1  0.51150439  0.12956049  0.49536596  1
  H+  H6  1  0.62994666  0.76438255  0.67440574  1
  H+  H7  1  0.21100797  0.87336412  0.50891201  1
  H+  H8  1  0.42751673  0.58644176  0.61719502  1
  H+  H9  1  0.21798356  0.11597235  0.99499727  1
  H+  H10  1  0.33649708  0.85669132  0.64382727  1
  H+  H11  1  0.12745053  0.75569724  0.32074608  1
  H+  H12  1  0.47539805  0.36248774  0.50073493  1
  H+  H13  1  0.39210537  1.02761323  -0.00038802  1
  H+  H14  1  0.90147326  0.64859517  0.98156557  1
  H+  H15  1  0.02578408  0.14615158  0.33008456  1
  H+  H16  1  0.47815559  0.11765522  0.33911500  1
  H+  H17  1  0.11519712  0.72280342  0.82366616  1
  H+  H18  1  0.39751185  0.37766240  0.32704064  1
  H+  H19  1  0.64310397  0.60793241  0.50147253  1
  H+  H20  1  0.10119484  0.38653383  -0.00128551  1
  H+  H21  1  0.22212882  0.35046955  0.16494283  1
  H+  H22  1  0.61567055  0.47515892  1.00040864  1
  H+  H23  1  0.61554397  0.38488983  0.33323970  1
  H+  H24  1  0.10669037  0.87810345  0.66250974  1
  H+  H25  1  0.03858820  0.14057127  0.83173934  1
  H+  H26  1  0.53168465  0.63488136  0.49869986  1
  H+  H27  1  0.63220965  0.98815507  0.15015648  1
  H+  H28  1  0.63554232  0.74842877  0.35314716  1
  H+  H29  1  0.88613823  0.11147551  0.50957839  1
  H+  H30  1  0.89371934  0.77016951  0.33055720  1
  H+  H31  1  0.48245099  0.10711623  0.84384897  1
  H+  H32  1  0.36652376  0.23033492  0.16169461  1
  H+  H33  1  0.91250748  0.56840546  0.97284520  1
  H+  H34  1  0.59076691  0.90262799  0.43473552  1
  H+  H35  1  0.53151774  0.88114339  0.49448411  1
  H+  H36  1  0.76633405  0.63910357  0.34389488  1
  H+  H37  1  0.47378156  0.41963223  0.19442567  1
  H+  H38  1  0.62881576  0.09920099  0.50914336  1
  H+  H39  1  0.75834698  0.63338671  0.67105085  1
  H+  H40  1  0.81898367  0.15722759  0.39827963  1
  H+  H41  1  0.40147175  0.62112674  0.51628396  1
  H+  H42  1  0.37170185  0.73452995  0.50251833  1
  H+  H43  1  0.87087379  0.98285080  0.17819217  1
  H+  H44  1  0.48410244  0.61758997  0.67711372  1
  H+  H45  1  0.33439635  0.90225053  0.34509028  1
  H+  H46  1  0.64097748  0.27091284  0.31771890  1
  H+  H47  1  0.72014145  0.61104079  0.83871299  1
  H+  H48  1  0.34763060  0.23433963  0.50141459  1
  H+  H49  1  0.22665730  0.10659202  0.17436996  1
  H+  H50  1  0.39714315  0.62333165  0.99623081  1
  H+  H51  1  0.66394083  0.82326500  0.57889854  1
  H+  H52  1  0.63793604  0.77599620  0.84087446  1
  H+  H53  1  0.13258522  0.26247771  0.17372738  1
  H+  H54  1  0.66795140  0.12411556  0.16581254  1
  H+  H55  1  0.22683429  0.60163921  0.16539356  1
  H+  H56  1  0.74489195  0.36627001  0.17422084  1
  H+  H57  1  0.38982370  0.28410877  0.33200051  1
  H+  H58  1  0.83780667  0.40802261  0.38976179  1
  H+  H59  1  0.77338572  0.88957429  0.83215613  1
  H+  H60  1  0.37052304  0.89367452  1.00481933  1
  H+  H61  1  0.67109645  0.84453117  0.24623824  1
  H+  H62  1  0.65327230  0.61871881  0.32888430  1
  H+  H63  1  0.28366902  0.64386043  0.50044377  1
  H+  H64  1  0.91143746  0.32620872  0.89905289  1
  H+  H65  1  0.25384259  0.35105376  0.66529084  1
  H+  H66  1  0.63380139  0.61600474  0.84044081  1
  H+  H67  1  0.14064167  0.87163401  -0.00643022  1
  H+  H68  1  0.40074905  0.08253021  0.24959891  1
  H+  H69  1  0.77328327  0.88513555  0.18380039  1
  H+  H70  1  0.65031255  0.11080424  0.66114705  1
  H+  H71  1  0.12177933  0.62824466  0.32965997  1
  H+  H72  1  0.86785552  0.76451297  0.83890164  1
  H+  H73  1  0.36397393  0.62847325  0.15302109  1
  H+  H74  1  0.50146668  0.83518670  0.65683855  1
  H+  H75  1  0.85919453  0.88186606  0.50198348  1
  H+  H76  1  0.33252199  0.66398624  0.05786185  1
  H+  H77  1  0.76523225  0.12667684  0.49163904  1
  H+  H78  1  0.36342164  0.22688055  0.00513795  1
  H+  H79  1  0.03840774  0.42787861  0.48576084  1
  H+  H80  1  0.89232678  0.60067422  0.33051579  1
  H+  H81  1  -0.03310111  0.34948352  -0.01622981  1
  H+  H82  1  0.62647160  0.37834875  0.15215999  1
  H+  H83  1  0.62107529  0.72195343  0.50452313  1
  H+  H84  1  0.28007606  0.39788948  0.00049716  1
  H+  H85  1  0.36160799  0.88219206  0.83325470  1
  H+  H86  1  0.60691829  0.23413500  -0.00835707  1
  H+  H87  1  0.36559872  0.47380793  0.80955917  1
  H+  H88  1  -0.02140644  0.86311751  0.16675290  1
  H+  H89  1  0.10432626  0.14353121  0.99111497  1
  H+  H90  1  0.06042751  0.46162508  0.34607799  1
  H+  H91  1  0.53874538  0.65543743  0.15483850  1
  H+  H92  1  0.67391134  0.32833947  0.22736085  1
  H+  H93  1  0.61553252  0.46914856  0.48778951  1
  H+  H94  1  -0.02600715  0.86269881  -0.01235146  1
  H+  H95  1  0.22374639  0.85548277  0.84559681  1
  H+  H96  1  0.64792638  0.24422291  0.14764732  1
  H+  H97  1  0.14097955  1.01382834  0.83866369  1
  H+  H98  1  0.42553086  0.34538884  0.24128699  1
  H+  H99  1  0.09137560  0.46824824  -0.00078885  1
  H+  H100  1  0.88749717  0.22527458  0.16727891  1
  H+  H101  1  0.13455662  0.76494764  0.16392781  1
  H+  H102  1  0.62260311  0.35506237  0.65744461  1
  H+  H103  1  0.70866258  0.89645434  0.34957054  1
  H+  H104  1  0.24378314  0.89487348  0.33908955  1
  H+  H105  1  -0.02061826  0.61195930  0.17074614  1
  H+  H106  1  0.72150733  0.60783824  0.15613794  1
  H+  H107  1  0.86468048  0.63436058  0.15723806  1
  H+  H108  1  0.85606152  0.59488185  0.68287419  1
  H+  H109  1  0.35510241  0.71292808  0.15465028  1
  H+  H110  1  0.03034483  0.88743476  0.35477817  1
  H+  H111  1  0.02908188  0.62251631  0.33258171  1
  H+  H112  1  0.40325094  0.86268458  0.34863670  1
  H+  H113  1  0.77968961  0.62500241  0.50026833  1
  H+  H114  1  0.14741846  0.52289415  0.65702176  1
  H+  H115  1  0.95332016  0.11628237  0.97970561  1
  H+  H116  1  0.35538352  0.71902026  0.82742220  1
  H+  H117  1  0.86852585  0.86280917  0.84145439  1
  H+  H118  1  0.11803883  0.12261793  0.17351804  1
  H+  H119  1  0.17869428  0.35355545  0.92841446  1
  H+  H120  1  0.65258106  0.78049079  0.18846595  1
  H+  H121  1  0.87721693  0.37657687  0.47941572  1
  H+  H122  1  0.06264712  0.12243676  0.68529834  1
  H+  H123  1  0.34434090  0.14456750  0.50031593  1
  H+  H124  1  0.86522564  0.89733580  0.99919417  1
  H+  H125  1  0.86386130  0.72285939  0.15635580  1
  H+  H126  1  0.35319769  -0.02861723  0.16517709  1
  H+  H127  1  0.82281666  0.66982049  0.76622801  1
  H+  H128  1  0.60518287  0.47833233  0.82134654  1
  H+  H129  1  0.87759767  1.02140020  0.33966833  1
  H+  H130  1  0.71036488  0.34382694  0.99004883  1
  H+  H131  1  0.89294030  0.02965270  0.52045670  1
  H+  H132  1  0.88947978  0.37097773  0.83798139  1
  H+  H133  1  0.38182616  0.03938057  0.34311323  1
  H+  H134  1  0.52793953  0.38782911  0.33617605  1
  H+  H135  1  0.62539279  0.12328357  0.33686090  1
  H+  H136  1  0.77102305  0.88214006  0.50920063  1
  H+  H137  1  0.51555522  0.37799375  0.66759255  1
  H+  H138  1  0.63986573  0.85418459  0.51650918  1
  H+  H139  1  0.37061475  0.60959895  0.84060983  1
  H+  H140  1  0.26657080  0.88294712  0.15516495  1
  H+  H141  1  0.14133470  0.61801550  0.99056280  1
  H+  H142  1  -0.00338838  0.62923783  0.67885864  1
  H+  H143  1  0.39483325  0.78041861  0.99365240  1
  H+  H144  1  0.08985337  0.81538526  0.30320225  1
  H+  H145  1  0.14469013  0.28974913  0.98294817  1
  H+  H146  1  0.90147121  0.11686174  0.82822310  1
  H+  H147  1  0.11384231  0.97202455  0.15743019  1
  H+  H148  1  0.24115973  0.61760221  0.33099763  1
  H+  H149  1  0.67470842  0.04278691  0.99235081  1
  H+  H150  1  0.22102652  0.10868010  0.62617070  1
  H+  H151  1  0.46813527  0.84923188  0.83735592  1
  H+  H152  1  -0.02000251  0.10180595  0.18898458  1
  H+  H153  1  0.53393125  0.36957887  0.15406256  1
  H+  H154  1  0.37076507  0.02974997  0.50701413  1
  H+  H155  1  0.02994008  0.14927694  0.50053887  1
  H+  H156  1  0.27884702  0.63006968  0.67507455  1
  H+  H157  1  0.15588727  0.53525213  0.49764078  1
  H+  H158  1  0.45986526  0.09330811  0.19593181  1
  H+  H159  1  0.62279012  0.26176885  0.51098320  1
  H+  H160  1  0.88678070  0.50979633  0.32417594  1
  H+  H161  1  0.72314006  0.85317930  0.66766873  1
  H+  H162  1  0.38909326  0.36579629  0.99229606  1
  H+  H163  1  0.13414843  0.52001285  0.83703191  1
  H+  H164  1  0.35143288  0.12585297  0.65796768  1
  H+  H165  1  0.17286995  0.33291378  0.39551131  1
  H+  H166  1  0.64015715  1.00732502  0.31845930  1
  H+  H167  1  0.61983833  0.64056359  0.15543884  1
  H+  H168  1  0.38169158  0.49761538  0.33880053  1
  H+  H169  1  0.87949782  0.25983318  0.32770814  1
  H+  H170  1  0.12099867  0.88591174  0.51329900  1
  H+  H171  1  0.36188114  0.38467535  0.82089384  1
  H+  H172  1  0.12364319  0.46959111  0.16963687  1
  H+  H173  1  0.36626546  0.14240386  0.16585198  1
  H+  H174  1  0.51270737  0.13576377  0.00295767  1
  H+  H175  1  0.79488854  0.85974825  0.36132008  1
  H+  H176  1  0.86357040  0.64331007  0.82081513  1
  H+  H177  1  0.96927018  0.85527554  0.66306503  1
  H+  H178  1  0.11181933  0.63178536  0.82051475  1
  H+  H179  1  0.88297795  0.77444777  -0.00787083  1
  H+  H180  1  0.87548608  0.25666730  0.97808326  1
  H+  H181  1  0.64263883  0.78000288  -0.00528756  1
  H+  H182  1  0.11614836  0.88323634  0.82329642  1
  H+  H183  1  0.12830339  0.74049069  0.00843186  1
  H+  H184  1  0.37353024  0.72806475  0.35091077  1
  H+  H185  1  0.64165066  0.61300264  0.99398219  1
  H+  H186  1  0.58359952  0.67561082  0.76866578  1
  H+  H187  1  0.85816775  0.47187524  0.73793957  1
  H+  H188  1  0.16421039  0.07156076  0.23462871  1
  H+  H189  1  0.42568144  0.89684318  0.32441903  1
  H+  H190  1  0.85308510  0.12846826  0.34061149  1
  H+  H191  1  0.91279503  0.86448453  0.31937774  1
  H+  H192  1  0.87291513  0.02013212  0.98485678  1
  H+  H193  1  0.56532346  0.15266690  0.14221326  1
  H+  H194  1  0.87920141  0.48811872  0.82718726  1
  H+  H195  1  0.38534971  0.27384801  0.84055746  1
  H+  H196  1  0.86256472  0.37700241  0.32944725  1
  H+  H197  1  -0.02607401  0.31440158  0.50891203  1
  H+  H198  1  0.62480763  0.97095876  0.67468738  1
  H+  H199  1  0.36694873  0.39542456  0.49465319  1
  H+  H200  1  0.14383159  0.38672385  0.50397814  1
  H+  H201  1  0.36550773  0.97286005  0.84455859  1
  H+  H202  1  0.11360419  0.63040826  0.15522032  1
  H+  H203  1  0.62340229  0.50635132  0.65456739  1
  H+  H204  1  0.51397418  0.39161103  0.82209919  1
  H+  H205  1  0.62947089  0.36039356  0.98630585  1
  H+  H206  1  0.10866413  0.96759119  0.65509195  1
  H+  H207  1  0.20420356  0.82616169  0.64749442  1
  H+  H208  1  0.44915107  0.55968487  0.20962923  1
  H+  H209  1  0.88071181  0.46643839  0.48008774  1
  H+  H210  1  0.52996563  0.64470405  0.83497186  1
  H+  H211  1  0.89703636  0.60397372  0.50724390  1
  H+  H212  1  0.98330471  0.62237538  0.82442939  1
  H+  H213  1  0.70483990  0.10843608  0.90046141  1
  H+  H214  1  0.10728687  0.26168251  0.65111517  1
  H+  H215  1  0.85105181  0.72094147  0.67262175  1
  H+  H216  1  0.38877619  0.11722264  0.99938507  1
  H+  H217  1  0.11496745  0.23348619  0.32932993  1
  H+  H218  1  0.39681840  0.53077741  0.51354197  1
  H+  H219  1  0.13072084  0.11694152  0.30994834  1
  H+  H220  1  0.83724860  0.34042410  0.01319950  1
  H+  H221  1  0.37762869  0.35001740  0.65419764  1
  H+  H222  1  0.62192656  0.89945822  -0.00218190  1
  H+  H223  1  0.38839217  0.26787805  0.64770064  1
  H+  H224  1  0.54459484  0.90036596  0.15023582  1
  H+  H225  1  0.85449952  0.21537423  0.49009898  1
  H+  H226  1  0.79237639  0.13405360  0.67242988  1
  H+  H227  1  0.04170281  0.63738713  0.48617094  1
  H+  H228  1  0.62114724  0.14076710  0.82512943  1
  H+  H229  1  0.86740145  0.97692927  0.82890530  1
  H+  H230  1  0.47700026  0.36316982  0.99058915  1
  H+  H231  1  0.37236725  0.48455362  1.00626317  1
  H+  H232  1  0.76744400  0.27425614  0.05510207  1
  H+  H233  1  0.82306789  0.11279940  -0.01129261  1
  H+  H234  1  0.42071806  0.33944000  0.56267526  1
  H+  H235  1  0.88018104  0.46214949  0.97334465  1
  H+  H236  1  0.37033899  0.89332530  0.66235509  1
  H+  H237  1  0.77601944  0.89490460  0.00276943  1
  H+  H238  1  0.53000291  0.13400661  0.67354579  1
  H+  H239  1  0.27592504  0.63810015  0.99759336  1
  H+  H240  1  0.16372870  0.08163954  0.93418098  1
  H+  H241  1  0.21593780  0.11946708  0.53273724  1
  H+  H242  1  0.85429778  0.87942356  0.67578422  1
  H+  H243  1  0.63786059  0.86533731  0.84038823  1
  H+  H244  1  0.22170726  0.60973022  0.83710661  1
  H+  H245  1  0.23002192  0.10182012  0.84226287  1
  H+  H246  1  0.86928484  0.88720218  0.17242345  1
  H+  H247  1  0.03746057  0.65942731  0.00057268  1
  H+  H248  1  0.79845746  0.13827018  0.16297896  1
  H+  H249  1  0.11782893  0.38612754  0.82463092  1
  H+  H250  1  0.29115553  0.41061264  0.34658257  1
  H+  H251  1  0.97903660  0.36384830  0.65143825  1
  H+  H252  1  0.68509726  0.04602772  0.84555619  1
  H+  H253  1  0.87520108  0.47600727  0.16207523  1
  H+  H254  1  0.12645082  0.90994858  0.36622627  1
  H+  H255  1  0.63474689  0.51855684  0.15182061  1
  H+  H256  1  0.35650790  0.37542970  0.15357375  1
  H+  H257  1  0.66559723  0.56996177  0.55900831  1
  H+  H258  1  0.36586803  0.85112107  0.17408837  1
  H+  H259  1  0.10522672  0.74825307  0.65477502  1
  H+  H260  1  0.37197761  0.16059977  0.35496510  1
  H+  H261  1  0.62970576  0.26636668  0.65841246  1
  H+  H262  1  0.61281381  0.35201636  0.82780733  1
  H+  H263  1  0.54552402  0.85985033  0.32632409  1
  H+  H264  1  0.62476461  0.35362021  0.50770356  1
  H+  H265  1  0.46520895  0.73136342  0.28278809  1
  H+  H266  1  0.57346270  0.96524246  0.81513071  1
  H+  H267  1  0.23714363  0.94585781  0.71790417  1
  H+  H268  1  0.10847463  0.38222133  0.66883540  1
  H+  H269  1  0.40857384  0.74578753  0.65653451  1
  H+  H270  1  0.79617838  0.15792682  0.82042985  1
  H+  H271  1  0.89768114  0.47739004  0.00510771  1
  H+  H272  1  0.23228315  0.87515012  0.99327113  1
  H+  H273  1  0.15500295  0.62342718  0.50192422  1
  H+  H274  1  0.89405636  0.27315539  0.65279104  1
  H+  H275  1  0.38036353  0.62135412  0.33288733  1
  H+  H276  1  0.16438200  0.58303974  0.93092677  1
  H+  H277  1  0.37197773  0.50085839  0.16624106  1
  H+  H278  1  0.38070815  0.13727921  0.82467143  1
  H+  H279  1  0.10634084  0.97842029  0.00302048  1
  H+  H280  1  0.22925358  0.36660130  0.83368249  1
  H+  H281  1  0.36942172  1.02903104  0.68061650  1
  H+  H282  1  0.88794147  0.76593885  0.51222805  1
  H+  H283  1  0.72996070  0.35939853  0.31949704  1
  H+  H284  1  0.12774488  0.02889635  0.32655233  1
  H+  H285  1  0.10896307  0.98955449  0.51786911  1
  H+  H286  1  0.63614647  0.01371885  0.50562388  1
  H+  H287  1  0.77346175  0.63634370  1.00293564  1
  H+  H288  1  0.63402193  0.66191369  0.70588344  1
  H+  H289  1  0.07248324  0.66626924  0.72732494  1
  H+  H290  1  0.14356201  0.27600213  0.84303502  1
  H+  H291  1  0.38498976  0.58639277  0.26733621  1
  H+  H292  1  0.92008164  0.58119821  0.23032614  1
  H+  H293  1  0.16408606  0.52198580  0.32207000  1
  H+  H294  1  0.90813453  0.82552818  0.60510291  1
  H+  H295  1  0.06698453  0.18490518  0.03780151  1
  H+  H296  1  0.07240090  0.13200053  0.11666227  1
  H+  H297  1  0.12641490  0.14060775  0.83539462  1
  H+  H298  1  0.33883029  0.67581875  0.41474877  1
  H+  H299  1  0.90204932  0.82595859  0.90383294  1
  H+  H300  1  0.89528998  0.11119809  0.18079351  1
  H+  H301  1  0.59763651  0.17608524  0.05402175  1
  H+  H302  1  0.64805295  0.32157144  0.58603369  1
  H+  H303  1  0.83846113  0.39962507  0.11105372  1
  H+  H304  1  0.57532911  0.41144759  0.72790621  1
  H+  H305  1  0.30996588  0.14771038  0.71222593  1
  H+  H306  1  0.09921685  0.66474389  0.42765572  1
  H+  H307  1  0.82736487  0.91220204  0.73346048  1
  H+  H308  1  0.02905899  0.37782963  0.17462267  1
  H+  H309  1  0.12390672  0.37010266  0.17057127  1
  H+  H310  1  0.62588650  0.88032057  0.67778541  1
  H+  H311  1  0.43337420  0.59721649  0.94008221  1
  H+  H312  1  0.10911200  0.88087383  0.15288724  1
  H+  H313  1  0.92587517  0.82753583  0.22827413  1
  H+  H314  1  0.16189631  0.82406243  0.22310366  1
  H+  H315  1  0.58178064  0.91082486  0.76138562  1
  H+  H316  1  0.44284131  0.81996717  0.57596861  1
  H+  H317  1  0.42417887  0.01839621  0.63048919  1
  H+  H318  1  0.08578398  0.66443162  0.09633193  1
  H+  H319  1  0.31864944  0.38927192  0.72148859  1
  H+  H320  1  0.36776895  0.62708888  0.68366113  1
  H+  H321  1  0.15438217  0.33025447  0.59701840  1
  H+  H322  1  0.97297902  0.34777715  0.33274256  1
  H+  H323  1  0.08985870  0.91771218  0.76468886  1
  H+  H324  1  0.18391984  0.58429708  0.59963889  1
  H+  H325  1  0.33056307  0.40759021  0.09206534  1
  H+  H326  1  0.92897013  0.60959870  0.88413205  1
  H+  H327  1  0.41557253  0.82851901  0.89972519  1
  H+  H328  1  0.15953720  0.82590259  0.90076065  1
  H+  H329  1  0.67468443  0.07720708  0.60210445  1
  H+  H330  1  0.32702931  0.18595287  0.40663571  1
  H+  H331  1  0.81697129  0.91691840  0.42120793  1
  H+  H332  1  0.57466176  0.15280971  0.43853679  1
  H+  H333  1  0.97112251  0.86088405  0.51538001  1
  H+  H334  1  0.34722492  0.43417934  0.43609157  1
  H+  H335  1  0.85673155  0.51937902  0.64610779  1
  H+  H336  1  0.42578917  0.08850209  0.90499311  1
  H+  H337  1  0.60250856  0.68007833  0.06696091  1
  H+  H338  1  0.48401693  0.87165775  0.99048459  1
  H+  H339  1  0.14377859  0.37850249  0.34906269  1
  H+  H340  1  0.60981497  0.58622673  0.64484852  1
  H+  H341  1  0.88837633  0.27088877  0.82828689  1
  H+  H342  1  0.08149495  0.42550282  0.41947571  1
  H+  H343  1  0.59601080  0.93517139  0.05478903  1
  H+  H344  1  0.43667529  0.89766342  0.54456045  1
  H+  H345  1  0.41196089  0.33367887  0.89963188  1
  H+  H346  1  0.30497260  0.92279180  0.43477840  1
  H+  H347  1  0.14590200  0.82885194  0.56907399  1
  H+  H348  1  0.64466099  0.52547654  0.32861316  1
  H+  H349  1  0.91063820  0.08164748  0.89215413  1
  H+  H350  1  0.84096323  0.65967523  0.44355139  1
  H+  H351  1  0.32967171  0.66002686  0.76627174  1
  H+  H352  1  0.11286814  0.23857866  0.49838362  1
  H+  H353  1  0.64508642  0.32324673  0.88576633  1
  H+  H354  1  0.78953965  0.71496198  0.38707863  1
  H+  H355  1  0.67932601  0.08251608  0.22739130  1
  H+  H356  1  0.93814428  0.57106630  0.55703966  1
  H+  H357  1  0.53726930  0.64575659  0.01085217  1
  H+  H358  1  0.07769343  0.91623232  0.06073836  1
  H+  H359  1  0.08225698  0.41588525  0.72734942  1
  H+  H360  1  0.34201611  0.52763447  0.88068775  1
  H+  H361  1  0.67115087  0.20303896  0.37864926  1
  H+  H362  1  0.08221122  0.93685416  0.45257328  1
  H+  H363  1  0.23216485  0.38455888  0.50780328  1
  H+  H364  1  0.62461582  0.68990177  0.41012402  1
  H+  H365  1  0.85420384  0.18587807  0.75820483  1
  H+  H366  1  0.66916401  0.83692677  0.93407162  1
  H+  H367  1  0.33713725  0.88592307  0.48775998  1
  H+  H368  1  0.58948055  0.16581370  0.73193140  1
  H+  H369  1  0.90831187  0.07441881  0.27742416  1
  H+  H370  1  0.17691523  0.58051256  0.22868057  1
  H+  H371  1  0.92110048  0.32097031  0.56587434  1
  H+  H372  1  0.88913059  0.14680770  0.67908967  1
  H+  H373  1  0.44302159  0.79794220  0.25072523  1
  H+  H374  1  0.58528907  0.40800834  0.42949748  1
  H+  H375  1  0.30882741  0.94878543  0.76235361  1
  H+  H376  1  0.60329551  0.22010443  0.82128627  1
  H+  H377  1  0.02938449  0.38680626  0.82478071  1
  H+  H378  1  0.40542253  0.08966172  0.56503996  1
  H+  H379  1  0.58724255  0.41033435  0.05760946  1
  H+  H380  1  0.66545428  0.58104021  0.93264232  1
  H+  H381  1  0.92837449  0.32805653  0.24072533  1
  H+  H382  1  0.33908995  0.92151618  0.06450050  1
  H+  H383  1  0.33508002  0.16917562  0.06520371  1
  O2-  O384  1  0.08379763  0.15072659  0.15877165  1
  O2-  O385  1  0.08509716  0.18220923  0.47852925  1
  O2-  O386  1  0.10080575  0.17602103  0.82393985  1
  O2-  O387  1  0.09159927  0.40638839  0.15893982  1
  O2-  O388  1  0.09198125  0.43587130  0.46868213  1
  O2-  O389  1  0.08860807  0.41779767  0.80931627  1
  O2-  O390  1  0.08432262  0.66220042  0.14222316  1
  O2-  O391  1  0.10205613  0.66922503  0.47235826  1
  O2-  O392  1  0.08400814  0.66439910  0.80472748  1
  O2-  O393  1  0.07927452  0.91230553  0.14015850  1
  O2-  O394  1  0.08021924  0.92966765  0.49780608  1
  O2-  O395  1  0.09385589  0.92093213  0.80933197  1
  O2-  O396  1  0.33791861  0.17141028  0.14614346  1
  O2-  O397  1  0.30945298  0.17167215  0.49149632  1
  O2-  O398  1  0.36426638  0.17437065  0.80032173  1
  O2-  O399  1  0.32480331  0.40336191  0.13786803  1
  O2-  O400  1  0.34035572  0.42985473  0.48095759  1
  O2-  O401  1  0.33115494  0.41184073  0.80136511  1
  O2-  O402  1  0.33065877  0.65430751  0.13716324  1
  O2-  O403  1  0.34622176  0.67589371  0.48618147  1
  O2-  O404  1  0.32590375  0.65836769  0.81297487  1
  O2-  O405  1  0.32964276  0.91494396  0.14488280  1
  O2-  O406  1  0.31008906  0.92073648  0.48022573  1
  O2-  O407  1  0.33037356  0.91454140  0.82644358  1
  O2-  O408  1  0.62331757  0.18562593  0.12615700  1
  O2-  O409  1  0.57299237  0.15560243  0.48330632  1
  O2-  O410  1  0.58073124  0.15756837  0.80841097  1
  O2-  O411  1  0.59079105  0.40166522  0.13475117  1
  O2-  O412  1  0.58343826  0.40745915  0.47508231  1
  O2-  O413  1  0.57269873  0.41889595  0.80412725  1
  O2-  O414  1  0.60032512  0.68413348  0.14689334  1
  O2-  O415  1  0.59312357  0.66408179  0.48454751  1
  O2-  O416  1  0.58859921  0.67545375  0.81949042  1
  O2-  O417  1  0.59927000  0.93143179  0.12935510  1
  O2-  O418  1  0.59210761  0.90940271  0.47929429  1
  O2-  O419  1  0.57392448  0.91206584  0.80795848  1
  O2-  O420  1  0.86033705  0.16523117  0.15269370  1
  O2-  O421  1  0.82292363  0.15646538  0.47217519  1
  O2-  O422  1  0.85656401  0.19125146  0.80509900  1
  O2-  O423  1  0.84702214  0.41241254  0.15516348  1
  O2-  O424  1  0.85172603  0.40893034  0.46125233  1
  O2-  O425  1  0.84867020  0.42401893  0.81984443  1
  O2-  O426  1  0.83468043  0.66350567  0.13990684  1
  O2-  O427  1  0.84224572  0.65573988  0.48848304  1
  O2-  O428  1  0.82833674  0.67111293  0.81166723  1
  O2-  O429  1  0.83643619  0.91850988  0.16471700  1
  O2-  O430  1  0.82944122  0.91359264  0.48976994  1
  O2-  O431  1  0.83443628  0.91382022  0.81830489  1
  O2-  O432  1  0.16607933  0.07117745  0.18712714  1
  O2-  O433  1  0.15579410  0.07908524  0.54816311  1
  O2-  O434  1  0.17171080  0.07354284  0.85821978  1
  O2-  O435  1  0.16386951  0.32481507  0.18350758  1
  O2-  O436  1  0.17153394  0.35579694  0.52177673  1
  O2-  O437  1  0.17161771  0.33959125  0.85334088  1
  O2-  O438  1  0.16813156  0.57347559  0.18378939  1
  O2-  O439  1  0.18602935  0.59341139  0.51707997  1
  O2-  O440  1  0.16109824  0.58048544  0.85244787  1
  O2-  O441  1  0.16423108  0.82660371  0.17820363  1
  O2-  O442  1  0.15016571  0.84672510  0.52380924  1
  O2-  O443  1  0.16124801  0.82328631  0.85555022  1
  O2-  O444  1  0.40034730  0.07642694  0.20410886  1
  O2-  O445  1  0.40539414  0.09053520  0.52019238  1
  O2-  O446  1  0.42239358  0.08194589  0.86005600  1
  O2-  O447  1  0.43470550  0.35759604  0.19502972  1
  O2-  O448  1  0.41603734  0.33811028  0.51706554  1
  O2-  O449  1  0.41120107  0.33421784  0.85405010  1
  O2-  O450  1  0.40467435  0.56047481  0.18466608  1
  O2-  O451  1  0.43160151  0.59050120  0.52973848  1
  O2-  O452  1  0.39294543  0.57292545  0.86069758  1
  O2-  O453  1  0.37037513  0.80388665  0.19545080  1
  O2-  O454  1  0.43586504  0.84515735  0.53256084  1
  O2-  O455  1  0.40920668  0.82371862  0.85442488  1
  O2-  O456  1  0.68940499  0.08755103  0.18254447  1
  O2-  O457  1  0.66299783  0.07303151  0.52291323  1
  O2-  O458  1  0.69803335  0.10439173  0.85460922  1
  O2-  O459  1  0.68099305  0.33172545  0.18178955  1
  O2-  O460  1  0.64914274  0.32046206  0.52881246  1
  O2-  O461  1  0.63458917  0.31390860  0.84185365  1
  O2-  O462  1  0.65867417  0.57938632  0.16270475  1
  O2-  O463  1  0.67206270  0.57459293  0.51397795  1
  O2-  O464  1  0.66003735  0.58048104  0.85400021  1
  O2-  O465  1  0.68796484  0.83991454  0.20447473  1
  O2-  O466  1  0.66925471  0.82425536  0.53295915  1
  O2-  O467  1  0.67020649  0.83807391  0.85540761  1
  O2-  O468  1  0.91787823  0.07337795  0.19966056  1
  O2-  O469  1  0.92008853  0.09068056  0.53131134  1
  O2-  O470  1  0.92168066  0.08062254  0.84740371  1
  O2-  O471  1  0.93594337  0.33386594  0.19483246  1
  O2-  O472  1  0.92151451  0.31555988  0.51824858  1
  O2-  O473  1  0.91632063  0.33399322  0.85158182  1
  O2-  O474  1  0.91849898  0.58115009  0.18511517  1
  O2-  O475  1  0.93180209  0.57492490  0.51340527  1
  O2-  O476  1  0.92210218  0.59521130  0.83995739  1
  O2-  O477  1  0.91855411  0.83235499  0.18416760  1
  O2-  O478  1  0.90980686  0.82560052  0.52717035  1
  O2-  O479  1  0.89532465  0.82505768  0.85711892  1
  O2-  O480  1  0.15731783  0.08012132  0.30103259  1
  O2-  O481  1  0.15980469  0.07088597  0.61456195  1
  O2-  O482  1  0.15827801  0.08714141  0.97928012  1
  O2-  O483  1  0.18076993  0.35180039  0.35319003  1
  O2-  O484  1  0.15007996  0.32218270  0.64213931  1
  O2-  O485  1  0.17800530  0.35219811  0.97430607  1
  O2-  O486  1  0.18618886  0.58173956  0.30788004  1
  O2-  O487  1  0.18528169  0.58356498  0.64450293  1
  O2-  O488  1  0.16831950  0.58447807  0.97642166  1
  O2-  O489  1  0.14454571  0.81654515  0.30672919  1
  O2-  O490  1  0.14597318  0.81167904  0.63613169  1
  O2-  O491  1  0.17136372  0.84104445  0.98004987  1
  O2-  O492  1  0.41924735  0.09691264  0.32519217  1
  O2-  O493  1  0.41485531  0.06302078  0.64799710  1
  O2-  O494  1  0.42317776  0.08972640  0.98578649  1
  O2-  O495  1  0.42299855  0.34297203  0.31151170  1
  O2-  O496  1  0.41936272  0.32989432  0.63835614  1
  O2-  O497  1  0.41553249  0.33173409  0.97741120  1
  O2-  O498  1  0.41608131  0.60670563  0.30594770  1
  O2-  O499  1  0.42391772  0.58624062  0.66188320  1
  O2-  O500  1  0.43115757  0.59472128  0.98506439  1
  O2-  O501  1  0.46469305  0.78540078  0.28824712  1
  O2-  O502  1  0.45599110  0.79068215  0.63065600  1
  O2-  O503  1  0.42207513  0.84064338  0.97821167  1
  O2-  O504  1  0.66492271  0.06808412  0.30552543  1
  O2-  O505  1  0.67864849  0.07870519  0.64740017  1
  O2-  O506  1  0.70806738  0.10287119  0.97475706  1
  O2-  O507  1  0.66944442  0.33063968  0.30286377  1
  O2-  O508  1  0.65232532  0.32487532  0.63903082  1
  O2-  O509  1  0.65366103  0.32352907  0.97073580  1
  O2-  O510  1  0.68011575  0.58564059  0.31418060  1
  O2-  O511  1  0.65125260  0.56685488  0.63768099  1
  O2-  O512  1  0.66865205  0.57979773  0.97814545  1
  O2-  O513  1  0.65229360  0.86187670  0.32777539  1
  O2-  O514  1  0.66100223  0.82376965  0.65340876  1
  O2-  O515  1  0.66933951  0.84017539  0.97938346  1
  O2-  O516  1  0.90625180  0.07988169  0.32250123  1
  O2-  O517  1  0.95365822  0.10901340  0.67030393  1
  O2-  O518  1  0.89310926  0.08025810  0.96679755  1
  O2-  O519  1  0.91388973  0.32070431  0.31303466  1
  O2-  O520  1  0.92055493  0.33038315  0.63300487  1
  O2-  O521  1  0.90567911  0.31797270  0.96585413  1
  O2-  O522  1  0.92085066  0.57267995  0.31147044  1
  O2-  O523  1  0.88250807  0.55695784  0.68096211  1
  O2-  O524  1  0.93967513  0.62929363  0.96162631  1
  O2-  O525  1  0.93730479  0.82753991  0.31210380  1
  O2-  O526  1  0.90798037  0.82286284  0.65051280  1
  O2-  O527  1  0.91310739  0.83287834  0.97292886  1
  O2-  O528  1  0.07361868  0.17730226  -0.00518508  1
  O2-  O529  1  0.08462887  0.17438620  0.31373873  1
  O2-  O530  1  0.03791640  0.16019255  0.68862385  1
  O2-  O531  1  0.06033610  0.40630854  0.00921788  1
  O2-  O532  1  0.07163932  0.41565211  0.35680940  1
  O2-  O533  1  0.08079015  0.41593855  0.68229954  1
  O2-  O534  1  0.09371168  0.67846544  0.02066920  1
  O2-  O535  1  0.09114831  0.65853996  0.34341923  1
  O2-  O536  1  0.05928685  0.66727629  0.68332157  1
  O2-  O537  1  0.07828294  0.91675674  0.01534242  1
  O2-  O538  1  0.08508591  0.92825698  0.37576498  1
  O2-  O539  1  0.08298367  0.91347753  0.67881395  1
  O2-  O540  1  0.33374873  0.16607241  0.02001768  1
  O2-  O541  1  0.34363655  0.19405822  0.36334647  1
  O2-  O542  1  0.31883341  0.15443579  0.66800071  1
  O2-  O543  1  0.33976407  0.42250371  0.01771987  1
  O2-  O544  1  0.35441398  0.43783963  0.35390175  1
  O2-  O545  1  0.31401295  0.37221022  0.67843124  1
  O2-  O546  1  0.33680993  0.66932175  0.01286004  1
  O2-  O547  1  0.33269413  0.67196850  0.36843442  1
  O2-  O548  1  0.33758765  0.66033432  0.69549601  1
  O2-  O549  1  0.34138617  0.92566140  0.01935513  1
  O2-  O550  1  0.30118038  0.92929422  0.35863398  1
  O2-  O551  1  0.29758016  0.97965705  0.72864637  1
  O2-  O552  1  0.58002246  0.17171400  0.00987004  1
  O2-  O553  1  0.61560754  0.16763442  0.35882917  1
  O2-  O554  1  0.59065310  0.16834177  0.68611222  1
  O2-  O555  1  0.58426561  0.41270435  0.01230935  1
  O2-  O556  1  0.58831189  0.41569152  0.35176987  1
  O2-  O557  1  0.57726248  0.40784250  0.68230783  1
  O2-  O558  1  0.59938351  0.67479817  0.02177647  1
  O2-  O559  1  0.65393485  0.70958137  0.36988799  1
  O2-  O560  1  0.58784565  0.67511478  0.70709747  1
  O2-  O561  1  0.59664692  0.93625762  0.00899709  1
  O2-  O562  1  0.60069061  0.90024965  0.34862007  1
  O2-  O563  1  0.59461207  0.91207411  0.69236227  1
  O2-  O564  1  0.79410192  0.14536226  0.00338307  1
  O2-  O565  1  0.81888671  0.15703818  0.35218518  1
  O2-  O566  1  0.85071184  0.17201139  0.68899117  1
  O2-  O567  1  0.79108730  0.33353519  0.04169143  1
  O2-  O568  1  0.83265597  0.40845267  0.34352467  1
  O2-  O569  1  0.84263972  0.41418261  0.75361332  1
  O2-  O570  1  0.83450757  0.67164427  0.01699158  1
  O2-  O571  1  0.81881253  0.68709770  0.36833972  1
  O2-  O572  1  0.81647291  0.66074670  0.68941740  1
  O2-  O573  1  0.83802566  0.93014807  0.01339541  1
  O2-  O574  1  0.80688119  0.91626403  0.37477639  1
  O2-  O575  1  0.81996252  0.90549712  0.68912329  1
