# generated using pymatgen
data_H2O
_symmetry_space_group_name_H-M   'P 1'
_cell_length_a   17.99549446
_cell_length_b   17.99827638
_cell_length_c   22.00205437
_cell_angle_alpha   89.94893324
_cell_angle_beta   90.04025255
_cell_angle_gamma   120.01206493
_symmetry_Int_Tables_number   1
_chemical_formula_structural   H2O
_chemical_formula_sum   'H384 O192'
_cell_volume   6170.71605168
_cell_formula_units_Z   192
loop_
 _symmetry_equiv_pos_site_id
 _symmetry_equiv_pos_as_xyz
  1  'x, y, z'
loop_
 _atom_type_symbol
 _atom_type_oxidation_number
  H+  1.0
  O2-  -2.0
loop_
 _atom_site_type_symbol
 _atom_site_label
 _atom_site_symmetry_multiplicity
 _atom_site_fract_x
 _atom_site_fract_y
 _atom_site_fract_z
 _atom_site_occupancy
  H+  H0  1  0.11556936  0.48939870  0.81833083  1
  H+  H1  1  0.36719336  0.23286582  0.16695976  1
  H+  H2  1  0.93678157  0.83769604  0.27673996  1
  H+  H3  1  0.60502093  0.46744736  0.82722863  1
  H+  H4  1  0.21209754  0.62133734  0.97675409  1
  H+  H5  1  0.88844198  1.02658311  0.84704373  1
  H+  H6  1  0.62321053  0.59221239  0.67342428  1
  H+  H7  1  0.53065582  0.91493734  0.33376661  1
  H+  H8  1  0.08235020  0.16555027  0.78508750  1
  H+  H9  1  0.64597141  0.13535020  0.99554137  1
  H+  H10  1  0.13397598  0.10128876  0.67054987  1
  H+  H11  1  0.11078559  0.13480850  0.17309697  1
  H+  H12  1  0.13223353  1.03166515  0.00291460  1
  H+  H13  1  0.26688820  0.38594872  0.48407466  1
  H+  H14  1  0.26235520  0.11235404  0.48539543  1
  H+  H15  1  -0.03722876  0.59197469  0.32610083  1
  H+  H16  1  0.12323811  0.35093108  0.48355014  1
  H+  H17  1  0.25183715  0.16285243  0.86611573  1
  H+  H18  1  0.87247992  0.38806486  0.99519113  1
  H+  H19  1  1.02352527  0.14623489  1.00539511  1
  H+  H20  1  0.09911140  0.86461467  0.68205981  1
  H+  H21  1  0.62917701  0.50543058  0.34233245  1
  H+  H22  1  0.87495061  0.98704512  0.68521919  1
  H+  H23  1  0.58988011  0.22823364  0.34073321  1
  H+  H24  1  0.89857571  1.03054431  0.00320189  1
  H+  H25  1  0.38515349  0.36826219  0.50665369  1
  H+  H26  1  0.21272170  0.61603190  0.17252488  1
  H+  H27  1  0.54303036  0.41887144  0.33369384  1
  H+  H28  1  0.34408157  0.65450077  0.00618985  1
  H+  H29  1  0.64517737  0.75424240  0.83029384  1
  H+  H30  1  0.85218892  0.45135727  0.15972968  1
  H+  H31  1  0.75637921  0.37631742  -0.01211557  1
  H+  H32  1  0.31515480  0.65866040  0.56069381  1
  H+  H33  1  0.39996884  0.27295582  0.65301001  1
  H+  H34  1  0.53992752  0.17083505  1.00500006  1
  H+  H35  1  0.77861452  0.87882813  0.16704115  1
  H+  H36  1  0.41228695  0.07533439  0.56006650  1
  H+  H37  1  0.27231502  0.08961379  0.80236692  1
  H+  H38  1  0.62656715  0.06563567  0.18854388  1
  H+  H39  1  0.68686373  0.57983670  0.24537455  1
  H+  H40  1  0.09138227  0.94380272  0.41719785  1
  H+  H41  1  0.57819851  0.65607682  0.75515845  1
  H+  H42  1  0.59985179  0.47855235  0.01495551  1
  H+  H43  1  0.18949274  0.80359609  0.17981371  1
  H+  H44  1  0.87096636  0.63593900  0.00425871  1
  H+  H45  1  0.11928130  0.89216677  0.49618651  1
  H+  H46  1  0.88585128  0.98434657  0.34284409  1
  H+  H47  1  0.37109704  0.77313163  0.17216636  1
  H+  H48  1  0.38347618  0.14387298  0.16953225  1
  H+  H49  1  0.60237653  0.92803915  0.18199119  1
  H+  H50  1  0.25275108  0.37499866  0.83469367  1
  H+  H51  1  0.80154044  0.74726482  0.40739967  1
  H+  H52  1  0.34926250  0.64501409  0.15032924  1
  H+  H53  1  0.10413836  0.63649561  -0.00127219  1
  H+  H54  1  0.86572185  0.98361634  0.50249057  1
  H+  H55  1  0.75815834  0.60052723  0.49725169  1
  H+  H56  1  0.42873046  0.85725982  0.26648165  1
  H+  H57  1  0.13514284  0.37482455  0.83545264  1
  H+  H58  1  0.88499243  0.52062704  0.83526350  1
  H+  H59  1  0.45489644  0.20565031  0.96009226  1
  H+  H60  1  0.74729359  0.89272788  0.33988389  1
  H+  H61  1  0.89206165  0.53175986  0.54797391  1
  H+  H62  1  0.61261104  0.72521281  0.50301196  1
  H+  H63  1  0.45688735  0.35988450  0.18014483  1
  H+  H64  1  0.10385808  0.31797847  0.35997657  1
  H+  H65  1  0.94701333  0.58587540  0.17071801  1
  H+  H66  1  0.62737958  0.17717662  0.16303405  1
  H+  H67  1  0.13506600  0.76811937  0.50909115  1
  H+  H68  1  0.91165121  0.28973585  0.66477062  1
  H+  H69  1  0.89768578  0.77417318  0.18011889  1
  H+  H70  1  0.67331526  0.76038372  0.98178073  1
  H+  H71  1  0.09198809  0.95576047  0.82358537  1
  H+  H72  1  0.61091997  0.22761768  0.49501626  1
  H+  H73  1  0.72714918  0.36553994  0.83815953  1
  H+  H74  1  0.12448523  0.74418049  0.70547350  1
  H+  H75  1  0.15089863  0.00841202  0.34357626  1
  H+  H76  1  0.61187861  0.22664695  0.82594381  1
  H+  H77  1  0.45939774  0.87576594  0.99370996  1
  H+  H78  1  0.64051365  0.63532855  0.31457496  1
  H+  H79  1  0.48122357  0.11333017  0.83718528  1
  H+  H80  1  0.84828436  0.10443900  0.15522337  1
  H+  H81  1  0.85034278  0.72827339  0.67664869  1
  H+  H82  1  0.38332326  0.10562879  0.65441109  1
  H+  H83  1  0.35063395  0.46734031  0.82041827  1
  H+  H84  1  -0.01883350  0.36986453  0.83296078  1
  H+  H85  1  0.87075551  0.47829710  0.99731821  1
  H+  H86  1  0.90838452  0.36913393  0.17794757  1
  H+  H87  1  0.63596635  0.36414795  0.84184442  1
  H+  H88  1  0.09900995  0.71212115  0.34728597  1
  H+  H89  1  0.62180552  0.46780174  0.67687528  1
  H+  H90  1  0.37622221  0.53345752  0.15449134  1
  H+  H91  1  0.37926691  0.09548706  0.49661375  1
  H+  H92  1  0.65327319  0.73056030  0.64516579  1
  H+  H93  1  0.89558456  0.56328510  0.23368451  1
  H+  H94  1  0.78288161  0.38684266  0.67265057  1
  H+  H95  1  0.79526040  0.14586653  0.67241099  1
  H+  H96  1  0.43415051  0.11603413  0.93175625  1
  H+  H97  1  0.57934507  0.83676116  0.00919251  1
  H+  H98  1  0.65463278  0.28645972  0.99274332  1
  H+  H99  1  0.52587779  0.63557917  0.49856233  1
  H+  H100  1  1.02240240  0.13059684  0.68660072  1
  H+  H101  1  0.13586190  0.01369602  0.66487523  1
  H+  H102  1  0.20681989  0.35348024  0.21931532  1
  H+  H103  1  0.88138625  0.47870520  0.46477041  1
  H+  H104  1  0.10424078  0.74134922  0.82062334  1
  H+  H105  1  0.38705252  0.31444960  0.23563552  1
  H+  H106  1  0.89385367  0.27828420  0.83626752  1
  H+  H107  1  0.61335471  0.70640114  0.15753443  1
  H+  H108  1  0.61431139  0.75040607  0.24105299  1
  H+  H109  1  0.72684259  0.12114656  0.18128006  1
  H+  H110  1  0.60271385  0.89153828  0.83475936  1
  H+  H111  1  0.90555456  0.79040215  0.34243880  1
  H+  H112  1  0.61038246  0.47559216  0.49881175  1
  H+  H113  1  0.13354819  0.11265678  0.51243134  1
  H+  H114  1  0.61542672  0.73620744  0.63851855  1
  H+  H115  1  0.46411191  0.61927114  0.15236259  1
  H+  H116  1  0.38884031  1.00500294  0.16018244  1
  H+  H117  1  0.74056276  0.11499210  0.33314788  1
  H+  H118  1  0.46047499  0.11630106  0.32744227  1
  H+  H119  1  1.02189440  0.14215368  0.84346781  1
  H+  H120  1  0.33710456  0.71615422  0.67047756  1
  H+  H121  1  0.63771283  0.36657964  0.50530139  1
  H+  H122  1  0.87948503  0.89473803  1.00872888  1
  H+  H123  1  0.22127318  0.85931018  0.32812069  1
  H+  H124  1  0.62352992  0.87127895  1.01823778  1
  H+  H125  1  0.38915436  0.87131243  0.17096000  1
  H+  H126  1  0.58213348  0.92830882  0.43524528  1
  H+  H127  1  0.65261245  0.61970608  0.84386688  1
  H+  H128  1  0.46545667  0.36121366  0.82956104  1
  H+  H129  1  0.88182249  0.89499913  0.34659550  1
  H+  H130  1  0.60798127  0.81366987  0.19050401  1
  H+  H131  1  0.52220547  0.13553813  0.67400352  1
  H+  H132  1  0.39075141  0.53121187  0.33066312  1
  H+  H133  1  0.65328422  0.60851746  -0.00712526  1
  H+  H134  1  0.39131786  0.26844598  0.98683308  1
  H+  H135  1  0.75455285  0.85651950  -0.01779053  1
  H+  H136  1  0.35688762  0.62426568  0.51449229  1
  H+  H137  1  0.09151682  0.74931916  0.64087026  1
  H+  H138  1  0.12662574  0.27982998  0.84184558  1
  H+  H139  1  0.35007375  0.37288008  0.82640224  1
  H+  H140  1  0.73856084  0.60325290  0.99317783  1
  H+  H141  1  0.63427122  0.11905765  0.50850104  1
  H+  H142  1  0.64352373  0.37554514  0.33034086  1
  H+  H143  1  0.85081410  0.35798869  0.33645358  1
  H+  H144  1  0.62472252  0.91447830  0.34142511  1
  H+  H145  1  0.16544348  0.08430632  0.57207545  1
  H+  H146  1  0.86173753  0.38626221  0.82726217  1
  H+  H147  1  0.51583448  0.38549419  1.00852794  1
  H+  H148  1  1.02157271  0.89223918  1.00621358  1
  H+  H149  1  0.78545671  0.64607833  0.15945012  1
  H+  H150  1  0.22714346  0.10936886  0.17835559  1
  H+  H151  1  0.63270911  0.04260599  1.00033114  1
  H+  H152  1  0.77827836  0.14284928  0.82820748  1
  H+  H153  1  0.33359067  0.37083031  0.33597806  1
  H+  H154  1  0.09366807  0.43098994  0.76013673  1
  H+  H155  1  0.89306937  0.10318505  0.31115044  1
  H+  H156  1  0.27321068  0.88846515  0.83159059  1
  H+  H157  1  0.14056008  0.36640783  0.17876086  1
  H+  H158  1  0.95989622  0.33072572  0.34213835  1
  H+  H159  1  0.40841047  0.29963474  0.33894186  1
  H+  H160  1  0.45423191  0.58288945  0.79856692  1
  H+  H161  1  0.07316898  0.69526311  0.15965757  1
  H+  H162  1  0.91872405  0.53152242  0.68160959  1
  H+  H163  1  0.14452770  0.81146558  0.23893313  1
  H+  H164  1  0.87333201  0.39425280  0.49614861  1
  H+  H165  1  0.14130796  0.48379855  0.15403977  1
  H+  H166  1  0.51778847  0.64815853  0.31229215  1
  H+  H167  1  0.60477106  0.73462870  0.33347776  1
  H+  H168  1  0.89390416  0.27818340  0.98929256  1
  H+  H169  1  0.87408318  0.39050441  0.67759534  1
  H+  H170  1  0.97557095  0.61087144  0.98865528  1
  H+  H171  1  0.63455465  1.02917613  0.50615743  1
  H+  H172  1  0.38137811  0.86165954  0.83716141  1
  H+  H173  1  0.28035215  0.39292286  -0.00567922  1
  H+  H174  1  0.34455504  0.74192703  -0.00074016  1
  H+  H175  1  0.47236513  0.36612531  0.50518650  1
  H+  H176  1  0.45941271  0.85564559  0.66311114  1
  H+  H177  1  0.05360755  0.14958864  0.30520153  1
  H+  H178  1  0.10956935  0.22692444  0.49155978  1
  H+  H179  1  0.11942870  0.98243877  0.50382764  1
  H+  H180  1  0.36558504  0.12282276  0.82790772  1
  H+  H181  1  0.11905305  0.14763746  0.01118853  1
  H+  H182  1  0.86960842  0.21432168  0.32688128  1
  H+  H183  1  0.38003929  0.27195930  0.82834518  1
  H+  H184  1  0.11507462  0.48234555  0.99361527  1
  H+  H185  1  0.20669960  0.34491513  0.64251605  1
  H+  H186  1  0.37954994  1.01547081  0.65660693  1
  H+  H187  1  0.89251147  0.11797820  1.00012807  1
  H+  H188  1  0.36582546  0.97328298  0.49044115  1
  H+  H189  1  0.96932103  0.61563705  0.83041962  1
  H+  H190  1  0.96378577  0.84899985  0.84029371  1
  H+  H191  1  0.86249487  0.89308945  0.83595230  1
  H+  H192  1  0.61485176  0.25904873  0.16225408  1
  H+  H193  1  0.37915008  0.51329498  0.50481881  1
  H+  H194  1  0.13705713  0.86394313  0.84372489  1
  H+  H195  1  0.55159945  0.42171932  0.10709920  1
  H+  H196  1  0.27076841  0.39156348  0.13505762  1
  H+  H197  1  0.97069374  0.35972530  0.50374288  1
  H+  H198  1  0.14819851  1.06843861  0.80021906  1
  H+  H199  1  0.97656780  0.11787094  0.51667629  1
  H+  H200  1  0.71699965  0.52518450  0.20760318  1
  H+  H201  1  0.13565752  0.60871466  0.33232709  1
  H+  H202  1  0.16100973  0.40096405  0.64037546  1
  H+  H203  1  0.72689967  0.36754864  0.50305953  1
  H+  H204  1  0.47780389  0.68758697  0.62716647  1
  H+  H205  1  0.35163416  0.97786393  0.33505370  1
  H+  H206  1  0.38714879  0.77364701  0.50966883  1
  H+  H207  1  0.52231998  0.13646198  0.49524132  1
  H+  H208  1  0.39197700  0.02263567  0.84279397  1
  H+  H209  1  0.61025576  0.36803773  0.17846630  1
  H+  H210  1  0.21633998  0.86425076  0.99649854  1
  H+  H211  1  0.63580844  0.02245373  0.33689391  1
  H+  H212  1  0.89068556  0.77347028  0.99493623  1
  H+  H213  1  0.60200277  0.89817127  0.67545379  1
  H+  H214  1  0.49304410  0.14075160  0.17733015  1
  H+  H215  1  0.02345641  0.63972989  0.50891995  1
  H+  H216  1  0.61283097  0.22251645  0.67392213  1
  H+  H217  1  0.94512872  0.60000449  0.59736495  1
  H+  H218  1  0.19894614  0.58569850  0.51309164  1
  H+  H219  1  0.50459184  0.85949160  0.16934009  1
  H+  H220  1  0.78205748  0.91003748  0.67780389  1
  H+  H221  1  0.88208070  0.28276017  0.52557623  1
  H+  H222  1  0.97830230  0.86948208  0.51609192  1
  H+  H223  1  0.96914469  0.32765501  0.17634535  1
  H+  H224  1  0.11550858  0.59515845  0.17167186  1
  H+  H225  1  0.42756875  0.33876683  0.59679273  1
  H+  H226  1  0.11960828  0.24432852  -0.00148820  1
  H+  H227  1  0.58703592  0.42457630  0.43616288  1
  H+  H228  1  0.59806299  0.61231902  0.15209296  1
  H+  H229  1  0.52221880  0.89096107  0.49401837  1
  H+  H230  1  0.38894276  0.61868935  0.33823006  1
  H+  H231  1  0.64921226  0.36103853  0.66174241  1
  H+  H232  1  0.19575650  0.56683638  0.66906535  1
  H+  H233  1  0.45752748  0.67250048  0.03727940  1
  H+  H234  1  0.89410221  0.86069363  0.18268313  1
  H+  H235  1  0.98043394  0.11061066  0.16547708  1
  H+  H236  1  0.86014107  0.63257506  0.82743422  1
  H+  H237  1  0.10462226  0.72562222  0.00629502  1
  H+  H238  1  0.34882490  0.89485088  -0.00087751  1
  H+  H239  1  0.85498069  0.62182763  0.50251092  1
  H+  H240  1  0.51274632  0.98029933  0.06435462  1
  H+  H241  1  0.11925457  0.05873647  0.77300664  1
  H+  H242  1  0.36038157  0.13688177  0.01671910  1
  H+  H243  1  0.11089673  0.88397602  0.16081485  1
  H+  H244  1  0.88831051  0.86935398  0.66869313  1
  H+  H245  1  0.61263424  0.98548744  0.82991312  1
  H+  H246  1  0.10636798  0.22091163  0.17451734  1
  H+  H247  1  0.71808351  0.75266952  0.79089600  1
  H+  H248  1  0.76637413  0.14077348  0.51117027  1
  H+  H249  1  1.02615193  0.88906454  0.16535614  1
  H+  H250  1  0.43932855  0.39956419  0.70135510  1
  H+  H251  1  0.41453305  0.57114531  0.56620516  1
  H+  H252  1  0.54601103  0.62378508  -0.00936392  1
  H+  H253  1  0.72162397  0.61346963  0.66921226  1
  H+  H254  1  0.13753893  0.62116998  0.80578516  1
  H+  H255  1  0.01024817  0.61173621  0.69794660  1
  H+  H256  1  0.13187201  0.85650763  0.33151604  1
  H+  H257  1  0.82303452  0.39028574  0.39478840  1
  H+  H258  1  0.29702153  0.92583321  0.16055985  1
  H+  H259  1  0.64792753  0.03313933  0.66173259  1
  H+  H260  1  0.39978972  0.89064157  0.32466967  1
  H+  H261  1  0.84645419  0.17872182  0.73536715  1
  H+  H262  1  0.59216438  0.47186236  0.17049354  1
  H+  H263  1  0.42936976  0.62761086  1.02524174  1
  H+  H264  1  0.26585227  0.12930956  1.02564233  1
  H+  H265  1  0.10593893  0.63047525  0.50222854  1
  H+  H266  1  0.84410570  0.66765089  0.06483335  1
  H+  H267  1  0.48018783  0.49071914  0.73292340  1
  H+  H268  1  0.71107296  0.97060641  0.63144839  1
  H+  H269  1  0.77741872  0.14426948  0.00276955  1
  H+  H270  1  0.36080920  0.63527420  0.82059164  1
  H+  H271  1  0.83634558  0.92667752  0.77760143  1
  H+  H272  1  0.92830228  0.09112758  0.61304656  1
  H+  H273  1  0.90227059  0.12662646  0.67161828  1
  H+  H274  1  0.87828921  0.50099816  0.32246059  1
  H+  H275  1  0.25817322  0.87093956  0.67829982  1
  H+  H276  1  0.63834313  0.86981633  0.50388461  1
  H+  H277  1  0.13805100  0.36943345  0.99192519  1
  H+  H278  1  0.34781333  0.87488376  0.67304234  1
  H+  H279  1  0.35084208  0.38211559  0.15475279  1
  H+  H280  1  0.41487031  0.49590254  -0.03485783  1
  H+  H281  1  0.76857206  0.62600918  0.83023539  1
  H+  H282  1  0.88839313  0.11892393  0.52410119  1
  H+  H283  1  0.47382419  0.86891812  0.83833270  1
  H+  H284  1  0.06943862  0.15615900  0.43991058  1
  H+  H285  1  0.13926847  1.02035991  0.17988606  1
  H+  H286  1  0.27559398  0.88482955  0.49029480  1
  H+  H287  1  0.27382568  0.63736188  0.34483824  1
  H+  H288  1  0.58162135  0.16755736  0.76510731  1
  H+  H289  1  0.17238681  0.83292617  0.56498908  1
  H+  H290  1  0.42474809  0.09811614  0.23694862  1
  H+  H291  1  0.42687754  0.31075164  0.92174217  1
  H+  H292  1  0.31856904  0.66010802  0.73004850  1
  H+  H293  1  0.91502387  0.83066432  0.93455773  1
  H+  H294  1  0.32827784  0.91849284  0.39508156  1
  H+  H295  1  0.33986017  0.16460900  0.72577519  1
  H+  H296  1  0.65148280  0.34326701  0.23505172  1
  H+  H297  1  0.87359824  0.76344478  0.84332347  1
  H+  H298  1  0.22295833  0.62130919  0.82527662  1
  H+  H299  1  0.68175174  0.34229559  0.92606877  1
  H+  H300  1  0.36545220  0.72750203  0.82428081  1
  H+  H301  1  0.58023087  0.40730287  0.76864881  1
  H+  H302  1  0.27400350  0.13306447  0.67049832  1
  H+  H303  1  0.89151279  0.87209300  0.51577557  1
  H+  H304  1  0.07040329  0.65520453  0.40684924  1
  H+  H305  1  0.84330441  0.91683456  0.06830516  1
  H+  H306  1  0.82273465  0.67384238  0.41878011  1
  H+  H307  1  0.65926119  0.57518146  0.57415091  1
  H+  H308  1  0.59567578  0.19565330  0.06751600  1
  H+  H309  1  0.91765004  0.08690342  0.90668292  1
  H+  H310  1  0.16517174  0.34474364  0.54619421  1
  H+  H311  1  0.16473067  0.83348028  0.90382908  1
  H+  H312  1  0.16264362  0.33807190  0.93117300  1
  H+  H313  1  0.41145201  0.84141623  0.92833792  1
  H+  H314  1  0.38490670  0.86147866  0.50186637  1
  H+  H315  1  0.15288572  0.59025455  0.91698821  1
  H+  H316  1  0.63974173  0.12069217  0.83730895  1
  H+  H317  1  0.72765078  0.87016555  0.50628272  1
  H+  H318  1  0.25372721  0.38257752  0.34509205  1
  H+  H319  1  0.32229562  0.65635471  0.40698209  1
  H+  H320  1  0.19749261  0.07099861  0.27110471  1
  H+  H321  1  0.18143193  0.11318826  0.95467168  1
  H+  H322  1  0.67580261  0.33293528  0.60047167  1
  H+  H323  1  0.02964786  0.39222480  0.00115277  1
  H+  H324  1  0.12713008  0.86287185  0.99487100  1
  H+  H325  1  0.36231130  0.10100951  0.31803465  1
  H+  H326  1  0.67400826  0.10509958  0.27952797  1
  H+  H327  1  0.29974978  0.11730420  0.41882052  1
  H+  H328  1  0.86590538  0.63514447  0.16190334  1
  H+  H329  1  0.63431074  0.61058005  0.51476305  1
  H+  H330  1  0.11377579  0.21426601  0.69221918  1
  H+  H331  1  0.49763645  0.51347059  0.92942080  1
  H+  H332  1  0.13035877  0.31707648  0.29161607  1
  H+  H333  1  0.83278631  0.16675756  0.06251594  1
  H+  H334  1  0.68553389  0.88315928  0.59648975  1
  H+  H335  1  0.05823206  0.64640828  0.09666603  1
  H+  H336  1  0.53685282  0.37717734  0.67055364  1
  H+  H337  1  0.68866687  0.86292275  0.28117142  1
  H+  H338  1  0.82325299  0.66715777  0.73484003  1
  H+  H339  1  0.59059472  0.65720736  0.05642329  1
  H+  H340  1  0.08061066  0.92169685  0.06625343  1
  H+  H341  1  0.84535472  0.92897827  0.44089496  1
  H+  H342  1  0.86557251  0.97008377  0.16357339  1
  H+  H343  1  0.86618012  0.14037667  0.83155134  1
  H+  H344  1  0.16634786  0.16902345  0.86792240  1
  H+  H345  1  0.71894015  0.35332342  0.32532046  1
  H+  H346  1  0.55837346  0.77436772  0.88745502  1
  H+  H347  1  0.33070867  0.41959524  0.42833058  1
  H+  H348  1  0.91629151  0.58057653  0.92828047  1
  H+  H349  1  0.66955793  0.57487620  0.90199849  1
  H+  H350  1  0.33132601  0.93093390  0.05957695  1
  H+  H351  1  0.93536868  0.35064024  0.60605179  1
  H+  H352  1  0.38921829  0.63574651  0.66090779  1
  H+  H353  1  0.34699116  0.42290893  0.04841870  1
  H+  H354  1  0.31179857  0.67961010  0.09830106  1
  H+  H355  1  0.84844482  0.40571516  0.09819167  1
  H+  H356  1  0.83920412  0.18989487  0.46211349  1
  H+  H357  1  0.32765422  0.91444033  0.76982299  1
  H+  H358  1  0.04460335  0.41160504  0.66554005  1
  H+  H359  1  0.01710064  0.87856912  0.67673517  1
  H+  H360  1  0.83162470  0.41359541  0.76701257  1
  H+  H361  1  0.11939869  0.42803556  0.09299102  1
  H+  H362  1  0.32233707  0.22193314  0.31783602  1
  H+  H363  1  0.07090749  0.89695979  0.76573734  1
  H+  H364  1  0.92224736  0.07950185  0.22386747  1
  H+  H365  1  0.40705792  0.83078156  0.60041058  1
  H+  H366  1  0.76350126  0.05207710  0.11840985  1
  H+  H367  1  0.16521883  0.58412784  0.27163841  1
  H+  H368  1  0.56735213  0.91684012  0.73692325  1
  H+  H369  1  0.13497353  0.54789227  0.56827380  1
  H+  H370  1  0.43376303  0.56604496  0.87093579  1
  H+  H371  1  0.33904667  0.16430714  0.10397514  1
  H+  H372  1  0.68410271  0.07923497  0.59807345  1
  H+  H373  1  0.56382835  0.16813204  0.39909532  1
  H+  H374  1  0.66928171  0.09395901  0.89812508  1
  H+  H375  1  0.92474230  0.33615191  0.92829604  1
  H+  H376  1  0.50079642  0.62560375  0.70399940  1
  H+  H377  1  0.72945271  0.64498518  0.33957493  1
  H+  H378  1  0.85940398  0.14913007  0.38045684  1
  H+  H379  1  0.65672959  0.82169996  0.90758762  1
  H+  H380  1  1.03399490  0.91584048  0.35111136  1
  H+  H381  1  0.91668534  0.83944692  0.60798871  1
  H+  H382  1  0.92723902  0.32643426  0.27143348  1
  H+  H383  1  0.55630008  0.92661080  0.08192800  1
  O2-  O384  1  0.08010940  0.16275794  0.15612756  1
  O2-  O385  1  0.07691089  0.16235409  0.48396949  1
  O2-  O386  1  0.08363378  0.17724923  0.82942541  1
  O2-  O387  1  0.14336980  0.43471895  0.13437252  1
  O2-  O388  1  0.04394652  0.36986873  0.45203892  1
  O2-  O389  1  0.08893907  0.42739740  0.80514976  1
  O2-  O390  1  0.05080223  0.63772739  0.14175184  1
  O2-  O391  1  0.08048862  0.66643229  0.48824460  1
  O2-  O392  1  0.05711585  0.69411617  0.79663902  1
  O2-  O393  1  0.08601270  0.91976140  0.14808374  1
  O2-  O394  1  0.08955608  0.92388712  0.48388919  1
  O2-  O395  1  0.06904191  0.89590013  0.81207511  1
  O2-  O396  1  0.34447417  0.16938363  0.15257511  1
  O2-  O397  1  0.31311402  0.12018738  0.46281386  1
  O2-  O398  1  0.32541968  0.14299306  0.81099137  1
  O2-  O399  1  0.33317780  0.41908503  0.13263105  1
  O2-  O400  1  0.32932887  0.41884179  0.47391047  1
  O2-  O401  1  0.31424606  0.40131485  0.81675909  1
  O2-  O402  1  0.31724416  0.67727978  0.14303510  1
  O2-  O403  1  0.32431798  0.65686057  0.51713723  1
  O2-  O404  1  0.33268942  0.66793427  0.80736679  1
  O2-  O405  1  0.35449678  0.94414713  0.14520539  1
  O2-  O406  1  0.33478255  0.91271255  0.47360178  1
  O2-  O407  1  0.33330550  0.91781134  0.81509632  1
  O2-  O408  1  0.58963472  0.19664141  0.14546469  1
  O2-  O409  1  0.58316450  0.16709132  0.48028708  1
  O2-  O410  1  0.58216172  0.16616110  0.81178649  1
  O2-  O411  1  0.55097938  0.41495143  0.15337918  1
  O2-  O412  1  0.58347825  0.41636288  0.48070474  1
  O2-  O413  1  0.57630982  0.40620850  0.81429332  1
  O2-  O414  1  0.58105992  0.65134893  0.13451812  1
  O2-  O415  1  0.58785073  0.66520059  0.48893616  1
  O2-  O416  1  0.65988683  0.71587678  0.80594136  1
  O2-  O417  1  0.56635045  0.87990230  0.15548240  1
  O2-  O418  1  0.58345885  0.92435283  0.48011334  1
  O2-  O419  1  0.57793511  0.92457330  0.81572197  1
  O2-  O420  1  0.79838398  0.10849367  0.13699729  1
  O2-  O421  1  0.83137849  0.17490653  0.50506318  1
  O2-  O422  1  0.83925250  0.17267277  0.81401102  1
  O2-  O423  1  0.84639422  0.39795312  0.14249781  1
  O2-  O424  1  0.84044004  0.41945101  0.47554693  1
  O2-  O425  1  0.82901944  0.41424014  0.81297394  1
  O2-  O426  1  0.84564144  0.67489867  0.14536812  1
  O2-  O427  1  0.80953170  0.61096631  0.47314304  1
  O2-  O428  1  0.82848663  0.66287359  0.81521733  1
  O2-  O429  1  0.83719608  0.90803435  0.15082335  1
  O2-  O430  1  0.83645408  0.92417033  0.48572333  1
  O2-  O431  1  0.83730173  0.92850233  0.82280236  1
  O2-  O432  1  0.17091793  0.07917231  0.19877104  1
  O2-  O433  1  0.16338556  0.08191726  0.52685188  1
  O2-  O434  1  0.21327493  0.17119719  0.89322624  1
  O2-  O435  1  0.14692866  0.32410474  0.20668094  1
  O2-  O436  1  0.15884719  0.32861563  0.50209886  1
  O2-  O437  1  0.16163618  0.34228440  0.85443938  1
  O2-  O438  1  0.15402963  0.57508281  0.18777818  1
  O2-  O439  1  0.13856283  0.56258502  0.52475851  1
  O2-  O440  1  0.16046758  0.59364848  0.83443836  1
  O2-  O441  1  0.13954174  0.80665782  0.19319829  1
  O2-  O442  1  0.16759960  0.83131055  0.52075560  1
  O2-  O443  1  0.17031337  0.83667978  0.85833139  1
  O2-  O444  1  0.43065373  0.10508062  0.18985896  1
  O2-  O445  1  0.41635624  0.07362466  0.51485569  1
  O2-  O446  1  0.42153044  0.08454696  0.85520755  1
  O2-  O447  1  0.39364708  0.32034171  0.19038466  1
  O2-  O448  1  0.41492422  0.33959529  0.52432372  1
  O2-  O449  1  0.40619888  0.32845807  0.84802233  1
  O2-  O450  1  0.40325631  0.59541308  0.16282652  1
  O2-  O451  1  0.41072767  0.57398601  0.52168213  1
  O2-  O452  1  0.40804277  0.56505629  0.83029175  1
  O2-  O453  1  0.41022427  0.83381072  0.18743747  1
  O2-  O454  1  0.41792903  0.83551961  0.52041794  1
  O2-  O455  1  0.41300482  0.83258522  0.85286477  1
  O2-  O456  1  0.67627180  0.11818195  0.20309390  1
  O2-  O457  1  0.66573657  0.08882201  0.52297167  1
  O2-  O458  1  0.67103994  0.09136829  0.85314999  1
  O2-  O459  1  0.64965791  0.34668696  0.18977074  1
  O2-  O460  1  0.66811525  0.33567030  0.51961304  1
  O2-  O461  1  0.66841663  0.33571062  0.85756095  1
  O2-  O462  1  0.68913212  0.55968655  0.20288932  1
  O2-  O463  1  0.66001427  0.57494281  0.52885951  1
  O2-  O464  1  0.66353220  0.57323219  0.85641199  1
  O2-  O465  1  0.64539675  0.79253662  0.20684822  1
  O2-  O466  1  0.66835554  0.84224197  0.52352074  1
  O2-  O467  1  0.61567177  0.81298426  0.87159624  1
  O2-  O468  1  0.91708287  0.07672498  0.17877575  1
  O2-  O469  1  0.91817251  0.08711196  0.53575459  1
  O2-  O470  1  0.91883849  0.08893525  0.86154534  1
  O2-  O471  1  0.94516189  0.35308751  0.20320116  1
  O2-  O472  1  0.91947687  0.34608751  0.53001677  1
  O2-  O473  1  0.92271951  0.33897941  0.85142853  1
  O2-  O474  1  0.88826094  0.56336228  0.18781112  1
  O2-  O475  1  0.92962424  0.59353334  0.55254896  1
  O2-  O476  1  0.91288188  0.58044295  0.85169937  1
  O2-  O477  1  0.92725079  0.83358552  0.19778866  1
  O2-  O478  1  0.91973976  0.84150331  0.53315164  1
  O2-  O479  1  0.90540960  0.82450027  0.85818783  1
  O2-  O480  1  0.21099363  0.04960179  0.30980756  1
  O2-  O481  1  0.16536374  0.07493523  0.65140896  1
  O2-  O482  1  0.16713547  0.09609034  0.99889374  1
  O2-  O483  1  0.14690456  0.31465021  0.33386322  1
  O2-  O484  1  0.19403333  0.38018511  0.61623656  1
  O2-  O485  1  0.16491415  0.33503018  0.97659354  1
  O2-  O486  1  0.17366459  0.58850919  0.31613176  1
  O2-  O487  1  0.13617596  0.53081220  0.65318671  1
  O2-  O488  1  0.15183416  0.58564166  0.96218046  1
  O2-  O489  1  0.15893039  0.82561287  0.31478398  1
  O2-  O490  1  0.13296282  0.78779623  0.67084607  1
  O2-  O491  1  0.15530115  0.83007194  0.98123097  1
  O2-  O492  1  0.40376269  0.08101850  0.30454951  1
  O2-  O493  1  0.41277270  0.07441162  0.63982890  1
  O2-  O494  1  0.44644057  0.14791622  0.97109122  1
  O2-  O495  1  0.36111371  0.28639029  0.31117524  1
  O2-  O496  1  0.43704401  0.33383372  0.64178380  1
  O2-  O497  1  0.44331418  0.29634816  0.96169937  1
  O2-  O498  1  0.42358079  0.59317412  0.32223260  1
  O2-  O499  1  0.43947791  0.63129325  0.64467870  1
  O2-  O500  1  0.46479984  0.54135957  0.93998853  1
  O2-  O501  1  0.44524275  0.87984972  0.30827933  1
  O2-  O502  1  0.39984485  0.82380523  0.64549067  1
  O2-  O503  1  0.40304038  0.84105652  0.97378539  1
  O2-  O504  1  0.67777959  0.09395224  0.32384440  1
  O2-  O505  1  0.70140610  0.06719718  0.63846562  1
  O2-  O506  1  0.67059728  0.09917001  0.98158690  1
  O2-  O507  1  0.65861785  0.33450110  0.31226796  1
  O2-  O508  1  0.67964571  0.33104922  0.64558463  1
  O2-  O509  1  0.68983482  0.34564666  0.97305563  1
  O2-  O510  1  0.67621111  0.60663082  0.31597771  1
  O2-  O511  1  0.65961302  0.57315173  0.65410864  1
  O2-  O512  1  0.67792041  0.57268307  0.97789516  1
  O2-  O513  1  0.68791244  0.87375805  0.32492502  1
  O2-  O514  1  0.69664635  0.91018257  0.63789509  1
  O2-  O515  1  0.70966964  0.81143535  0.95629371  1
  O2-  O516  1  0.92981009  0.07684816  0.30143915  1
  O2-  O517  1  0.93028148  0.09258676  0.65868212  1
  O2-  O518  1  0.92774780  0.09163460  0.98776101  1
  O2-  O519  1  0.90850901  0.30802364  0.31539276  1
  O2-  O520  1  0.94120739  0.35105625  0.65142643  1
  O2-  O521  1  0.92473980  0.33839883  0.97404446  1
  O2-  O522  1  0.90485177  0.56070088  0.30743087  1
  O2-  O523  1  0.96102102  0.59083009  0.66942016  1
  O2-  O524  1  0.91447064  0.57794076  0.97400654  1
  O2-  O525  1  0.94186296  0.84663278  0.32178679  1
  O2-  O526  1  0.91729275  0.83781679  0.65403115  1
  O2-  O527  1  0.91999171  0.83426232  0.98023307  1
  O2-  O528  1  0.08779495  0.18195530  0.01652979  1
  O2-  O529  1  0.00829160  0.13733100  0.33500187  1
  O2-  O530  1  0.08247769  0.15456980  0.70510101  1
  O2-  O531  1  0.09174361  0.42439814  0.01249638  1
  O2-  O532  1  0.01684037  0.31575239  0.40522500  1
  O2-  O533  1  0.10804672  0.44437710  0.67821460  1
  O2-  O534  1  0.07396644  0.66372592  0.01904887  1
  O2-  O535  1  0.06815712  0.65218214  0.36162699  1
  O2-  O536  1  0.10132642  0.66961875  0.75153462  1
  O2-  O537  1  0.08261195  0.92597356  0.02106868  1
  O2-  O538  1  0.08842701  0.95909899  0.37225108  1
  O2-  O539  1  0.07829509  0.90507593  0.69246874  1
  O2-  O540  1  0.32715985  0.15800873  0.04032619  1
  O2-  O541  1  0.28755558  0.12245768  0.33859015  1
  O2-  O542  1  0.33641742  0.16316625  0.68102227  1
  O2-  O543  1  0.34206531  0.41794965  0.00370314  1
  O2-  O544  1  0.31759150  0.41243277  0.35109265  1
  O2-  O545  1  0.44755980  0.42900462  0.74089950  1
  O2-  O546  1  0.30940311  0.68112461  0.01494285  1
  O2-  O547  1  0.33271891  0.66454663  0.36350195  1
  O2-  O548  1  0.31245572  0.65545872  0.68466510  1
  O2-  O549  1  0.31860655  0.92379962  0.01581660  1
  O2-  O550  1  0.32368235  0.91695320  0.34965460  1
  O2-  O551  1  0.31913408  0.90628391  0.68946814  1
  O2-  O552  1  0.59953624  0.19360722  0.02193490  1
  O2-  O553  1  0.55407270  0.16803447  0.35470036  1
  O2-  O554  1  0.57971279  0.16499214  0.69316198  1
  O2-  O555  1  0.54854172  0.43388838  0.03674532  1
  O2-  O556  1  0.59867371  0.44274918  0.35353974  1
  O2-  O557  1  0.59520223  0.40668103  0.69032466  1
  O2-  O558  1  0.60132890  0.66017508  0.01181496  1
  O2-  O559  1  0.58359440  0.68772812  0.30384546  1
  O2-  O560  1  0.52408365  0.60768364  0.73857039  1
  O2-  O561  1  0.54350916  0.95358122  0.04697232  1
  O2-  O562  1  0.59255714  0.94472006  0.35357530  1
  O2-  O563  1  0.56095241  0.91500684  0.69179825  1
  O2-  O564  1  0.83816743  0.17244957  0.01776190  1
  O2-  O565  1  0.84057281  0.14913877  0.33883241  1
  O2-  O566  1  0.85378259  0.18230265  0.69013264  1
  O2-  O567  1  0.83927042  0.41583494  0.01057182  1
  O2-  O568  1  0.82041311  0.38871541  0.34983898  1
  O2-  O569  1  0.84089391  0.41747087  0.69256577  1
  O2-  O570  1  0.84128915  0.66688443  0.01951544  1
  O2-  O571  1  0.81909239  0.71166818  0.38516148  1
  O2-  O572  1  0.81465079  0.66784938  0.69030820  1
  O2-  O573  1  0.85064963  0.92685739  0.02377650  1
  O2-  O574  1  0.85250557  0.92613217  0.36151374  1
  O2-  O575  1  0.83817788  0.92571012  0.69728044  1
