# generated using pymatgen
data_H2O
_symmetry_space_group_name_H-M   'P 1'
_cell_length_a   17.98841533
_cell_length_b   17.98449363
_cell_length_c   22.00349499
_cell_angle_alpha   90.02702400
_cell_angle_beta   89.99544443
_cell_angle_gamma   120.00387874
_symmetry_Int_Tables_number   1
_chemical_formula_structural   H2O
_chemical_formula_sum   'H384 O192'
_cell_volume   6164.47918204
_cell_formula_units_Z   192
loop_
 _symmetry_equiv_pos_site_id
 _symmetry_equiv_pos_as_xyz
  1  'x, y, z'
loop_
 _atom_type_symbol
 _atom_type_oxidation_number
  H+  1.0
  O2-  -2.0
loop_
 _atom_site_type_symbol
 _atom_site_label
 _atom_site_symmetry_multiplicity
 _atom_site_fract_x
 _atom_site_fract_y
 _atom_site_fract_z
 _atom_site_occupancy
  H+  H0  1  0.12533902  0.01306983  0.98180128  1
  H+  H1  1  0.34299598  0.62592358  0.47346635  1
  H+  H2  1  0.85990690  0.22833114  0.33464960  1
  H+  H3  1  0.72549840  0.35874289  0.99839535  1
  H+  H4  1  0.13130664  0.90281963  0.50094092  1
  H+  H5  1  0.74192318  0.88672402  0.50097586  1
  H+  H6  1  0.86157836  0.47090813  0.16321951  1
  H+  H7  1  0.63721959  0.87791608  0.32752853  1
  H+  H8  1  0.83287153  0.16479010  0.10028044  1
  H+  H9  1  0.37207743  0.51524092  0.29975660  1
  H+  H10  1  0.74916728  0.49614494  -0.01960487  1
  H+  H11  1  0.10226758  0.38597479  0.50016242  1
  H+  H12  1  0.12482483  0.27234956  0.51448914  1
  H+  H13  1  0.12195986  0.22856765  0.15135612  1
  H+  H14  1  0.87828330  0.02843041  0.50574158  1
  H+  H15  1  0.63992232  0.02453443  0.83817602  1
  H+  H16  1  0.88852664  0.02078986  0.99041234  1
  H+  H17  1  0.36533291  0.46293698  0.68233340  1
  H+  H18  1  0.78042927  0.54040256  0.71825954  1
  H+  H19  1  0.87037528  0.72890161  0.34304799  1
  H+  H20  1  0.14465202  0.36541693  0.67372743  1
  H+  H21  1  0.61377308  0.39051515  -0.00041495  1
  H+  H22  1  0.89062935  0.52392972  0.32269067  1
  H+  H23  1  0.01858987  0.87942470  0.34716520  1
  H+  H24  1  0.88150426  0.86314943  0.32751826  1
  H+  H25  1  0.38809241  0.10920839  0.84208042  1
  H+  H26  1  0.88467131  0.78263842  0.51225017  1
  H+  H27  1  0.89112115  0.61296215  0.32533859  1
  H+  H28  1  0.86196878  0.98859230  0.66097317  1
  H+  H29  1  0.36506725  0.22060660  0.15355537  1
  H+  H30  1  0.28183712  0.89472707  0.49174590  1
  H+  H31  1  0.88560653  0.02855150  0.31733617  1
  H+  H32  1  0.22859410  0.10873443  0.16477991  1
  H+  H33  1  0.00218956  0.13883897  0.34338000  1
  H+  H34  1  0.87416060  0.49900832  0.48790973  1
  H+  H35  1  0.15055369  0.86437472  0.84101957  1
  H+  H36  1  0.61016662  -0.01775928  0.33790177  1
  H+  H37  1  0.97512787  0.11142243  0.98664579  1
  H+  H38  1  0.61706259  0.90328874  0.82552801  1
  H+  H39  1  0.49642451  0.88292814  0.83763980  1
  H+  H40  1  0.12764959  -0.01942582  0.16597034  1
  H+  H41  1  0.63943219  0.34468065  0.83969253  1
  H+  H42  1  0.89194784  0.11692615  0.16772963  1
  H+  H43  1  0.97565927  0.36546068  0.32913935  1
  H+  H44  1  0.26090587  0.39211364  0.53053928  1
  H+  H45  1  0.61535132  0.45756390  0.34317602  1
  H+  H46  1  0.38956197  0.11080823  0.31941801  1
  H+  H47  1  0.11684808  0.38719149  0.15480525  1
  H+  H48  1  0.96036348  0.36305322  0.49827388  1
  H+  H49  1  0.46182704  0.60431260  0.31398083  1
  H+  H50  1  0.37077162  0.52214199  0.52738241  1
  H+  H51  1  0.10701483  0.38705299  -0.00094202  1
  H+  H52  1  0.27038054  0.12983403  0.82656207  1
  H+  H53  1  0.90147513  0.15521491  0.65013704  1
  H+  H54  1  0.35388879  0.21353083  0.99836901  1
  H+  H55  1  0.15025609  0.85817287  0.66227847  1
  H+  H56  1  0.25330995  0.37714273  0.31104710  1
  H+  H57  1  0.47565424  0.86443349  0.32418031  1
  H+  H58  1  0.46825321  0.10343089  0.51645033  1
  H+  H59  1  0.35626284  0.63563819  0.32792627  1
  H+  H60  1  0.29060690  0.88150259  0.67442515  1
  H+  H61  1  0.08988399  0.23705085  0.34790983  1
  H+  H62  1  0.89412759  0.00332144  0.68626346  1
  H+  H63  1  0.89856821  0.87154345  0.17409030  1
  H+  H64  1  0.13099129  1.01646822  0.35426723  1
  H+  H65  1  0.54496613  0.51877782  0.21440026  1
  H+  H66  1  0.51023072  0.14116108  0.67459076  1
  H+  H67  1  0.37600010  0.87518520  0.67384774  1
  H+  H68  1  0.13682106  0.78664576  0.32955301  1
  H+  H69  1  0.49687876  0.65908315  0.48523776  1
  H+  H70  1  0.78316496  0.64253244  0.34315993  1
  H+  H71  1  0.62978258  0.11243154  0.32631153  1
  H+  H72  1  0.39128258  0.02169411  0.84112057  1
  H+  H73  1  0.90896747  0.63304565  0.50808861  1
  H+  H74  1  0.13651352  0.87355534  -0.00598243  1
  H+  H75  1  0.38201289  0.61263775  0.55403145  1
  H+  H76  1  0.23136536  0.61374163  0.66039528  1
  H+  H77  1  0.35480022  0.20611250  0.67659539  1
  H+  H78  1  0.60713502  0.79697733  0.51425977  1
  H+  H79  1  0.34453151  0.91531036  0.76888877  1
  H+  H80  1  0.23743138  0.86114845  0.84252024  1
  H+  H81  1  0.88657704  0.26972381  0.99249837  1
  H+  H82  1  0.67515089  0.84014135  0.23074322  1
  H+  H83  1  0.27416642  0.37707039  0.68025269  1
  H+  H84  1  0.87452612  0.36557306  0.49101500  1
  H+  H85  1  0.62234974  0.19117305  0.52543698  1
  H+  H86  1  0.76890416  0.89687005  0.33532838  1
  H+  H87  1  0.86418997  0.14070993  0.82282205  1
  H+  H88  1  0.10408594  0.13250633  0.82522552  1
  H+  H89  1  0.11103822  0.13338408  -0.00477536  1
  H+  H90  1  0.22118296  0.61296806  0.49952998  1
  H+  H91  1  0.12298843  0.60731937  0.17684608  1
  H+  H92  1  0.37898495  0.01791944  0.50507324  1
  H+  H93  1  0.13747658  0.76248239  0.16328137  1
  H+  H94  1  0.77348173  0.37768114  0.16264108  1
  H+  H95  1  0.03208314  0.64241018  0.67225238  1
  H+  H96  1  0.36648846  0.97662998  0.15785267  1
  H+  H97  1  0.62923594  0.25104756  0.16607346  1
  H+  H98  1  0.60442153  0.13238019  0.15618634  1
  H+  H99  1  0.36344137  0.22113565  0.33663316  1
  H+  H100  1  1.01262480  0.13358568  0.49324085  1
  H+  H101  1  0.38185157  0.34683141  0.67077907  1
  H+  H102  1  0.48082403  0.35493050  0.16472459  1
  H+  H103  1  0.88540425  0.72750022  0.81984890  1
  H+  H104  1  0.89497052  1.02903858  0.16829110  1
  H+  H105  1  0.35763508  0.71869918  0.48834632  1
  H+  H106  1  0.64245318  0.77980308  0.84237930  1
  H+  H107  1  0.11162861  0.88429531  0.34520173  1
  H+  H108  1  0.61618964  0.37064904  0.33175206  1
  H+  H109  1  0.76989730  0.65566075  1.01990370  1
  H+  H110  1  0.51756362  0.65294794  0.00595007  1
  H+  H111  1  0.26840110  0.13334731  0.48216857  1
  H+  H112  1  0.12931758  0.52438830  0.98938777  1
  H+  H113  1  0.48081028  0.11354998  0.99830231  1
  H+  H114  1  0.27737252  0.89171926  0.00600719  1
  H+  H115  1  0.73393497  0.69903835  0.27936767  1
  H+  H116  1  0.14923491  0.86265458  0.17848581  1
  H+  H117  1  0.80168310  0.63762829  0.50373975  1
  H+  H118  1  0.65147296  0.26580274  0.84383809  1
  H+  H119  1  0.03032498  0.15782221  0.66888608  1
  H+  H120  1  0.65398240  0.63500387  0.50996738  1
  H+  H121  1  0.10847173  0.38715127  0.76176191  1
  H+  H122  1  0.11862002  0.51678654  0.17376636  1
  H+  H123  1  1.01117674  0.86439118  0.67449674  1
  H+  H124  1  0.39058987  0.61588998  0.15492068  1
  H+  H125  1  0.58052419  0.98974133  0.49439365  1
  H+  H126  1  0.72958179  0.36048699  0.31903057  1
  H+  H127  1  0.20472618  0.35352354  0.96007966  1
  H+  H128  1  0.52610136  0.13542997  0.82955525  1
  H+  H129  1  0.90157007  0.52998804  0.66134359  1
  H+  H130  1  0.11077482  0.36551815  0.33590230  1
  H+  H131  1  0.98475850  0.94694497  0.88141181  1
  H+  H132  1  0.76696448  0.15251565  0.67150319  1
  H+  H133  1  0.52373891  0.13327061  0.33347333  1
  H+  H134  1  0.16511763  0.08148910  0.89333762  1
  H+  H135  1  0.73254782  0.86750990  0.84244077  1
  H+  H136  1  0.89140125  0.77295834  0.99300052  1
  H+  H137  1  0.44591913  0.34678230  0.51637500  1
  H+  H138  1  0.12322204  0.26592426  0.97948962  1
  H+  H139  1  0.62395002  0.87026619  0.67489333  1
  H+  H140  1  0.63386726  0.65380920  0.83549042  1
  H+  H141  1  0.63216077  0.04482960  0.66910623  1
  H+  H142  1  0.13892202  0.27360858  0.66954364  1
  H+  H143  1  0.98286367  0.36680612  0.69041626  1
  H+  H144  1  0.57347031  0.50061036  0.78878428  1
  H+  H145  1  0.39247999  0.10693025  0.16554780  1
  H+  H146  1  0.47769126  0.60407806  0.67517211  1
  H+  H147  1  0.22511192  0.87500997  0.33028886  1
  H+  H148  1  0.66382875  0.60610208  0.26073460  1
  H+  H149  1  0.15000749  0.32697916  0.57693733  1
  H+  H150  1  0.55696390  0.48960046  0.82090440  1
  H+  H151  1  0.65392934  0.31875564  0.58332016  1
  H+  H152  1  0.11610606  0.73535579  0.00921488  1
  H+  H153  1  0.08753808  0.68251115  0.39929236  1
  H+  H154  1  0.40142276  0.87404410  0.98881372  1
  H+  H155  1  -0.02811227  0.10878008  0.83346407  1
  H+  H156  1  0.37074482  0.72419898  0.15165245  1
  H+  H157  1  0.72299244  0.10661202  0.17464219  1
  H+  H158  1  0.38991932  0.53877450  0.98750242  1
  H+  H159  1  0.63769120  0.78239835  0.99257430  1
  H+  H160  1  0.61089409  0.21951989  0.01326102  1
  H+  H161  1  0.24131214  0.86220056  0.16383269  1
  H+  H162  1  0.36335081  0.25358543  0.51183441  1
  H+  H163  1  0.60600979  0.15877602  0.67470342  1
  H+  H164  1  0.46353738  0.84572746  0.50950356  1
  H+  H165  1  0.10692838  0.47726482  0.49585580  1
  H+  H166  1  0.58856698  0.93647862  0.75051833  1
  H+  H167  1  0.89804374  0.28049895  0.83717834  1
  H+  H168  1  0.26623105  0.40845298  0.82784551  1
  H+  H169  1  0.11323707  0.47836760  0.34125120  1
  H+  H170  1  0.21746491  0.10191532  0.98566069  1
  H+  H171  1  0.38617097  0.77452299  0.32162661  1
  H+  H172  1  0.70105463  0.84818681  0.67296806  1
  H+  H173  1  0.08621423  0.91501671  0.44306974  1
  H+  H174  1  0.63149856  0.78640358  0.32440405  1
  H+  H175  1  0.86378931  0.38028714  0.00843456  1
  H+  H176  1  0.59226445  0.28447324  0.67384300  1
  H+  H177  1  0.33992318  0.37424170  0.30085690  1
  H+  H178  1  0.61153119  0.63562980  0.67668005  1
  H+  H179  1  0.10831193  0.64345973  0.00473046  1
  H+  H180  1  -0.01491871  0.62190951  0.83492618  1
  H+  H181  1  0.24191811  0.36886026  0.15558319  1
  H+  H182  1  0.12140434  0.64654925  0.49290682  1
  H+  H183  1  0.52837415  0.91662188  0.68854398  1
  H+  H184  1  0.83162756  0.49460163  0.99584987  1
  H+  H185  1  0.48644253  0.11276383  0.16404776  1
  H+  H186  1  0.21555187  0.61416354  0.98157195  1
  H+  H187  1  0.02436568  0.64628318  0.15839019  1
  H+  H188  1  1.02913916  0.64856656  0.33981510  1
  H+  H189  1  0.78135815  0.88640944  0.00508561  1
  H+  H190  1  0.36776802  -0.02070047  0.33441317  1
  H+  H191  1  0.62235002  -0.01358140  0.98897730  1
  H+  H192  1  0.86562807  0.38825254  0.33543637  1
  H+  H193  1  0.61269703  0.22082758  0.33431650  1
  H+  H194  1  0.58940672  0.67294160  0.48365064  1
  H+  H195  1  0.78279571  0.39071659  0.83051276  1
  H+  H196  1  0.52246070  0.64626987  0.15564323  1
  H+  H197  1  0.87333032  0.72845232  0.16648567  1
  H+  H198  1  0.77752095  0.43599824  0.46755335  1
  H+  H199  1  0.62411445  0.88955169  0.98920574  1
  H+  H200  1  0.82675895  0.17326708  0.73056076  1
  H+  H201  1  0.76016385  0.64102190  0.85178052  1
  H+  H202  1  0.22174051  0.10290253  0.34758494  1
  H+  H203  1  0.35303264  0.64307777  0.99451811  1
  H+  H204  1  0.39118263  0.01262255  0.66096218  1
  H+  H205  1  0.11844937  0.63722470  0.67329108  1
  H+  H206  1  0.86308899  0.22365748  0.16014972  1
  H+  H207  1  0.60312972  0.72259380  0.67838924  1
  H+  H208  1  0.77763539  0.14435481  0.82788932  1
  H+  H209  1  0.44938436  0.47557415  0.02719367  1
  H+  H210  1  0.15052657  0.56550020  0.26952813  1
  H+  H211  1  0.36322875  0.88856392  0.33677093  1
  H+  H212  1  0.60111032  0.91348033  0.49847528  1
  H+  H213  1  0.78162666  0.89056298  0.15980870  1
  H+  H214  1  0.11580269  0.72579476  0.82958520  1
  H+  H215  1  0.89275667  0.28835280  0.67159258  1
  H+  H216  1  0.81752737  0.63006415  0.75099577  1
  H+  H217  1  0.52583226  0.88863250  -0.01156714  1
  H+  H218  1  0.85686370  0.22453826  0.48724261  1
  H+  H219  1  0.13867387  0.10612558  0.16174037  1
  H+  H220  1  0.52716162  0.87832084  0.16433427  1
  H+  H221  1  0.89277800  0.53073665  0.83828972  1
  H+  H222  1  0.69704279  0.50337249  0.51865587  1
  H+  H223  1  0.89044392  0.61284001  0.17196978  1
  H+  H224  1  0.47024091  0.34914838  0.98010235  1
  H+  H225  1  0.34748962  0.38795397  0.53112769  1
  H+  H226  1  0.61085442  0.65771871  0.33417559  1
  H+  H227  1  0.14266870  1.02421029  0.83271455  1
  H+  H228  1  0.77367521  0.13437131  0.00409267  1
  H+  H229  1  0.10774294  0.46848957  0.74331758  1
  H+  H230  1  0.35343952  0.63015192  0.67670356  1
  H+  H231  1  0.57734075  0.92544297  0.39865606  1
  H+  H232  1  1.03572408  0.65104262  0.49638188  1
  H+  H233  1  0.90965605  0.07809150  0.89197029  1
  H+  H234  1  0.70886929  0.58872889  0.67452082  1
  H+  H235  1  0.11017421  0.13943557  0.67713256  1
  H+  H236  1  0.36852932  0.26129567  0.83378737  1
  H+  H237  1  0.37334157  0.48037315  0.15155009  1
  H+  H238  1  0.12579178  0.32388226  0.85161180  1
  H+  H239  1  0.97615834  0.35772635  0.17128217  1
  H+  H240  1  0.38804785  0.85874007  0.16989382  1
  H+  H241  1  0.93414213  0.85585098  0.91178870  1
  H+  H242  1  0.37653807  0.89125864  0.82950666  1
  H+  H243  1  0.65355968  0.36242303  0.48962061  1
  H+  H244  1  0.87174249  0.89533136  0.83322436  1
  H+  H245  1  0.35974911  0.72656944  0.66806016  1
  H+  H246  1  0.14918102  0.78344481  0.50718835  1
  H+  H247  1  0.86175587  0.13273060  1.00351679  1
  H+  H248  1  0.37415035  0.65324256  0.82507142  1
  H+  H249  1  0.89224194  0.86260727  0.66533492  1
  H+  H250  1  0.04133742  0.89382606  0.83273156  1
  H+  H251  1  0.71979113  0.11249732  0.32572700  1
  H+  H252  1  0.65726124  0.66059272  0.53826053  1
  H+  H253  1  0.15282561  0.77241198  0.66079718  1
  H+  H254  1  0.35722050  0.13122365  0.49659451  1
  H+  H255  1  0.73450337  0.32767866  0.54850740  1
  H+  H256  1  0.47073825  0.35509386  0.32377206  1
  H+  H257  1  0.84744819  0.67615027  0.43873680  1
  H+  H258  1  0.88158902  0.40507436  0.67854816  1
  H+  H259  1  0.76680668  0.77838066  0.71629558  1
  H+  H260  1  0.89415228  0.61368340  0.66241917  1
  H+  H261  1  0.35458008  0.11678647  0.67454476  1
  H+  H262  1  0.88786916  0.35968804  0.17431462  1
  H+  H263  1  0.21916326  0.60141166  0.32389424  1
  H+  H264  1  0.35639746  0.73239182  -0.00425206  1
  H+  H265  1  0.66241060  0.07907675  0.23318844  1
  H+  H266  1  0.12295171  1.01909061  0.67104782  1
  H+  H267  1  0.62926880  0.62591906  1.00043462  1
  H+  H268  1  0.61001547  0.47920587  0.00288600  1
  H+  H269  1  0.98682068  0.86725318  0.99226093  1
  H+  H270  1  -0.01294921  0.86954536  0.18002716  1
  H+  H271  1  0.46587339  0.81720730  0.65228340  1
  H+  H272  1  0.64132026  0.86502772  0.17161820  1
  H+  H273  1  0.88469306  0.63140373  0.83428763  1
  H+  H274  1  0.39482710  0.36128710  0.16619849  1
  H+  H275  1  0.14207440  0.52423428  0.65424345  1
  H+  H276  1  0.54147346  0.45806530  0.48685672  1
  H+  H277  1  0.86762549  0.86206068  0.51712557  1
  H+  H278  1  0.55241471  0.44403966  0.51628216  1
  H+  H279  1  0.40505148  0.78932748  0.83735025  1
  H+  H280  1  0.38463098  0.39060302  -0.00399883  1
  H+  H281  1  0.48539149  0.61697924  0.84182717  1
  H+  H282  1  0.10593687  0.13579817  0.48156340  1
  H+  H283  1  0.16212011  0.09093883  0.42824813  1
  H+  H284  1  0.85952760  0.13946150  0.33052292  1
  H+  H285  1  0.77519194  0.84387275  0.45528376  1
  H+  H286  1  0.61410617  0.96845274  0.16575583  1
  H+  H287  1  0.56379298  0.36468771  0.76021989  1
  H+  H288  1  0.84013956  0.67161956  0.10729179  1
  H+  H289  1  0.67790610  0.60906073  0.94615199  1
  H+  H290  1  0.03020331  0.14270161  0.15213416  1
  H+  H291  1  0.67397426  0.83861122  0.93065515  1
  H+  H292  1  0.66707756  0.08715999  0.93016171  1
  H+  H293  1  0.29758107  0.42622658  0.41208362  1
  H+  H294  1  0.32716706  0.66750765  0.38746003  1
  H+  H295  1  0.84741087  0.43583334  0.73354271  1
  H+  H296  1  0.60173460  0.60076091  0.17475247  1
  H+  H297  1  0.69612698  0.55863567  0.57634593  1
  H+  H298  1  0.20882575  0.35103557  0.22034228  1
  H+  H299  1  0.41998958  0.08120182  0.25917521  1
  H+  H300  1  0.16912083  0.58715312  0.56315290  1
  H+  H301  1  0.63632671  0.40297501  0.42895227  1
  H+  H302  1  0.40813744  0.07160019  0.60111350  1
  H+  H303  1  0.06268050  0.17174848  0.41460214  1
  H+  H304  1  0.83040321  0.16436386  0.42899698  1
  H+  H305  1  0.92918104  0.85736345  0.59985178  1
  H+  H306  1  0.08559396  0.16718088  0.05493168  1
  H+  H307  1  0.83072378  0.93667854  0.39228143  1
  H+  H308  1  0.32865577  0.41742800  0.77432751  1
  H+  H309  1  0.66929260  0.55782150  0.85841614  1
  H+  H310  1  0.33881020  0.67894844  0.76775912  1
  H+  H311  1  0.08641613  0.66957583  0.76883535  1
  H+  H312  1  0.41448670  0.58589598  0.21761318  1
  H+  H313  1  0.64257062  0.09523627  0.60653468  1
  H+  H314  1  0.15219439  0.54574229  0.89517273  1
  H+  H315  1  0.42382352  0.08407348  0.93656872  1
  H+  H316  1  0.57821203  0.67990843  0.06618100  1
  H+  H317  1  0.61742016  0.73284198  0.16084556  1
  H+  H318  1  0.35354615  0.42238371  0.09227811  1
  H+  H319  1  0.42972698  0.84550926  0.92616781  1
  H+  H320  1  0.91523320  0.83476745  0.26937069  1
  H+  H321  1  0.34362722  0.16598888  0.39754141  1
  H+  H322  1  0.36774855  0.97942727  0.00616395  1
  H+  H323  1  0.03105703  0.79753268  0.70882492  1
  H+  H324  1  0.40595500  0.31976399  0.92234689  1
  H+  H325  1  0.07479251  0.16569213  0.76834536  1
  H+  H326  1  0.60765742  0.46513474  0.15642852  1
  H+  H327  1  0.33608074  0.91691940  0.09737338  1
  H+  H328  1  0.34388431  0.43745435  0.41114505  1
  H+  H329  1  0.91547622  0.33091988  0.93358382  1
  H+  H330  1  0.92410987  0.09145910  0.25897839  1
  H+  H331  1  0.21603699  0.10011026  0.67147177  1
  H+  H332  1  0.02022393  0.38789298  0.00471405  1
  H+  H333  1  0.88105413  0.11981467  0.49655834  1
  H+  H334  1  0.41462315  0.82864534  0.23005355  1
  H+  H335  1  0.56368633  0.67979621  0.38837573  1
  H+  H336  1  0.06504771  0.94222056  0.04808905  1
  H+  H337  1  0.59375723  0.66985169  0.77453747  1
  H+  H338  1  0.83826573  0.42593275  0.39229623  1
  H+  H339  1  0.63428549  0.10876680  -0.00563968  1
  H+  H340  1  0.87447479  0.39775321  0.82867787  1
  H+  H341  1  0.41886390  0.59695335  0.92814000  1
  H+  H342  1  0.83667157  0.62705998  0.01067890  1
  H+  H343  1  0.67145454  0.33136695  0.93622643  1
  H+  H344  1  0.39203800  0.53037808  0.84041132  1
  H+  H345  1  0.58031591  0.16103329  0.07585043  1
  H+  H346  1  0.80883249  0.87092069  0.74526797  1
  H+  H347  1  0.17080951  0.84131294  0.93799292  1
  H+  H348  1  0.33667322  0.66997730  0.09001375  1
  H+  H349  1  0.33096806  0.15408904  0.76806047  1
  H+  H350  1  0.34011812  0.92777091  0.43193137  1
  H+  H351  1  0.08558236  0.90174272  0.76850289  1
  H+  H352  1  0.18404678  0.83971414  0.56773563  1
  H+  H353  1  0.10511848  0.31167273  0.27501151  1
  H+  H354  1  0.83454339  0.40703318  0.07061312  1
  H+  H355  1  0.08462667  0.67483024  0.09688530  1
  H+  H356  1  0.93054613  0.12267901  0.59159441  1
  H+  H357  1  0.84142048  0.91824606  0.10053082  1
  H+  H358  1  0.10127042  0.90766211  0.11426153  1
  H+  H359  1  0.08120074  0.41207257  0.09618913  1
  H+  H360  1  0.39748668  0.31145088  0.60773741  1
  H+  H361  1  0.51047852  0.35415522  0.66373194  1
  H+  H362  1  0.92279359  0.58341745  0.22992342  1
  H+  H363  1  0.64268463  0.11598237  0.83846868  1
  H+  H364  1  0.63863888  0.34643900  0.16807219  1
  H+  H365  1  0.37025925  0.35302163  0.83708856  1
  H+  H366  1  0.64429728  0.84445289  0.57844605  1
  H+  H367  1  0.93053835  0.59447908  0.56688611  1
  H+  H368  1  0.42655080  0.56511281  0.61456159  1
  H+  H369  1  0.61991958  0.50702461  0.66206940  1
  H+  H370  1  0.41994965  0.32548884  0.26096914  1
  H+  H371  1  0.66905640  0.32367876  0.25900024  1
  H+  H372  1  0.86946810  0.88349412  0.00509617  1
  H+  H373  1  0.50551108  0.34350511  0.81929786  1
  H+  H374  1  0.41122173  0.80057834  0.57186499  1
  H+  H375  1  0.33192795  0.16027639  0.09447145  1
  H+  H376  1  0.13689640  0.03005921  0.48606088  1
  H+  H377  1  0.57975078  0.16985397  0.76830288  1
  H+  H378  1  0.92005385  0.33482286  0.26694782  1
  H+  H379  1  -0.01248303  0.36824800  0.85093679  1
  H+  H380  1  0.35901058  0.12771187  0.00229807  1
  H+  H381  1  0.86147547  0.97733930  0.82198212  1
  H+  H382  1  0.58655445  0.41291816  0.09392922  1
  H+  H383  1  0.07830445  0.41716608  0.40448337  1
  O2-  O384  1  0.08942404  0.16940888  0.13476880  1
  O2-  O385  1  0.07278181  0.16850758  0.47587874  1
  O2-  O386  1  0.06973776  0.15956843  0.81358670  1
  O2-  O387  1  0.07876278  0.40909748  0.14181699  1
  O2-  O388  1  0.07547240  0.41675876  0.48044782  1
  O2-  O389  1  0.11242093  0.43093090  0.87070254  1
  O2-  O390  1  0.08564430  0.67836251  0.14358411  1
  O2-  O391  1  0.09571568  0.68197844  0.48003722  1
  O2-  O392  1  0.07935514  0.66657247  0.81365175  1
  O2-  O393  1  0.09851542  0.91429487  0.15814836  1
  O2-  O394  1  0.09821719  0.93021933  0.48691500  1
  O2-  O395  1  0.09823538  0.91701884  0.81261043  1
  O2-  O396  1  0.33379266  0.15971276  0.13988473  1
  O2-  O397  1  0.33315704  0.16610686  0.47849784  1
  O2-  O398  1  0.33236692  0.15966540  0.81361040  1
  O2-  O399  1  0.34621213  0.41890045  0.13724427  1
  O2-  O400  1  0.32426814  0.42697398  0.53722748  1
  O2-  O401  1  0.32684804  0.42361846  0.81946134  1
  O2-  O402  1  0.34744338  0.66592845  0.13369807  1
  O2-  O403  1  0.31817543  0.66243380  0.46424566  1
  O2-  O404  1  0.35022625  0.68945966  0.81200168  1
  O2-  O405  1  0.33268274  0.91461088  0.14301575  1
  O2-  O406  1  0.34223721  0.92972501  0.47721554  1
  O2-  O407  1  0.34185451  0.91766158  0.81425700  1
  O2-  O408  1  0.57638839  0.16401643  0.14115096  1
  O2-  O409  1  0.58220591  0.13306028  0.50875889  1
  O2-  O410  1  0.58588816  0.16466395  0.81299737  1
  O2-  O411  1  0.58526807  0.40716385  0.13912918  1
  O2-  O412  1  0.67155507  0.41586385  0.46628914  1
  O2-  O413  1  0.56025258  0.35079144  0.80378467  1
  O2-  O414  1  0.58487129  0.67321928  0.14294625  1
  O2-  O415  1  0.55492550  0.69668062  0.46718588  1
  O2-  O416  1  0.59542266  0.67458761  0.81975263  1
  O2-  O417  1  0.58851354  0.90757634  0.15196970  1
  O2-  O418  1  0.56513069  0.93176144  0.47643471  1
  O2-  O419  1  0.58799647  0.93465146  0.81274655  1
  O2-  O420  1  0.83427329  0.16279094  0.14556890  1
  O2-  O421  1  0.83434067  0.16364526  0.47393486  1
  O2-  O422  1  0.83764912  0.17593809  0.81111004  1
  O2-  O423  1  0.83493709  0.41005944  0.14886771  1
  O2-  O424  1  0.83531390  0.44138519  0.46900094  1
  O2-  O425  1  0.84297926  0.42733123  0.81542002  1
  O2-  O426  1  0.84263402  0.66812826  0.15237787  1
  O2-  O427  1  0.85538434  0.68345320  0.48351502  1
  O2-  O428  1  0.84646132  0.66578438  0.81846625  1
  O2-  O429  1  0.84300934  0.92142811  0.14595048  1
  O2-  O430  1  0.79445928  0.89808030  0.47650422  1
  O2-  O431  1  0.83363543  0.91353089  0.81304904  1
  O2-  O432  1  0.16726502  0.07542379  0.17793921  1
  O2-  O433  1  0.16307350  0.09391244  0.47504257  1
  O2-  O434  1  0.16719290  0.08445441  0.84744227  1
  O2-  O435  1  0.18605108  0.34044895  0.17872956  1
  O2-  O436  1  0.15118516  0.33135332  0.53145852  1
  O2-  O437  1  0.15486066  0.37658757  0.82679354  1
  O2-  O438  1  0.14428144  0.57193471  0.19581804  1
  O2-  O439  1  0.16238242  0.58288750  0.51808467  1
  O2-  O440  1  0.15274335  0.51623538  0.85547254  1
  O2-  O441  1  0.17854050  0.82716083  0.18044976  1
  O2-  O442  1  0.18156582  0.84392062  0.52279481  1
  O2-  O443  1  0.17724168  0.83222431  0.85861333  1
  O2-  O444  1  0.42241429  0.07671481  0.18037931  1
  O2-  O445  1  0.40640415  0.07838928  0.52535678  1
  O2-  O446  1  0.42096371  0.08189538  0.85760713  1
  O2-  O447  1  0.42136253  0.32787245  0.18201189  1
  O2-  O448  1  0.38771807  0.31270413  0.53233503  1
  O2-  O449  1  0.40068093  0.32207126  0.84957909  1
  O2-  O450  1  0.42112054  0.58474336  0.17253866  1
  O2-  O451  1  0.40671682  0.58892941  0.52592406  1
  O2-  O452  1  0.42469145  0.59116632  0.85525095  1
  O2-  O453  1  0.41625017  0.82674476  0.18447377  1
  O2-  O454  1  0.41987717  0.79064911  0.52755390  1
  O2-  O455  1  0.43402472  0.84920728  0.85515075  1
  O2-  O456  1  0.66220756  0.07503930  0.18773626  1
  O2-  O457  1  0.61073024  0.07825395  0.53421218  1
  O2-  O458  1  0.67357157  0.08753785  0.85561192  1
  O2-  O459  1  0.66678657  0.31512492  0.18346051  1
  O2-  O460  1  0.67216887  0.30149248  0.54599148  1
  O2-  O461  1  0.67910728  0.32684057  0.85818546  1
  O2-  O462  1  0.60363036  0.55378793  0.19950039  1
  O2-  O463  1  0.73144390  0.55532693  0.54345086  1
  O2-  O464  1  0.69940769  0.61872319  0.86879266  1
  O2-  O465  1  0.67528252  0.83569678  0.18573655  1
  O2-  O466  1  0.64757630  0.85282336  0.53318917  1
  O2-  O467  1  0.67253483  0.83983050  0.85842521  1
  O2-  O468  1  0.92617032  0.09008681  0.18271714  1
  O2-  O469  1  0.91356253  0.08973203  0.51388147  1
  O2-  O470  1  0.90880725  0.07710918  0.84665806  1
  O2-  O471  1  0.91696477  0.32774701  0.18907237  1
  O2-  O472  1  0.89780019  0.32980897  0.50600103  1
  O2-  O473  1  0.92460440  0.33942108  0.85561522  1
  O2-  O474  1  0.92178348  0.58163391  0.18431352  1
  O2-  O475  1  0.93393393  0.59683366  0.52148322  1
  O2-  O476  1  0.92276869  0.59291478  0.85032862  1
  O2-  O477  1  0.92596116  0.84060205  0.19303918  1
  O2-  O478  1  0.90399105  0.83956953  0.53141469  1
  O2-  O479  1  0.95189218  0.88655142  0.86949671  1
  O2-  O480  1  0.16052494  0.08065423  0.35725704  1
  O2-  O481  1  0.15557341  0.07891491  0.65861211  1
  O2-  O482  1  0.15871737  0.07688177  0.96802231  1
  O2-  O483  1  0.13173271  0.32430540  0.31517354  1
  O2-  O484  1  0.17115587  0.33534236  0.65372546  1
  O2-  O485  1  0.14241827  0.32403911  0.96179676  1
  O2-  O486  1  0.15795301  0.56085151  0.31445837  1
  O2-  O487  1  0.16963052  0.58458005  0.64267004  1
  O2-  O488  1  0.15480709  0.58024853  0.96711905  1
  O2-  O489  1  0.16473804  0.84844767  0.31622292  1
  O2-  O490  1  0.18551747  0.83395701  0.64703736  1
  O2-  O491  1  0.17038787  0.84481077  0.98332072  1
  O2-  O492  1  0.42001668  0.08063524  0.30470916  1
  O2-  O493  1  0.41153690  0.07295404  0.64693989  1
  O2-  O494  1  0.42016467  0.08351703  0.98198148  1
  O2-  O495  1  0.41239517  0.32726382  0.30591390  1
  O2-  O496  1  0.40831488  0.31405842  0.65268994  1
  O2-  O497  1  0.40861763  0.31999279  0.96860201  1
  O2-  O498  1  0.40389709  0.57919432  0.29554258  1
  O2-  O499  1  0.41815026  0.56919197  0.65820934  1
  O2-  O500  1  0.41542061  0.59902993  0.97417872  1
  O2-  O501  1  0.41625578  0.83549237  0.30714430  1
  O2-  O502  1  0.40855265  0.80870080  0.64586511  1
  O2-  O503  1  0.43183222  0.84438040  0.97293751  1
  O2-  O504  1  0.65949348  0.07998958  0.31084386  1
  O2-  O505  1  0.65684833  0.10369736  0.65145504  1
  O2-  O506  1  0.66529250  0.08030188  0.97617327  1
  O2-  O507  1  0.66864955  0.32958468  0.30472789  1
  O2-  O508  1  0.61508123  0.34147079  0.65189374  1
  O2-  O509  1  0.66646126  0.33678128  0.98129028  1
  O2-  O510  1  0.69368762  0.64333027  0.29703881  1
  O2-  O511  1  0.65286486  0.56924844  0.65309132  1
  O2-  O512  1  0.66150502  0.59561239  0.98974256  1
  O2-  O513  1  0.66855151  0.84755204  0.31247661  1
  O2-  O514  1  0.64343337  0.83127482  0.65623439  1
  O2-  O515  1  0.67335926  0.84270272  0.97693853  1
  O2-  O516  1  0.91865294  0.09027710  0.30473872  1
  O2-  O517  1  0.94879398  0.14918588  0.63218555  1
  O2-  O518  1  0.91347922  0.08016563  0.97354201  1
  O2-  O519  1  0.91576681  0.33435259  0.31239185  1
  O2-  O520  1  0.93119029  0.35132705  0.66630858  1
  O2-  O521  1  0.91593405  0.33099933  0.97906909  1
  O2-  O522  1  0.92136832  0.58456599  0.30757575  1
  O2-  O523  1  0.93070939  0.59239517  0.64527036  1
  O2-  O524  1  0.81126113  0.53260584  0.97866692  1
  O2-  O525  1  0.90789039  0.82876839  0.31471811  1
  O2-  O526  1  0.94524900  0.87487604  0.64408376  1
  O2-  O527  1  0.92061553  0.83354133  0.97773881  1
  O2-  O528  1  0.08148032  0.16496807  0.00961813  1
  O2-  O529  1  0.05958653  0.17584426  0.36516081  1
  O2-  O530  1  0.08624116  0.17627304  0.69107280  1
  O2-  O531  1  0.08121953  0.41872213  0.01906607  1
  O2-  O532  1  0.07689273  0.41463284  0.35875458  1
  O2-  O533  1  0.09395728  0.41286455  0.72638930  1
  O2-  O534  1  0.08503699  0.67600008  0.02584409  1
  O2-  O535  1  0.08806426  0.68739364  0.35441645  1
  O2-  O536  1  0.09260787  0.67172122  0.68815691  1
  O2-  O537  1  0.07446139  0.92112806  0.00981013  1
  O2-  O538  1  0.07692727  0.90975564  0.36444279  1
  O2-  O539  1  0.05878227  0.85830023  0.69852095  1
  O2-  O540  1  0.32412795  0.15442555  0.01555261  1
  O2-  O541  1  0.33952981  0.16167700  0.35235796  1
  O2-  O542  1  0.32409802  0.14603377  0.69203049  1
  O2-  O543  1  0.38820961  0.44203839  0.01796269  1
  O2-  O544  1  0.30872632  0.40459597  0.28933851  1
  O2-  O545  1  0.33391933  0.40239225  0.69713845  1
  O2-  O546  1  0.32100339  0.67177773  0.00901992  1
  O2-  O547  1  0.32921806  0.66916587  0.34200837  1
  O2-  O548  1  0.32236429  0.66054624  0.68680769  1
  O2-  O549  1  0.33849880  0.91796088  0.01998727  1
  O2-  O550  1  0.33560032  0.92066210  0.35287464  1
  O2-  O551  1  0.35101536  0.91106894  0.68950719  1
  O2-  O552  1  0.58227662  0.15899964  0.02661671  1
  O2-  O553  1  0.58350173  0.16115337  0.34961490  1
  O2-  O554  1  0.56948151  0.18251130  0.69036007  1
  O2-  O555  1  0.57900689  0.41699907  0.01377144  1
  O2-  O556  1  0.58512435  0.39712949  0.35451924  1
  O2-  O557  1  0.57322763  0.38626540  0.67814856  1
  O2-  O558  1  0.57846505  0.68135181  0.02052106  1
  O2-  O559  1  0.56833905  0.67597599  0.34352121  1
  O2-  O560  1  0.58193001  0.66417935  0.69605848  1
  O2-  O561  1  0.59081600  0.92108273  0.00029483  1
  O2-  O562  1  0.58160975  0.92102276  0.35352691  1
  O2-  O563  1  0.58822477  0.93709894  0.69961692  1
  O2-  O564  1  0.83364038  0.16459585  0.01986341  1
  O2-  O565  1  0.82813652  0.16683702  0.34792353  1
  O2-  O566  1  0.82762300  0.17845134  0.68549350  1
  O2-  O567  1  0.82951364  0.40542105  0.02531730  1
  O2-  O568  1  0.83444887  0.41941859  0.34701138  1
  O2-  O569  1  0.85187308  0.43874952  0.68859891  1
  O2-  O570  1  0.83161473  0.67622925  0.02782848  1
  O2-  O571  1  0.84219081  0.66840545  0.35886634  1
  O2-  O572  1  0.79793872  0.60030768  0.70983471  1
  O2-  O573  1  0.84130828  0.91628408  0.02065673  1
  O2-  O574  1  0.83150036  0.92824651  0.34819615  1
  O2-  O575  1  0.78915780  0.83833291  0.70553515  1
