# generated using pymatgen
data_H2O
_symmetry_space_group_name_H-M   'P 1'
_cell_length_a   17.96600322
_cell_length_b   17.96303385
_cell_length_c   21.98358048
_cell_angle_alpha   90.11468386
_cell_angle_beta   89.92997926
_cell_angle_gamma   119.96885498
_symmetry_Int_Tables_number   1
_chemical_formula_structural   H2O
_chemical_formula_sum   'H384 O192'
_cell_volume   6146.04235873
_cell_formula_units_Z   192
loop_
 _symmetry_equiv_pos_site_id
 _symmetry_equiv_pos_as_xyz
  1  'x, y, z'
loop_
 _atom_type_symbol
 _atom_type_oxidation_number
  H+  1.0
  O2-  -2.0
loop_
 _atom_site_type_symbol
 _atom_site_label
 _atom_site_symmetry_multiplicity
 _atom_site_fract_x
 _atom_site_fract_y
 _atom_site_fract_z
 _atom_site_occupancy
  H+  H0  1  0.77529850  0.36507770  0.84063711  1
  H+  H1  1  0.30841032  0.42992785  0.80217204  1
  H+  H2  1  0.13248153  0.74954536  0.65323162  1
  H+  H3  1  0.05657880  0.64035289  0.71519591  1
  H+  H4  1  0.17024381  0.57430889  0.59888035  1
  H+  H5  1  0.91355511  0.09385946  0.90893768  1
  H+  H6  1  0.84688845  0.56530828  0.83925875  1
  H+  H7  1  0.40258078  0.86931892  0.50348993  1
  H+  H8  1  0.51992854  0.03245045  0.77773892  1
  H+  H9  1  0.65613853  0.38093998  0.33707462  1
  H+  H10  1  0.55900923  0.64710736  0.82519674  1
  H+  H11  1  0.72513659  0.12347949  0.66185361  1
  H+  H12  1  0.63319652  0.43064939  0.65050679  1
  H+  H13  1  0.12720426  0.35871609  0.17470369  1
  H+  H14  1  0.19243431  0.84964717  0.04661115  1
  H+  H15  1  0.90540551  0.50566181  0.19632453  1
  H+  H16  1  0.68530138  0.54921924  0.75662448  1
  H+  H17  1  0.36345374  0.63658918  0.49401115  1
  H+  H18  1  0.18074693  1.04100848  0.16189098  1
  H+  H19  1  0.82833357  0.99917284  0.48496338  1
  H+  H20  1  0.10020725  0.22648223  0.01211078  1
  H+  H21  1  0.83432491  0.17584554  0.73332729  1
  H+  H22  1  0.59986160  0.66844625  0.72747877  1
  H+  H23  1  -0.03748618  0.64964726  0.33913171  1
  H+  H24  1  0.86947740  0.48876444  0.84384113  1
  H+  H25  1  0.34216932  0.41882143  0.38809977  1
  H+  H26  1  0.12785094  0.89510593  0.81416425  1
  H+  H27  1  0.72917643  0.60945044  0.99174021  1
  H+  H28  1  0.11080341  0.61411834  0.31482542  1
  H+  H29  1  0.39428515  0.38363464  0.30698563  1
  H+  H30  1  0.64223620  0.76942130  0.65733707  1
  H+  H31  1  0.63277261  0.09839118  0.83576452  1
  H+  H32  1  0.10412571  0.35645636  0.34288920  1
  H+  H33  1  0.45478443  0.08754601  0.82948597  1
  H+  H34  1  0.93501457  0.34100544  1.04650531  1
  H+  H35  1  0.87962611  0.11517098  0.99467962  1
  H+  H36  1  0.30527855  0.11849023  0.13332123  1
  H+  H37  1  0.63003649  0.78222721  0.31212733  1
  H+  H38  1  0.52745807  0.88786104  0.66823797  1
  H+  H39  1  0.39564872  0.28077706  0.97947873  1
  H+  H40  1  0.16878594  0.97223937  0.76793459  1
  H+  H41  1  0.65907599  0.68125180  0.82187681  1
  H+  H42  1  0.39856986  0.77293394  0.66132522  1
  H+  H43  1  0.10958527  0.71394589  0.49581809  1
  H+  H44  1  0.23614551  0.36245729  0.65544697  1
  H+  H45  1  0.63703096  0.60280733  0.65780057  1
  H+  H46  1  0.98730073  0.35502163  0.51524880  1
  H+  H47  1  0.27549347  0.73666913  0.05967126  1
  H+  H48  1  0.91351306  0.64537302  0.15096198  1
  H+  H49  1  0.84504921  0.73240867  0.65991735  1
  H+  H50  1  0.52639972  0.18047043  0.49932437  1
  H+  H51  1  0.13989635  0.50579068  0.00617217  1
  H+  H52  1  0.09762397  0.13566637  0.83541411  1
  H+  H53  1  0.87168577  0.90278947  0.82111695  1
  H+  H54  1  0.36532817  0.72643035  0.49483892  1
  H+  H55  1  0.66972387  0.55291097  0.78766203  1
  H+  H56  1  0.28758894  0.90385849  0.34005562  1
  H+  H57  1  0.46584462  0.33975970  0.49692431  1
  H+  H58  1  0.35454923  0.46440934  0.16016049  1
  H+  H59  1  0.61406496  0.89862746  0.32786756  1
  H+  H60  1  0.93367588  0.67772467  0.17617425  1
  H+  H61  1  0.25868107  0.57452302  0.32359882  1
  H+  H62  1  0.85038151  0.47451718  1.01119330  1
  H+  H63  1  0.36580951  0.01123981  0.85184765  1
  H+  H64  1  0.31002612  0.91053974  0.02246933  1
  H+  H65  1  0.37357855  0.39142826  0.48430475  1
  H+  H66  1  0.21676836  0.92925846  0.16670732  1
  H+  H67  1  0.56823895  0.38231716  0.15383075  1
  H+  H68  1  0.47355834  0.61001505  0.16732723  1
  H+  H69  1  0.61258261  0.88782528  0.82156265  1
  H+  H70  1  0.89394620  0.27302471  0.51289183  1
  H+  H71  1  0.34203193  0.70759910  0.83316842  1
  H+  H72  1  0.32225752  0.91107284  0.16309301  1
  H+  H73  1  0.62822277  0.27277660  0.00378268  1
  H+  H74  1  0.62687284  0.26956560  0.84831627  1
  H+  H75  1  0.11344873  0.99861829  0.01032832  1
  H+  H76  1  0.23264249  0.60585142  0.17746680  1
  H+  H77  1  0.11816843  0.38371657  0.67411071  1
  H+  H78  1  0.60972626  0.73356595  0.15322909  1
  H+  H79  1  0.61616443  0.64783547  0.15966314  1
  H+  H80  1  0.35375844  0.18210781  0.05448172  1
  H+  H81  1  0.62462802  0.48099182  0.51641789  1
  H+  H82  1  0.97757678  0.87144939  0.98366478  1
  H+  H83  1  0.86326394  0.22591430  0.84457632  1
  H+  H84  1  -0.00012710  0.89162752  0.65359547  1
  H+  H85  1  0.14040725  0.59573935  0.31592114  1
  H+  H86  1  0.36910762  0.63758992  0.16028961  1
  H+  H87  1  0.52692821  0.39474680  0.33057184  1
  H+  H88  1  0.61897878  0.89322192  0.66646838  1
  H+  H89  1  0.28291455  0.63200141  0.67274382  1
  H+  H90  1  0.96536911  0.59520606  0.98430304  1
  H+  H91  1  0.76461832  0.89417878  0.32698849  1
  H+  H92  1  0.51948003  0.64794388  0.33163678  1
  H+  H93  1  0.85974324  0.97578895  0.00187340  1
  H+  H94  1  0.54241730  0.15421719  0.16519263  1
  H+  H95  1  0.53017912  0.87667098  0.00952831  1
  H+  H96  1  0.48216636  0.63573409  0.49546153  1
  H+  H97  1  0.11006536  0.38735688  0.83607859  1
  H+  H98  1  0.61459083  0.15110436  0.35080316  1
  H+  H99  1  0.31931968  0.65143159  0.77428880  1
  H+  H100  1  0.84872800  0.59857530  0.48974803  1
  H+  H101  1  0.79631224  0.94319495  0.42337600  1
  H+  H102  1  0.46866864  0.11167347  0.66133344  1
  H+  H103  1  0.04549939  0.83757215  0.18413880  1
  H+  H104  1  0.77265173  0.13555641  0.83515564  1
  H+  H105  1  0.72915616  0.87463001  0.83537341  1
  H+  H106  1  0.15232014  0.88392299  0.32012227  1
  H+  H107  1  0.48558112  0.12733044  0.99005630  1
  H+  H108  1  0.07400644  0.73265269  0.97088642  1
  H+  H109  1  0.15126869  0.08102261  0.25192435  1
  H+  H110  1  0.37181359  0.26658074  0.82652095  1
  H+  H111  1  0.62564377  0.14795259  0.15940325  1
  H+  H112  1  0.76619633  0.79310335  0.52578893  1
  H+  H113  1  0.12045972  0.46597102  0.49303101  1
  H+  H114  1  0.92637202  0.69084378  0.79224322  1
  H+  H115  1  0.63174471  1.01528063  -0.00461149  1
  H+  H116  1  0.90027352  0.76026520  0.80792010  1
  H+  H117  1  0.89772367  0.37523790  0.33279024  1
  H+  H118  1  0.66186355  0.09209262  0.27276902  1
  H+  H119  1  0.85588780  0.23079129  0.16191163  1
  H+  H120  1  0.13729060  0.37069993  1.00247296  1
  H+  H121  1  0.58156767  0.35458973  0.75021257  1
  H+  H122  1  0.53537959  0.63437956  0.66876055  1
  H+  H123  1  0.74295694  0.62088142  0.65926720  1
  H+  H124  1  0.43707783  0.53077365  0.83629897  1
  H+  H125  1  1.04774350  0.41655560  1.00117767  1
  H+  H126  1  0.07423342  0.71077171  0.81097907  1
  H+  H127  1  0.61110430  0.13675858  1.00879944  1
  H+  H128  1  0.41145933  0.63978686  -0.02531354  1
  H+  H129  1  0.68437351  0.82286094  0.59764711  1
  H+  H130  1  0.54149018  0.86780774  0.16896269  1
  H+  H131  1  0.12159827  0.26743273  0.17213828  1
  H+  H132  1  0.11634077  -0.00947550  0.33429849  1
  H+  H133  1  0.48621367  0.62182163  0.99119801  1
  H+  H134  1  0.87941233  0.12705113  0.84473542  1
  H+  H135  1  0.65576113  0.29344712  0.33913535  1
  H+  H136  1  0.86479839  0.60836093  0.31716492  1
  H+  H137  1  0.88782941  0.86882661  0.98400507  1
  H+  H138  1  0.48271486  0.12970590  0.33746448  1
  H+  H139  1  0.86434269  0.98717186  0.82444399  1
  H+  H140  1  0.41455427  0.08179193  0.57188930  1
  H+  H141  1  1.03577638  0.83869550  0.15103724  1
  H+  H142  1  0.77382891  0.88404963  -0.00071728  1
  H+  H143  1  0.41424988  0.87805158  0.99184747  1
  H+  H144  1  0.37411039  0.89899712  0.34087365  1
  H+  H145  1  0.98031914  0.12816829  0.84532743  1
  H+  H146  1  0.87706121  0.49196356  0.35256616  1
  H+  H147  1  0.39877724  0.14524560  0.15149897  1
  H+  H148  1  0.72392055  0.10880516  0.17719036  1
  H+  H149  1  0.97182886  0.11757183  0.99488143  1
  H+  H150  1  0.37946093  0.11249999  0.65664346  1
  H+  H151  1  0.60856401  0.64960772  0.33785371  1
  H+  H152  1  0.77679879  0.66802041  0.84553916  1
  H+  H153  1  0.42632870  0.28067407  0.15195233  1
  H+  H154  1  0.62371909  0.25935243  0.50622555  1
  H+  H155  1  0.75240074  0.38128180  0.53458488  1
  H+  H156  1  0.20344969  0.08171301  0.33929933  1
  H+  H157  1  0.86228358  0.23711875  0.33875677  1
  H+  H158  1  0.13908092  0.03416561  0.84146630  1
  H+  H159  1  0.84040266  0.98552638  0.15606468  1
  H+  H160  1  0.76017770  0.12764908  1.00697599  1
  H+  H161  1  0.39234878  0.02671493  0.50934895  1
  H+  H162  1  0.64260266  0.01521177  0.18023814  1
  H+  H163  1  0.02001906  0.62399984  0.48678887  1
  H+  H164  1  0.98125870  0.35470516  0.85854257  1
  H+  H165  1  0.21215522  0.16103557  0.21082296  1
  H+  H166  1  0.86634666  0.72903960  0.99316355  1
  H+  H167  1  0.84665754  0.75230700  0.35005896  1
  H+  H168  1  0.02208182  0.14702058  0.67286560  1
  H+  H169  1  0.97110884  0.36219912  0.66502428  1
  H+  H170  1  0.90226277  0.08409746  0.23124642  1
  H+  H171  1  0.84883157  0.78262828  0.17503011  1
  H+  H172  1  0.13944060  0.12811348  0.99698452  1
  H+  H173  1  0.42185724  1.03699622  0.18202390  1
  H+  H174  1  0.34426622  0.67409881  0.40061280  1
  H+  H175  1  0.98731950  0.61720206  0.81827837  1
  H+  H176  1  0.48631152  0.33611125  0.64235698  1
  H+  H177  1  0.02830528  1.10712391  0.51093827  1
  H+  H178  1  0.71281614  0.56993103  0.51132024  1
  H+  H179  1  0.16889522  0.27526754  0.50547648  1
  H+  H180  1  0.13776024  0.25739363  0.32506425  1
  H+  H181  1  0.35849361  0.12456687  0.35141921  1
  H+  H182  1  0.58358075  0.82576701  0.46334857  1
  H+  H183  1  0.88276673  1.03155451  0.65676940  1
  H+  H184  1  0.71351069  0.62529739  0.33258434  1
  H+  H185  1  0.62668279  0.74380271  0.48624084  1
  H+  H186  1  0.38852992  0.52826663  0.31990597  1
  H+  H187  1  0.89584341  0.12569793  0.50270403  1
  H+  H188  1  0.62377893  0.72438970  -0.00031925  1
  H+  H189  1  0.07945965  0.39300113  0.40155908  1
  H+  H190  1  0.19349690  0.59017444  0.94192242  1
  H+  H191  1  0.34755257  0.12928095  0.81856775  1
  H+  H192  1  0.46389522  0.34726826  0.81849809  1
  H+  H193  1  0.26235268  0.13630862  0.82269392  1
  H+  H194  1  0.10545578  0.59752286  0.81847158  1
  H+  H195  1  0.33443679  -0.01709308  0.68442849  1
  H+  H196  1  0.39183303  1.00019813  0.00313109  1
  H+  H197  1  0.76746059  0.89129040  0.66973245  1
  H+  H198  1  -0.02920131  0.58611889  0.63541785  1
  H+  H199  1  0.15183511  0.85245092  0.51146298  1
  H+  H200  1  0.64230570  0.85761333  0.98901068  1
  H+  H201  1  0.67087986  0.83235743  0.92671003  1
  H+  H202  1  0.20809558  0.84913567  0.66419566  1
  H+  H203  1  0.20250207  0.82197303  1.02599610  1
  H+  H204  1  0.60993829  0.48278758  0.34642541  1
  H+  H205  1  0.14262751  0.59817344  0.16160315  1
  H+  H206  1  -0.02896295  0.36512936  0.17323313  1
  H+  H207  1  0.02872840  0.97551431  0.47821393  1
  H+  H208  1  0.15265265  0.79953268  0.31536687  1
  H+  H209  1  0.77158010  0.14876073  0.33996856  1
  H+  H210  1  0.59401007  0.90451397  0.06693249  1
  H+  H211  1  0.63993707  0.60981916  -0.00911494  1
  H+  H212  1  0.40485578  0.77265159  0.17886447  1
  H+  H213  1  0.77135447  0.40162134  0.16959349  1
  H+  H214  1  0.82191735  0.42064020  0.07488551  1
  H+  H215  1  0.28639219  0.88421640  0.49739042  1
  H+  H216  1  0.36858667  0.14706490  0.99321510  1
  H+  H217  1  0.13794086  1.01683389  0.62869748  1
  H+  H218  1  0.40370452  0.52589497  0.64800806  1
  H+  H219  1  0.33421496  0.19851173  0.36098129  1
  H+  H220  1  0.37242952  0.39057182  0.81130013  1
  H+  H221  1  0.11543449  0.47416353  0.16380768  1
  H+  H222  1  0.61246062  0.15044062  0.66862948  1
  H+  H223  1  0.86706967  0.37157842  0.84902492  1
  H+  H224  1  0.48737643  0.86132064  0.50231466  1
  H+  H225  1  0.64062648  0.01623095  0.83744672  1
  H+  H226  1  0.90888465  0.55297511  0.55812625  1
  H+  H227  1  0.67592072  0.35417730  0.58172858  1
  H+  H228  1  0.00291358  0.13111610  0.16076982  1
  H+  H229  1  0.63350296  0.31697423  0.18069087  1
  H+  H230  1  0.17644038  0.48287335  0.32491351  1
  H+  H231  1  0.01488271  0.13234726  0.33114350  1
  H+  H232  1  0.42187601  0.87028544  0.17534264  1
  H+  H233  1  0.63564249  0.03499017  0.33189498  1
  H+  H234  1  0.96896499  0.86604080  0.32709844  1
  H+  H235  1  0.83173855  0.67401640  0.71922025  1
  H+  H236  1  0.37296681  0.63494339  0.67355332  1
  H+  H237  1  0.59875076  0.42991951  0.79526887  1
  H+  H238  1  0.24924197  0.65294067  1.01535192  1
  H+  H239  1  0.10574570  0.61584986  0.66409656  1
  H+  H240  1  0.86731177  0.86324723  0.65239718  1
  H+  H241  1  0.08452064  0.82543737  0.97980595  1
  H+  H242  1  0.05188142  0.78611796  0.37184089  1
  H+  H243  1  0.65407963  0.84355329  0.25302179  1
  H+  H244  1  0.38065638  0.38618519  0.65533159  1
  H+  H245  1  0.77532436  0.13921157  0.49314226  1
  H+  H246  1  0.34877626  0.37065653  0.01001254  1
  H+  H247  1  0.39140047  0.61835885  0.32254881  1
  H+  H248  1  0.47302380  0.85780161  0.83676546  1
  H+  H249  1  0.37252082  0.73601533  0.34180109  1
  H+  H250  1  0.30852873  0.89154518  0.90914411  1
  H+  H251  1  0.27641842  0.38459833  0.33199941  1
  H+  H252  1  0.63957287  0.02215016  0.51115385  1
  H+  H253  1  0.38346378  0.78055094  1.00177928  1
  H+  H254  1  0.86335593  0.23603877  0.67383327  1
  H+  H255  1  0.04531956  0.94131449  0.06125772  1
  H+  H256  1  0.97845751  0.35983894  0.32831734  1
  H+  H257  1  0.36748873  0.12596960  0.50721855  1
  H+  H258  1  0.60981276  0.38452308  -0.00241072  1
  H+  H259  1  0.14134473  0.51626352  0.65933585  1
  H+  H260  1  0.21520903  0.34760248  1.00512186  1
  H+  H261  1  0.48165968  0.87461135  0.32940866  1
  H+  H262  1  0.88064655  0.12322867  0.32323968  1
  H+  H263  1  0.21582736  0.34138537  0.86330316  1
  H+  H264  1  0.26659864  0.12697624  0.65038258  1
  H+  H265  1  0.35288476  0.87040882  0.85606603  1
  H+  H266  1  0.87417020  0.03070041  0.32229721  1
  H+  H267  1  -0.00403309  0.89599094  0.83122657  1
  H+  H268  1  0.09444973  0.11707400  0.34047442  1
  H+  H269  1  0.87346252  0.50279456  0.63937980  1
  H+  H270  1  0.84598848  0.22025894  0.01090036  1
  H+  H271  1  0.78217315  0.64178187  0.15265555  1
  H+  H272  1  1.01873085  0.58796297  0.15625747  1
  H+  H273  1  0.88345955  0.12092814  0.65821308  1
  H+  H274  1  0.64352896  0.78374711  0.83118602  1
  H+  H275  1  0.11205400  0.62350887  0.98944202  1
  H+  H276  1  0.39647355  0.30005721  0.28643655  1
  H+  H277  1  0.63105746  0.50764004  0.18171436  1
  H+  H278  1  0.09999687  0.22641403  0.84130129  1
  H+  H279  1  0.85525692  0.87201443  0.18279855  1
  H+  H280  1  0.87230308  0.36595098  1.01381355  1
  H+  H281  1  0.75561711  0.38348362  0.68093573  1
  H+  H282  1  0.14284765  0.27637435  0.66005316  1
  H+  H283  1  0.06607685  0.63875733  0.04594864  1
  H+  H284  1  0.84984539  0.38053714  0.16608710  1
  H+  H285  1  0.90892024  0.83622940  0.49536394  1
  H+  H286  1  0.12602365  0.37965111  0.49443403  1
  H+  H287  1  0.92712974  0.32779999  0.92229954  1
  H+  H288  1  0.93269054  0.85410726  0.88824489  1
  H+  H289  1  0.81634185  0.92296514  0.09718074  1
  H+  H290  1  0.01696859  0.91242444  0.42375135  1
  H+  H291  1  0.55268737  0.51498343  0.20403610  1
  H+  H292  1  0.34389843  0.92285488  0.43729761  1
  H+  H293  1  0.58400360  0.91756752  0.76113665  1
  H+  H294  1  0.38831882  0.94193897  0.10676667  1
  H+  H295  1  0.40500234  0.53584699  0.49682077  1
  H+  H296  1  0.09725359  0.46977510  0.82596522  1
  H+  H297  1  0.08460179  0.40912659  0.73412730  1
  H+  H298  1  0.21234413  0.87334560  0.22395643  1
  H+  H299  1  0.55692506  0.12675363  0.75275331  1
  H+  H300  1  0.58952429  0.91617414  0.39337161  1
  H+  H301  1  0.45637033  0.58341426  0.89932958  1
  H+  H302  1  0.70469058  0.88387438  0.15740932  1
  H+  H303  1  0.31257888  0.15699567  0.71756993  1
  H+  H304  1  0.82325016  0.16763787  0.10283176  1
  H+  H305  1  0.03297129  0.53518791  0.10575699  1
  H+  H306  1  0.35923229  0.42411319  0.71382524  1
  H+  H307  1  0.11963285  0.91701344  0.39878015  1
  H+  H308  1  0.66393866  0.91803563  0.46864043  1
  H+  H309  1  0.19925374  0.83652231  0.84407028  1
  H+  H310  1  0.63753447  0.03331219  0.66029707  1
  H+  H311  1  0.51683987  0.38869940  0.98461749  1
  H+  H312  1  0.64979044  0.57892147  0.27465101  1
  H+  H313  1  0.83102597  0.92516290  0.72760298  1
  H+  H314  1  0.66333825  0.32232371  0.90958251  1
  H+  H315  1  0.11422654  0.80488052  0.88460647  1
  H+  H316  1  0.78993372  0.40307261  0.35748104  1
  H+  H317  1  0.16488911  0.32319184  0.26853222  1
  H+  H318  1  0.09223518  0.13235349  0.16754860  1
  H+  H319  1  0.19747081  0.60452295  0.82845952  1
  H+  H320  1  0.56925388  0.32611264  0.47428697  1
  H+  H321  1  0.70891820  0.63406073  0.89961650  1
  H+  H322  1  0.06891354  0.16048504  0.06846403  1
  H+  H323  1  0.89485035  0.56297370  0.93189326  1
  H+  H324  1  0.16344433  0.09259156  0.90246119  1
  H+  H325  1  0.32121722  0.91028883  0.72984889  1
  H+  H326  1  0.17582355  0.81580550  0.56985354  1
  H+  H327  1  0.44826113  0.35378670  0.20059004  1
  H+  H328  1  0.71667525  0.36411897  1.00464054  1
  H+  H329  1  0.84117295  0.37830856  0.66820776  1
  H+  H330  1  0.65825718  0.07377963  0.93524068  1
  H+  H331  1  0.28969588  0.39719640  0.48760433  1
  H+  H332  1  0.85205228  0.73318166  0.50927872  1
  H+  H333  1  0.85896904  0.45557745  0.44773186  1
  H+  H334  1  0.39793662  0.03527010  0.33422730  1
  H+  H335  1  0.59921865  0.23326030  0.68693205  1
  H+  H336  1  0.36288361  0.22278391  0.50160299  1
  H+  H337  1  0.17319743  0.99465317  0.09774278  1
  H+  H338  1  0.06328686  0.71106013  0.40512913  1
  H+  H339  1  0.06128936  0.92083806  0.71030918  1
  H+  H340  1  0.91822380  0.33096104  0.60293033  1
  H+  H341  1  0.42511047  0.83902198  0.27009451  1
  H+  H342  1  0.23098385  0.12955069  0.99398225  1
  H+  H343  1  0.77523489  0.72506519  0.39935964  1
  H+  H344  1  0.43418935  0.59342540  0.59399318  1
  H+  H345  1  0.94589184  0.57450827  0.24982167  1
  H+  H346  1  0.58658790  0.19381231  0.40598229  1
  H+  H347  1  0.59241956  0.66827917  0.06075342  1
  H+  H348  1  0.90209924  0.84039091  0.27014532  1
  H+  H349  1  0.41187181  0.31918874  0.55954077  1
  H+  H350  1  0.42533736  0.82545618  0.90086436  1
  H+  H351  1  0.57918939  0.70912336  0.42097294  1
  H+  H352  1  0.56647643  0.39395920  0.42892060  1
  H+  H353  1  0.74360112  0.86298253  0.50415972  1
  H+  H354  1  0.13472881  0.60178017  0.50021220  1
  H+  H355  1  0.88341796  0.81968731  0.59224181  1
  H+  H356  1  0.81597593  0.64160413  0.43934522  1
  H+  H357  1  0.22683249  0.60955955  0.50286989  1
  H+  H358  1  0.41630569  0.58303049  0.22776153  1
  H+  H359  1  0.32253015  0.14615442  0.44620181  1
  H+  H360  1  0.26516269  0.37815397  0.16527025  1
  H+  H361  1  0.85479869  0.89860480  0.34020876  1
  H+  H362  1  0.43512310  0.09816284  0.23987790  1
  H+  H363  1  0.91403946  0.33693422  0.23402103  1
  H+  H364  1  0.80882301  0.68535388  0.08898586  1
  H+  H365  1  0.42661062  0.83038651  0.60152962  1
  H+  H366  1  0.31516370  0.38371384  0.07593316  1
  H+  H367  1  0.08665145  0.42133809  0.10146888  1
  H+  H368  1  0.86492229  0.63914774  0.00135880  1
  H+  H369  1  0.91264995  0.08778745  0.56310924  1
  H+  H370  1  0.83405077  0.17464492  0.43336711  1
  H+  H371  1  0.18443936  0.33502233  0.56390678  1
  H+  H372  1  0.87504390  0.11761062  0.17209963  1
  H+  H373  1  0.07416927  0.17590653  0.73451581  1
  H+  H374  1  0.15417417  0.32596127  0.91933622  1
  H+  H375  1  0.61693582  0.48413378  0.98989216  1
  H+  H376  1  0.33261659  0.67903021  0.11018869  1
  H+  H377  1  0.38792124  0.26163164  0.65016909  1
  H+  H378  1  0.15874825  0.09069743  0.58157707  1
  H+  H379  1  0.66374641  0.56091660  0.59856643  1
  H+  H380  1  0.42526209  0.09371519  0.92878896  1
  H+  H381  1  0.41890057  0.33731165  0.91817462  1
  H+  H382  1  0.58637062  0.17001984  0.06986435  1
  H+  H383  1  0.66770463  0.08651965  0.56624114  1
  O2-  O384  1  0.06388920  0.15933081  0.14519764  1
  O2-  O385  1  0.14551775  0.17318517  0.48214761  1
  O2-  O386  1  0.06557950  0.16641991  0.82404079  1
  O2-  O387  1  0.07627547  0.41396608  0.14612972  1
  O2-  O388  1  0.09056499  0.40467044  0.48001598  1
  O2-  O389  1  0.07122799  0.40542247  0.81813843  1
  O2-  O390  1  0.05359328  0.59464925  0.11776858  1
  O2-  O391  1  0.07898415  0.66064959  0.47075448  1
  O2-  O392  1  0.03988369  0.65230346  0.79311758  1
  O2-  O393  1  0.20866940  1.01730182  0.13453750  1
  O2-  O394  1  -0.01259667  0.92123103  0.45879073  1
  O2-  O395  1  0.12192965  0.94467904  0.79742941  1
  O2-  O396  1  0.36471419  0.16807835  0.13062083  1
  O2-  O397  1  0.33244553  0.15561800  0.49150647  1
  O2-  O398  1  0.31905539  0.16020051  0.80197890  1
  O2-  O399  1  0.32472808  0.40267019  0.14952253  1
  O2-  O400  1  0.34924987  0.42694659  0.46975026  1
  O2-  O401  1  0.36378816  0.43654819  0.79111986  1
  O2-  O402  1  0.34292158  0.67517211  0.15433725  1
  O2-  O403  1  0.33211951  0.66622418  0.47943113  1
  O2-  O404  1  0.30516390  0.64853908  0.81812210  1
  O2-  O405  1  0.38595096  0.93691248  0.15152158  1
  O2-  O406  1  0.34677166  0.92178701  0.48277716  1
  O2-  O407  1  0.31464935  0.89588458  0.86493954  1
  O2-  O408  1  0.60001260  0.18238757  0.14489741  1
  O2-  O409  1  0.57373002  0.22883944  0.47736974  1
  O2-  O410  1  0.54184952  0.09124362  0.79216793  1
  O2-  O411  1  0.63373006  0.41949838  0.14976138  1
  O2-  O412  1  0.55998367  0.37645697  0.47291279  1
  O2-  O413  1  0.55338138  0.37379262  0.78193655  1
  O2-  O414  1  0.58512436  0.67337090  0.13958774  1
  O2-  O415  1  0.57145497  0.72379946  0.46366857  1
  O2-  O416  1  0.61342790  0.68982903  0.80237482  1
  O2-  O417  1  0.60278771  0.89965574  0.15107836  1
  O2-  O418  1  0.60020825  0.88816146  0.46458613  1
  O2-  O419  1  0.58137305  0.91795513  0.80694809  1
  O2-  O420  1  0.82444200  0.16915352  0.14810443  1
  O2-  O421  1  0.83617107  0.17135956  0.47858214  1
  O2-  O422  1  0.83561243  0.16780737  0.82394478  1
  O2-  O423  1  0.82816118  0.41882957  0.15097800  1
  O2-  O424  1  0.85612294  0.46005545  0.49350268  1
  O2-  O425  1  0.83713127  0.39850245  0.82899151  1
  O2-  O426  1  0.78619628  0.68966313  0.12936050  1
  O2-  O427  1  0.81547035  0.62981267  0.48313693  1
  O2-  O428  1  0.87716117  0.70012816  0.79251296  1
  O2-  O429  1  0.80339117  0.92467254  0.14105560  1
  O2-  O430  1  0.77713058  0.95039595  0.46447370  1
  O2-  O431  1  0.83613926  0.92837804  0.80784664  1
  O2-  O432  1  0.16081048  0.10442298  0.20829511  1
  O2-  O433  1  0.08224831  0.10301434  0.51319907  1
  O2-  O434  1  0.15934917  0.09339837  0.85696755  1
  O2-  O435  1  0.15575435  0.32643504  0.18904411  1
  O2-  O436  1  0.18935442  0.33608391  0.51852266  1
  O2-  O437  1  0.15604740  0.32331017  0.87198084  1
  O2-  O438  1  0.16990142  0.57107291  0.18450352  1
  O2-  O439  1  0.16633300  0.57494588  0.51803681  1
  O2-  O440  1  0.13473095  0.57013986  0.83853322  1
  O2-  O441  1  0.22736489  0.88273004  0.18004642  1
  O2-  O442  1  0.17991822  0.81990733  0.52210907  1
  O2-  O443  1  0.13690443  0.81590624  0.84121880  1
  O2-  O444  1  0.44236450  0.09782293  0.19489571  1
  O2-  O445  1  0.41639503  0.08664821  0.52575141  1
  O2-  O446  1  0.40156934  0.07500914  0.85237364  1
  O2-  O447  1  0.46732218  0.34147085  0.16180772  1
  O2-  O448  1  0.40477432  0.31305095  0.51392107  1
  O2-  O449  1  0.40692521  0.32821969  0.83915880  1
  O2-  O450  1  0.41354721  0.57916684  0.18215909  1
  O2-  O451  1  0.42671125  0.59389345  0.51529047  1
  O2-  O452  1  0.48254193  0.57573787  0.86147485  1
  O2-  O453  1  0.44475753  0.83407705  0.19271677  1
  O2-  O454  1  0.42826432  0.83420197  0.51791623  1
  O2-  O455  1  0.41521112  0.82670177  0.85630258  1
  O2-  O456  1  0.66331602  0.07543660  0.19228995  1
  O2-  O457  1  0.67080400  0.08311011  0.52111499  1
  O2-  O458  1  0.66860188  0.07671800  0.85446767  1
  O2-  O459  1  0.66546499  0.37829888  0.19226444  1
  O2-  O460  1  0.70031988  0.33195906  0.55145078  1
  O2-  O461  1  0.67242362  0.32328919  0.86492851  1
  O2-  O462  1  0.61508451  0.54899447  0.20025910  1
  O2-  O463  1  0.65537268  0.54083856  0.53150259  1
  O2-  O464  1  0.73376683  0.67685720  0.86654217  1
  O2-  O465  1  0.64191927  0.84899342  0.17256211  1
  O2-  O466  1  0.71846542  0.80645226  0.52670675  1
  O2-  O467  1  0.66865122  0.84333605  0.85002449  1
  O2-  O468  1  0.90188280  0.08281902  0.18509012  1
  O2-  O469  1  0.91661685  0.08641848  0.51767885  1
  O2-  O470  1  0.91478937  0.09655328  0.86125322  1
  O2-  O471  1  0.91015988  0.33374758  0.18830943  1
  O2-  O472  1  0.92861254  0.33005536  0.53256218  1
  O2-  O473  1  0.92237195  0.32052845  0.87790332  1
  O2-  O474  1  0.96021547  0.54996161  0.21440872  1
  O2-  O475  1  0.90581243  0.55360305  0.50596886  1
  O2-  O476  1  0.89106828  0.55390934  0.85476508  1
  O2-  O477  1  0.88036356  0.83760258  0.19789632  1
  O2-  O478  1  0.86067538  0.79093231  0.52026570  1
  O2-  O479  1  0.93550528  0.85939800  0.84253867  1
  O2-  O480  1  0.14599201  0.05356677  0.32025019  1
  O2-  O481  1  0.18591287  0.06710429  0.60765902  1
  O2-  O482  1  0.16920677  0.09731732  0.98100744  1
  O2-  O483  1  0.17085307  0.32023074  0.31340146  1
  O2-  O484  1  0.17507505  0.33640642  0.64279378  1
  O2-  O485  1  0.15429023  0.32802621  0.98797750  1
  O2-  O486  1  0.23242322  0.51735270  0.30485248  1
  O2-  O487  1  0.17241236  0.57698802  0.64429447  1
  O2-  O488  1  0.18012696  0.59089776  0.98484509  1
  O2-  O489  1  0.18876570  0.86021420  0.30312016  1
  O2-  O490  1  0.16295986  0.80873200  0.63607846  1
  O2-  O491  1  0.06819881  0.77935736  0.95019433  1
  O2-  O492  1  0.42195818  0.09667497  0.32100540  1
  O2-  O493  1  0.40857316  0.07878241  0.64538089  1
  O2-  O494  1  0.42488403  0.09518181  0.97438675  1
  O2-  O495  1  0.43141016  0.36237090  0.28629538  1
  O2-  O496  1  0.42630037  0.32145103  0.63392336  1
  O2-  O497  1  0.42599966  0.34120319  0.96350023  1
  O2-  O498  1  0.42244875  0.58916532  0.30585432  1
  O2-  O499  1  0.43408723  0.58897437  0.63938847  1
  O2-  O500  1  0.42864256  0.59648550  0.97150640  1
  O2-  O501  1  0.42034221  0.84332663  0.31509242  1
  O2-  O502  1  0.42985134  0.83323860  0.64647634  1
  O2-  O503  1  0.42977730  0.83382363  0.98052639  1
  O2-  O504  1  0.66358975  0.09617485  0.31800642  1
  O2-  O505  1  0.66463685  0.09425301  0.64640576  1
  O2-  O506  1  0.65807470  0.07590579  0.98059663  1
  O2-  O507  1  0.69263716  0.35521024  0.32934378  1
  O2-  O508  1  0.63244793  0.33626187  0.69513490  1
  O2-  O509  1  0.65640698  0.33353155  0.98806639  1
  O2-  O510  1  0.65298386  0.58652092  0.31974505  1
  O2-  O511  1  0.67078968  0.57346773  0.64515654  1
  O2-  O512  1  0.66944239  0.57858591  0.97453922  1
  O2-  O513  1  0.66148385  0.84357899  0.29771353  1
  O2-  O514  1  0.66959132  0.82902075  0.64054462  1
  O2-  O515  1  0.67355587  0.82911991  0.97229969  1
  O2-  O516  1  0.90695407  0.09013293  0.30531483  1
  O2-  O517  1  0.91448672  0.09203166  0.64189262  1
  O2-  O518  1  0.91200681  0.08808339  0.97651574  1
  O2-  O519  1  0.91845281  0.33944000  0.31226910  1
  O2-  O520  1  0.91146839  0.33116529  0.64936556  1
  O2-  O521  1  0.90628567  0.33477748  1.00755380  1
  O2-  O522  1  0.91200890  0.59680181  0.32063932  1
  O2-  O523  1  0.91203179  0.55858369  0.61689614  1
  O2-  O524  1  0.90190212  0.57015041  0.97718307  1
  O2-  O525  1  0.90803186  0.84238282  0.31625715  1
  O2-  O526  1  0.89199553  0.82718559  0.63749787  1
  O2-  O527  1  0.91976247  0.84171089  0.96524721  1
  O2-  O528  1  0.07111740  0.16343666  0.02265989  1
  O2-  O529  1  0.07488643  0.15898542  0.34600344  1
  O2-  O530  1  0.08107182  0.17868653  0.69017328  1
  O2-  O531  1  0.10315403  0.43906617  0.02146950  1
  O2-  O532  1  0.07455882  0.38842533  0.35626885  1
  O2-  O533  1  0.08673503  0.41305804  0.68909776  1
  O2-  O534  1  0.07046827  0.64508465  0.00086488  1
  O2-  O535  1  0.04980069  0.72985970  0.36600086  1
  O2-  O536  1  0.06775288  0.64127433  0.67089492  1
  O2-  O537  1  0.08336881  0.93989832  0.03013743  1
  O2-  O538  1  0.08148102  0.89801035  0.36350052  1
  O2-  O539  1  0.06053269  0.92903205  0.66659194  1
  O2-  O540  1  0.34138085  0.17968448  0.00986504  1
  O2-  O541  1  0.31567750  0.13916479  0.37161931  1
  O2-  O542  1  0.32340361  0.16100087  0.67318508  1
  O2-  O543  1  0.29965210  0.36725647  0.03183088  1
  O2-  O544  1  0.33943419  0.41798671  0.34277760  1
  O2-  O545  1  0.35179719  0.41839895  0.66880436  1
  O2-  O546  1  0.30244674  0.70625468  0.04159715  1
  O2-  O547  1  0.34975256  0.67575660  0.35545657  1
  O2-  O548  1  0.34168501  0.66297253  0.69057462  1
  O2-  O549  1  0.37294089  0.94121410  0.02085664  1
  O2-  O550  1  0.34642819  0.93125631  0.35832583  1
  O2-  O551  1  0.29044415  0.93525056  0.70982606  1
  O2-  O552  1  0.58286673  0.16902097  0.02379549  1
  O2-  O553  1  0.58404918  0.18305590  0.36123925  1
  O2-  O554  1  0.57342427  0.16812987  0.68831830  1
  O2-  O555  1  0.57915999  0.41993481  0.00294309  1
  O2-  O556  1  0.58050173  0.41985791  0.35510351  1
  O2-  O557  1  0.60447681  0.36852315  0.64231588  1
  O2-  O558  1  0.59295202  0.66414334  0.01553061  1
  O2-  O559  1  0.58102348  0.68511324  0.34600529  1
  O2-  O560  1  0.59721749  0.66191135  0.68177668  1
  O2-  O561  1  0.59216950  0.90983981  0.02216706  1
  O2-  O562  1  0.58607261  0.92764692  0.34907540  1
  O2-  O563  1  0.58944387  0.92277318  0.68342164  1
  O2-  O564  1  0.82129772  0.15880264  0.02216730  1
  O2-  O565  1  0.83269425  0.17606420  0.35364719  1
  O2-  O566  1  0.83082323  0.17348728  0.68867789  1
  O2-  O567  1  0.81958514  0.41477869  0.02920045  1
  O2-  O568  1  0.85211363  0.43426243  0.37140893  1
  O2-  O569  1  0.81877153  0.41738807  0.67748778  1
  O2-  O570  1  0.83506632  0.67165845  0.01270410  1
  O2-  O571  1  0.80200543  0.70045566  0.37382041  1
  O2-  O572  1  0.81848982  0.67037373  0.67499648  1
  O2-  O573  1  0.83373911  0.91588782  0.01688006  1
  O2-  O574  1  0.82036876  0.92688183  0.34918781  1
  O2-  O575  1  0.82965729  0.92463927  0.68235379  1
