# generated using pymatgen
data_H2O
_symmetry_space_group_name_H-M   'P 1'
_cell_length_a   17.99349473
_cell_length_b   17.99308989
_cell_length_c   22.00462525
_cell_angle_alpha   89.98599917
_cell_angle_beta   90.01528851
_cell_angle_gamma   120.02161197
_symmetry_Int_Tables_number   1
_chemical_formula_structural   H2O
_chemical_formula_sum   'H384 O192'
_cell_volume   6168.38169480
_cell_formula_units_Z   192
loop_
 _symmetry_equiv_pos_site_id
 _symmetry_equiv_pos_as_xyz
  1  'x, y, z'
loop_
 _atom_type_symbol
 _atom_type_oxidation_number
  H+  1.0
  O2-  -2.0
loop_
 _atom_site_type_symbol
 _atom_site_label
 _atom_site_symmetry_multiplicity
 _atom_site_fract_x
 _atom_site_fract_y
 _atom_site_fract_z
 _atom_site_occupancy
  H+  H0  1  0.10817444  0.13345484  0.27005905  1
  H+  H1  1  0.60737571  0.38220403  0.67447762  1
  H+  H2  1  0.38949488  0.36272312  0.64733427  1
  H+  H3  1  0.33578654  0.43117940  0.43127196  1
  H+  H4  1  0.35252648  0.81302261  0.32121450  1
  H+  H5  1  0.21177960  0.11120934  0.84718038  1
  H+  H6  1  0.10153314  0.73312251  0.66856970  1
  H+  H7  1  0.12455194  0.90955041  0.15454777  1
  H+  H8  1  0.78333843  0.38002946  0.83366823  1
  H+  H9  1  0.14401304  0.84741458  0.32248231  1
  H+  H10  1  0.94633834  0.34118090  0.93123519  1
  H+  H11  1  0.83741753  0.42125306  0.43838763  1
  H+  H12  1  0.37891384  0.77513209  0.64793502  1
  H+  H13  1  0.71599929  0.87406491  0.38444502  1
  H+  H14  1  0.27927485  0.87899296  0.33139899  1
  H+  H15  1  0.13672499  0.02836414  0.67388246  1
  H+  H16  1  0.89404592  0.07214801  0.93633762  1
  H+  H17  1  0.17283083  0.21773929  0.10630630  1
  H+  H18  1  0.72425375  0.61028858  0.17104802  1
  H+  H19  1  0.63232323  0.86415127  0.65766366  1
  H+  H20  1  0.96615646  0.60865522  0.34593788  1
  H+  H21  1  0.28280669  0.40667729  0.82754636  1
  H+  H22  1  0.35931923  0.39232797  0.48873530  1
  H+  H23  1  0.36744233  -0.01856503  0.49520515  1
  H+  H24  1  0.97317997  0.13206968  0.85084148  1
  H+  H25  1  0.90290209  0.85514544  0.52803070  1
  H+  H26  1  0.88849113  0.61837176  0.18306495  1
  H+  H27  1  0.06976249  0.25974133  0.52805340  1
  H+  H28  1  0.88427948  0.28637973  0.51055245  1
  H+  H29  1  0.91473977  0.28420132  -0.00802306  1
  H+  H30  1  0.23193467  0.88360720  0.16240820  1
  H+  H31  1  0.44415123  0.82380068  0.31770369  1
  H+  H32  1  0.24619250  0.85678055  0.81579342  1
  H+  H33  1  0.14327102  0.15571608  0.16161505  1
  H+  H34  1  0.47774344  0.36344228  0.64991979  1
  H+  H35  1  0.85112159  0.63191947  0.32260455  1
  H+  H36  1  0.60963652  0.13280568  0.16795147  1
  H+  H37  1  0.37368732  0.22882912  0.66749115  1
  H+  H38  1  0.11592661  0.09387050  0.83596664  1
  H+  H39  1  0.44564352  0.84161251  0.16212319  1
  H+  H40  1  0.88728827  0.86013328  0.66130381  1
  H+  H41  1  0.12246738  0.62515680  0.65143621  1
  H+  H42  1  0.12358243  0.76039545  0.83080161  1
  H+  H43  1  0.38731723  0.11260806  0.66832632  1
  H+  H44  1  0.63036504  0.83690725  0.16721672  1
  H+  H45  1  0.16156183  0.33422086  0.26899649  1
  H+  H46  1  0.88312510  0.97641525  0.32375618  1
  H+  H47  1  0.56354462  0.44008370  0.41599333  1
  H+  H48  1  0.90391081  0.36887155  0.83998421  1
  H+  H49  1  0.88676920  0.95999780  0.49340069  1
  H+  H50  1  0.63365135  0.25440490  0.82139923  1
  H+  H51  1  0.61837940  0.47150746  0.15700982  1
  H+  H52  1  0.34778855  0.23037711  0.84769034  1
  H+  H53  1  0.27338825  0.90271789  0.98773327  1
  H+  H54  1  -0.02404295  0.11563443  0.66138336  1
  H+  H55  1  0.60812624  0.00118629  0.82546769  1
  H+  H56  1  0.11220240  0.38067133  0.35244384  1
  H+  H57  1  0.10866264  0.48749839  0.66669956  1
  H+  H58  1  0.13083499  0.44567332  0.50278889  1
  H+  H59  1  0.34747493  0.88110487  0.98007855  1
  H+  H60  1  0.43825455  0.84548152  0.97878799  1
  H+  H61  1  0.87039974  0.15549449  0.34070940  1
  H+  H62  1  0.14217406  0.57544675  0.24364829  1
  H+  H63  1  0.11534249  0.26230648  0.83072971  1
  H+  H64  1  0.39098085  0.62852899  0.34583229  1
  H+  H65  1  0.21804335  0.08281442  0.51897943  1
  H+  H66  1  0.58174252  0.12971022  0.49916676  1
  H+  H67  1  0.86015016  0.47226350  0.34706109  1
  H+  H68  1  0.13750279  0.28464043  0.65677081  1
  H+  H69  1  0.12465992  0.61806678  0.18592188  1
  H+  H70  1  0.38343594  0.35940636  0.16609975  1
  H+  H71  1  0.81313695  0.70532512  0.45526911  1
  H+  H72  1  0.66053510  0.05475383  0.37885984  1
  H+  H73  1  0.12259253  0.94189435  0.35991591  1
  H+  H74  1  0.38853811  0.76332207  0.82951375  1
  H+  H75  1  0.14964193  0.61015303  0.58616480  1
  H+  H76  1  0.22049681  0.10146305  0.22928979  1
  H+  H77  1  0.59999087  0.91020779  0.82687426  1
  H+  H78  1  0.10701077  0.87416642  -0.01170720  1
  H+  H79  1  0.46540633  0.38296171  0.48635357  1
  H+  H80  1  0.11985159  0.14652054  0.67308758  1
  H+  H81  1  0.13760632  0.37422904  0.66454326  1
  H+  H82  1  0.35164872  0.46990503  0.14715408  1
  H+  H83  1  0.59198698  0.49520596  0.48064706  1
  H+  H84  1  0.12914668  0.01325166  0.98999867  1
  H+  H85  1  0.16835427  0.66087878  1.01465238  1
  H+  H86  1  0.64140468  0.36587076  0.48465017  1
  H+  H87  1  0.34490735  0.85700302  0.81404391  1
  H+  H88  1  0.85346969  0.63155370  0.67838356  1
  H+  H89  1  0.37165928  0.23426670  0.14318714  1
  H+  H90  1  -0.02326260  0.61104937  -0.00476010  1
  H+  H91  1  0.30061284  0.64168427  0.02760925  1
  H+  H92  1  0.87773023  0.53895146  0.50741248  1
  H+  H93  1  0.86091318  0.13677359  1.00676448  1
  H+  H94  1  -0.09277937  0.28224523  0.83648518  1
  H+  H95  1  0.07249820  0.48889034  0.16731325  1
  H+  H96  1  0.76994349  0.13704065  0.67235724  1
  H+  H97  1  0.14220572  0.03352182  0.18781632  1
  H+  H98  1  0.61659537  0.89071884  0.48916274  1
  H+  H99  1  0.85980947  0.38647736  0.67747721  1
  H+  H100  1  0.88616804  0.27400551  0.66445132  1
  H+  H101  1  0.69110625  0.40101067  0.85795190  1
  H+  H102  1  0.13670563  0.60088429  0.48885146  1
  H+  H103  1  0.37289232  0.72981039  0.49436777  1
  H+  H104  1  0.39123234  0.81925091  0.91551988  1
  H+  H105  1  0.86138074  0.72419883  0.15866233  1
  H+  H106  1  0.64568111  0.78788250  0.50413600  1
  H+  H107  1  0.61880451  0.26681683  0.31399002  1
  H+  H108  1  0.37500597  0.49183970  0.82613499  1
  H+  H109  1  0.85487000  0.72247795  0.31755529  1
  H+  H110  1  0.63302356  0.39250912  1.00176850  1
  H+  H111  1  0.35466923  0.48001124  0.33025899  1
  H+  H112  1  0.12156582  0.60483112  0.34208865  1
  H+  H113  1  0.98758785  0.35791977  0.18257192  1
  H+  H114  1  0.39279925  0.11786184  0.81158930  1
  H+  H115  1  0.21244248  0.07730030  0.38764171  1
  H+  H116  1  0.28499343  0.14601524  0.13731148  1
  H+  H117  1  0.63550993  0.51687179  0.31426160  1
  H+  H118  1  0.61333997  0.72283407  0.67009465  1
  H+  H119  1  0.63380069  0.27746991  0.66195367  1
  H+  H120  1  0.98915312  0.13760337  0.31787178  1
  H+  H121  1  0.77134907  0.87724162  0.16108490  1
  H+  H122  1  0.52466953  0.62396691  0.14861756  1
  H+  H123  1  0.60437349  -0.02034556  0.66618144  1
  H+  H124  1  0.83559580  0.17021117  0.76630991  1
  H+  H125  1  0.98265622  0.63108732  0.18196087  1
  H+  H126  1  0.24705988  0.63590284  0.64865426  1
  H+  H127  1  0.10939969  0.96776521  0.10552153  1
  H+  H128  1  0.26820499  0.38983907  0.33580818  1
  H+  H129  1  0.54574287  0.64887447  0.50832575  1
  H+  H130  1  0.69519659  0.84091573  0.82566967  1
  H+  H131  1  0.91824858  0.58091099  0.89967846  1
  H+  H132  1  0.62220370  0.49040193  0.84235327  1
  H+  H133  1  0.88830648  0.02322824  0.65286179  1
  H+  H134  1  0.82193611  0.39629928  0.16279124  1
  H+  H135  1  0.64572213  0.73801817  0.98241336  1
  H+  H136  1  0.86269855  0.62822458  0.00521860  1
  H+  H137  1  0.44926153  0.10480109  0.50774228  1
  H+  H138  1  0.22555472  0.17833393  0.45166865  1
  H+  H139  1  0.97696672  0.86715407  0.16829668  1
  H+  H140  1  0.08701960  0.86093036  0.40514790  1
  H+  H141  1  0.29110241  0.63594669  0.49868455  1
  H+  H142  1  0.25925139  0.38748170  0.15658538  1
  H+  H143  1  0.13417364  0.28032821  0.17058563  1
  H+  H144  1  0.33774207  0.35924694  0.98698493  1
  H+  H145  1  0.77634491  0.14525033  0.34126184  1
  H+  H146  1  0.40666936  0.62517901  0.84929045  1
  H+  H147  1  0.36610525  0.26125066  0.44890193  1
  H+  H148  1  0.59735326  0.59211134  0.35111011  1
  H+  H149  1  0.66374528  0.36784119  0.16309164  1
  H+  H150  1  0.12828096  0.75474766  0.50673757  1
  H+  H151  1  0.85318396  0.96487572  0.00611832  1
  H+  H152  1  0.11577359  0.74764966  0.15845039  1
  H+  H153  1  0.96476350  0.61169741  0.66152858  1
  H+  H154  1  0.67973708  0.25523257  0.39352113  1
  H+  H155  1  0.95545550  0.09497229  0.99275585  1
  H+  H156  1  0.85842868  0.71710808  0.00245969  1
  H+  H157  1  0.74872224  0.16381423  0.98703370  1
  H+  H158  1  0.86155476  0.13700550  0.82677389  1
  H+  H159  1  0.62651322  0.58204368  0.83969622  1
  H+  H160  1  0.56467588  0.39743835  0.76200114  1
  H+  H161  1  -0.01297933  0.36359534  0.33502205  1
  H+  H162  1  0.12676602  0.11837595  0.33544687  1
  H+  H163  1  0.64337206  0.59877244  -0.01100046  1
  H+  H164  1  0.38073343  0.37126006  0.31954585  1
  H+  H165  1  0.09162363  0.72151099  0.37237732  1
  H+  H166  1  0.96105922  0.84344122  0.97800212  1
  H+  H167  1  0.46935849  0.86464995  0.65394220  1
  H+  H168  1  0.87787777  0.52076192  0.66580626  1
  H+  H169  1  0.59845548  0.37613740  0.32263598  1
  H+  H170  1  0.76537760  0.60797504  0.82924536  1
  H+  H171  1  0.73311944  0.12643913  0.83452552  1
  H+  H172  1  0.04828223  0.39962277  0.00707127  1
  H+  H173  1  0.40265169  0.61236101  1.01058542  1
  H+  H174  1  0.35004629  0.26946161  0.98326052  1
  H+  H175  1  0.85607840  -0.03715752  0.29546455  1
  H+  H176  1  0.64974235  0.28232735  0.98870350  1
  H+  H177  1  0.90753791  1.03126527  0.84999690  1
  H+  H178  1  0.57692287  0.94561980  0.32850992  1
  H+  H179  1  0.57173294  0.85361070  0.32629065  1
  H+  H180  1  0.36592473  0.15110602  0.37512652  1
  H+  H181  1  0.63145696  0.60670380  0.65746505  1
  H+  H182  1  0.47736827  0.11844780  0.18140364  1
  H+  H183  1  0.56821490  0.89025694  0.10649873  1
  H+  H184  1  0.09189994  0.11700819  -0.00087680  1
  H+  H185  1  0.89070410  0.39883805  -0.00067275  1
  H+  H186  1  0.87073619  0.39068497  0.34428997  1
  H+  H187  1  0.01833936  0.89107575  0.68258254  1
  H+  H188  1  0.97234228  0.10338594  0.16314814  1
  H+  H189  1  0.62829387  0.16296529  0.82065757  1
  H+  H190  1  0.90639378  0.25416036  0.18792886  1
  H+  H191  1  0.86145223  0.12964209  0.15908823  1
  H+  H192  1  0.28788982  0.14515624  0.68621629  1
  H+  H193  1  0.98291537  0.84874439  0.32704306  1
  H+  H194  1  0.37621576  0.88630319  0.49077828  1
  H+  H195  1  0.08863032  0.61620492  0.81398932  1
  H+  H196  1  0.00931270  0.08757092  0.51055189  1
  H+  H197  1  0.48655649  0.59547948  0.34302480  1
  H+  H198  1  0.74293638  0.88045332  0.35660896  1
  H+  H199  1  0.09421743  0.26539915  0.49907170  1
  H+  H200  1  0.73511420  0.87609972  0.51187468  1
  H+  H201  1  0.27282648  0.63062597  0.84356560  1
  H+  H202  1  0.85131939  0.82177061  0.38914045  1
  H+  H203  1  0.13456554  0.49883317  0.83148549  1
  H+  H204  1  0.52340055  0.13522858  0.67593077  1
  H+  H205  1  0.74499258  0.61054078  0.98882280  1
  H+  H206  1  0.03019055  0.41386963  0.49723835  1
  H+  H207  1  0.35207397  0.69709921  0.34084358  1
  H+  H208  1  0.63100594  0.74866836  0.16464297  1
  H+  H209  1  0.33659273  0.15491244  0.88911946  1
  H+  H210  1  0.51969509  0.39135405  0.32613369  1
  H+  H211  1  0.82788680  0.13932414  0.50371612  1
  H+  H212  1  0.26296830  0.13785093  0.99227762  1
  H+  H213  1  0.63003757  0.77004054  0.32608379  1
  H+  H214  1  0.35472278  -0.02475556  0.67449260  1
  H+  H215  1  0.71683792  0.58675050  0.50193465  1
  H+  H216  1  0.38653870  0.60520068  0.15062247  1
  H+  H217  1  0.37629128  0.51617074  0.99770488  1
  H+  H218  1  0.32247651  0.02703142  0.30912952  1
  H+  H219  1  0.07414638  0.66255664  0.42784641  1
  H+  H220  1  0.52073516  0.14281708  0.01520721  1
  H+  H221  1  0.15651438  0.39278018  0.85176724  1
  H+  H222  1  0.26867723  0.38983483  0.67332575  1
  H+  H223  1  0.04412946  0.40804610  0.82930825  1
  H+  H224  1  0.89292977  0.49124039  0.17886457  1
  H+  H225  1  0.38144052  0.37547788  0.83558732  1
  H+  H226  1  0.21423436  0.86448484  0.65200978  1
  H+  H227  1  0.12787506  0.52090733  0.33608267  1
  H+  H228  1  0.31306258  0.89518402  0.75206026  1
  H+  H229  1  0.54444829  0.83232992  0.00707692  1
  H+  H230  1  0.46320093  0.36064029  0.84298199  1
  H+  H231  1  0.87933246  0.60243034  0.83926620  1
  H+  H232  1  0.71870008  0.60435928  0.66314937  1
  H+  H233  1  0.85581289  0.72134707  0.68443639  1
  H+  H234  1  0.85861855  0.13561073  0.67551775  1
  H+  H235  1  0.89236095  0.51676392  0.99301102  1
  H+  H236  1  0.11874256  0.35987597  0.17412429  1
  H+  H237  1  0.39003070  0.03211491  0.98195028  1
  H+  H238  1  0.99378865  0.09062564  0.47922811  1
  H+  H239  1  0.97608785  0.82822786  0.52079826  1
  H+  H240  1  0.37915254  0.28693553  0.33710553  1
  H+  H241  1  0.53367337  0.38096413  0.15895542  1
  H+  H242  1  0.10725249  -0.08852240  0.49338803  1
  H+  H243  1  0.61670360  0.15735036  0.01608638  1
  H+  H244  1  0.15168789  0.78062854  -0.01527141  1
  H+  H245  1  0.63423701  0.11581010  0.66060615  1
  H+  H246  1  0.15991903  0.82599268  0.91909203  1
  H+  H247  1  0.77406805  0.86850975  1.00471641  1
  H+  H248  1  0.58272792  0.85158286  1.02847319  1
  H+  H249  1  0.87743658  0.84701362  0.99366140  1
  H+  H250  1  0.35282527  0.59895027  0.64993673  1
  H+  H251  1  0.35080946  0.70482287  0.12983550  1
  H+  H252  1  0.47972214  0.86366891  0.50090365  1
  H+  H253  1  0.65830239  0.27810348  0.16735677  1
  H+  H254  1  0.40600325  0.61753301  0.51259000  1
  H+  H255  1  0.77635023  0.88917846  0.64494751  1
  H+  H256  1  0.77689044  0.13680012  0.16351967  1
  H+  H257  1  0.35254529  0.88534793  0.66445324  1
  H+  H258  1  -0.02542526  0.36485806  0.66594409  1
  H+  H259  1  0.46189013  0.86935690  0.82840783  1
  H+  H260  1  0.45588198  0.97426412  0.02003569  1
  H+  H261  1  0.16411298  0.53521288  0.00281716  1
  H+  H262  1  0.36539524  0.97880610  0.16601663  1
  H+  H263  1  0.36196943  0.50671825  0.66153186  1
  H+  H264  1  0.12946223  0.85574318  0.83031223  1
  H+  H265  1  0.58476874  0.35348072  0.81847631  1
  H+  H266  1  0.58433775  0.65790599  0.72581720  1
  H+  H267  1  0.40021739  0.52649209  0.50923159  1
  H+  H268  1  0.35023715  0.88189876  0.16223708  1
  H+  H269  1  0.10754282  0.89336726  0.67435037  1
  H+  H270  1  0.61505664  0.62363672  0.15532887  1
  H+  H271  1  0.10896889  -0.03987988  0.83173690  1
  H+  H272  1  0.58722255  0.22069614  0.49219944  1
  H+  H273  1  0.83014460  0.01274681  0.53032386  1
  H+  H274  1  0.81955357  0.85323031  0.81228580  1
  H+  H275  1  0.62888325  0.69759605  0.82204274  1
  H+  H276  1  0.88629859  0.86156992  0.17077222  1
  H+  H277  1  0.79675475  0.38530180  -0.00365739  1
  H+  H278  1  0.62483933  1.01381668  0.16962954  1
  H+  H279  1  0.25332064  0.43421217  0.51537185  1
  H+  H280  1  0.62334758  1.02556815  0.50257344  1
  H+  H281  1  0.38171761  0.94527640  0.32911858  1
  H+  H282  1  0.52730357  0.61175283  0.00370242  1
  H+  H283  1  0.20120339  0.65433270  0.86110394  1
  H+  H284  1  0.39582902  0.12301968  0.98137860  1
  H+  H285  1  0.70536118  0.12072104  0.50306023  1
  H+  H286  1  0.00517832  0.62420436  0.82538866  1
  H+  H287  1  0.86370554  0.39790180  0.50167439  1
  H+  H288  1  0.64176740  0.82194571  0.96938424  1
  H+  H289  1  0.57246171  0.90405397  0.42935652  1
  H+  H290  1  0.60526996  0.47105280  0.67558384  1
  H+  H291  1  0.87477551  0.08500137  0.58001479  1
  H+  H292  1  0.08246647  0.43659038  0.07227153  1
  H+  H293  1  0.33709386  0.17899359  0.04344391  1
  H+  H294  1  0.20748270  0.59571254  0.94416322  1
  H+  H295  1  0.65931511  0.83659846  0.59666620  1
  H+  H296  1  0.49643793  0.67023708  0.30078469  1
  H+  H297  1  0.84307475  -0.08378779  0.59044034  1
  H+  H298  1  0.65960235  0.55579133  0.56449192  1
  H+  H299  1  0.58936970  0.18064140  0.40897219  1
  H+  H300  1  0.87156228  0.47056992  0.83160998  1
  H+  H301  1  0.84721445  0.64502537  0.48635721  1
  H+  H302  1  0.64254238  0.12178123  0.34813653  1
  H+  H303  1  0.53034800  0.62232885  0.82993461  1
  H+  H304  1  0.67832052  0.11497897  0.89400453  1
  H+  H305  1  0.59111725  0.64616575  0.06048360  1
  H+  H306  1  0.69252895  0.32574152  0.91941827  1
  H+  H307  1  0.41542551  0.33096581  0.54806189  1
  H+  H308  1  0.41163904  0.58064697  0.21468865  1
  H+  H309  1  0.08209578  0.90918346  0.76951152  1
  H+  H310  1  0.08855895  0.18341078  0.72739948  1
  H+  H311  1  0.57802296  0.16444773  0.11029675  1
  H+  H312  1  0.53866906  0.53743155  0.40670747  1
  H+  H313  1  0.17020816  0.85571934  0.21967988  1
  H+  H314  1  0.82784833  0.90899583  0.09994917  1
  H+  H315  1  0.38430755  0.79171446  0.21839327  1
  H+  H316  1  0.39329928  0.11933919  0.16031419  1
  H+  H317  1  0.09556365  0.44150772  0.73170603  1
  H+  H318  1  0.94218385  0.31659963  0.25506996  1
  H+  H319  1  -0.02518468  0.43910496  0.14231469  1
  H+  H320  1  0.70927287  0.21983578  0.96104038  1
  H+  H321  1  0.19199897  0.08758214  0.61941751  1
  H+  H322  1  0.83104832  0.66053150  0.10148918  1
  H+  H323  1  0.92573089  0.83929490  0.26898465  1
  H+  H324  1  0.17560265  0.39833074  1.01516060  1
  H+  H325  1  0.42915310  0.58354547  0.90649059  1
  H+  H326  1  0.08406508  0.42134433  0.40883718  1
  H+  H327  1  0.57155523  0.92451003  0.72639451  1
  H+  H328  1  0.34328906  0.91703019  0.42887275  1
  H+  H329  1  0.38708271  0.34234177  0.92450241  1
  H+  H330  1  0.61843074  0.78686116  0.25697177  1
  H+  H331  1  0.05675051  0.87647911  0.04644937  1
  H+  H332  1  0.55255185  1.01748949  -0.00013797  1
  H+  H333  1  0.92182661  0.58610824  0.28005633  1
  H+  H334  1  0.58607152  0.39602530  0.05956638  1
  H+  H335  1  0.92565465  0.82134236  0.61649665  1
  H+  H336  1  0.14513282  0.26611318  0.31978202  1
  H+  H337  1  0.19602801  0.40424011  0.57440686  1
  H+  H338  1  0.41676294  0.83604426  0.55996315  1
  H+  H339  1  0.18937796  0.36306526  0.91052040  1
  H+  H340  1  0.91898684  0.34163882  0.57098181  1
  H+  H341  1  0.40530925  0.57376416  0.59680303  1
  H+  H342  1  0.15025074  0.07300445  0.93206682  1
  H+  H343  1  0.92648251  0.11274680  0.26230237  1
  H+  H344  1  0.72614622  0.36040750  0.48722084  1
  H+  H345  1  0.34656376  0.65274465  0.40928019  1
  H+  H346  1  0.59745947  0.66352046  0.44808025  1
  H+  H347  1  0.82284859  0.84042611  0.45329086  1
  H+  H348  1  0.52878170  0.94648676  0.09207950  1
  H+  H349  1  0.72042913  0.36646373  0.66807436  1
  H+  H350  1  0.72211940  0.61188598  0.30974871  1
  H+  H351  1  0.40987249  0.07375705  0.61001025  1
  H+  H352  1  0.65893572  0.57865523  0.22834301  1
  H+  H353  1  0.09608899  0.67956971  0.10686860  1
  H+  H354  1  0.36475063  0.08845765  0.25362906  1
  H+  H355  1  0.88407295  0.01519093  0.16927029  1
  H+  H356  1  0.14968657  0.83692486  0.59452499  1
  H+  H357  1  0.13052082  0.13446204  0.47891758  1
  H+  H358  1  0.90194808  0.59364128  0.56664929  1
  H+  H359  1  0.67189605  0.56536225  0.92484917  1
  H+  H360  1  0.70430837  0.80275939  0.88775332  1
  H+  H361  1  0.37457516  0.66850283  0.77955579  1
  H+  H362  1  0.48394785  0.12893930  0.81380616  1
  H+  H363  1  0.22778555  0.06224489  0.32132238  1
  H+  H364  1  0.40707679  0.32610245  0.22588581  1
  H+  H365  1  0.15972389  0.77323002  0.29255162  1
  H+  H366  1  0.29347506  0.40553334  0.06521910  1
  H+  H367  1  0.83503413  0.41455795  0.73924097  1
  H+  H368  1  0.65930355  0.06256682  0.23268355  1
  H+  H369  1  0.34701289  0.07433024  0.52475392  1
  H+  H370  1  0.21298247  0.74584595  0.05158865  1
  H+  H371  1  0.59182046  0.17817463  0.72994219  1
  H+  H372  1  0.06148326  0.14880166  0.05548078  1
  H+  H373  1  0.82173317  0.17786728  0.43925586  1
  H+  H374  1  0.65956457  0.08541393  0.59984110  1
  H+  H375  1  0.03628703  0.23906833  0.78983759  1
  H+  H376  1  0.30035041  0.65878805  0.70941814  1
  H+  H377  1  0.84154305  0.17750337  0.06509825  1
  H+  H378  1  0.21320491  0.00211012  0.55283390  1
  H+  H379  1  0.82572751  0.64920923  0.77170903  1
  H+  H380  1  0.64918428  0.32196998  0.25240535  1
  H+  H381  1  0.33533388  0.42602524  0.73025507  1
  H+  H382  1  0.07314506  0.67052765  0.72762010  1
  H+  H383  1  0.89179488  0.27779468  0.33341169  1
  O2-  O384  1  0.12589976  0.18989869  0.13559603  1
  O2-  O385  1  0.17786844  0.12487281  0.46877467  1
  O2-  O386  1  0.06973539  0.21437576  0.80599844  1
  O2-  O387  1  0.02862695  0.43449450  0.14368744  1
  O2-  O388  1  0.08735822  0.45263470  0.47883029  1
  O2-  O389  1  0.10526874  0.43984157  0.81437401  1
  O2-  O390  1  0.08556679  0.68467476  0.15031274  1
  O2-  O391  1  0.09993803  0.68312650  0.49845362  1
  O2-  O392  1  0.06612263  0.65452926  0.80623966  1
  O2-  O393  1  0.09312312  0.94304784  0.14618012  1
  O2-  O394  1  0.08466740  0.85032938  0.48564412  1
  O2-  O395  1  0.08603127  0.90211651  0.81438541  1
  O2-  O396  1  0.34419537  0.17629172  0.12242192  1
  O2-  O397  1  0.33127162  0.22673125  0.41221991  1
  O2-  O398  1  0.31798370  0.16656723  0.85040129  1
  O2-  O399  1  0.31492888  0.40828605  0.13497770  1
  O2-  O400  1  0.33905677  0.43307087  0.47634423  1
  O2-  O401  1  0.34063380  0.43245434  0.80796133  1
  O2-  O402  1  0.33539545  0.64744412  0.11236626  1
  O2-  O403  1  0.34897529  0.66788449  0.48161579  1
  O2-  O404  1  0.36343612  0.67552495  0.82178276  1
  O2-  O405  1  0.32770497  0.91982929  0.15034359  1
  O2-  O406  1  0.34651285  0.91893163  0.47439642  1
  O2-  O407  1  0.30816473  0.88330292  0.79809930  1
  O2-  O408  1  0.57951236  0.16386764  0.15639016  1
  O2-  O409  1  0.54918761  0.15764237  0.48379893  1
  O2-  O410  1  0.60181739  0.19514944  0.80319940  1
  O2-  O411  1  0.59303569  0.41073668  0.14347420  1
  O2-  O412  1  0.54130402  0.46102880  0.44930495  1
  O2-  O413  1  0.56066029  0.39053129  0.80847770  1
  O2-  O414  1  0.58625180  0.65546929  0.13633058  1
  O2-  O415  1  0.60165202  0.68681942  0.48922054  1
  O2-  O416  1  0.58666217  0.63749560  0.81060617  1
  O2-  O417  1  0.54535999  0.92220901  0.12774197  1
  O2-  O418  1  0.57882617  0.91422127  0.47361665  1
  O2-  O419  1  0.57274445  0.94032211  0.80942024  1
  O2-  O420  1  0.83756272  0.16803845  0.14975010  1
  O2-  O421  1  0.81046885  0.17874410  0.48333759  1
  O2-  O422  1  0.83843331  0.17416009  0.81184895  1
  O2-  O423  1  0.88437900  0.43446729  0.16635191  1
  O2-  O424  1  0.83014716  0.42270791  0.48368687  1
  O2-  O425  1  0.84543200  0.41006878  0.81712041  1
  O2-  O426  1  0.82991442  0.66252094  0.14657366  1
  O2-  O427  1  0.79946471  0.64601199  0.46450190  1
  O2-  O428  1  0.82614686  0.64173676  0.81699427  1
  O2-  O429  1  0.83087521  0.91209464  0.14585742  1
  O2-  O430  1  0.84193440  0.91121080  0.51535024  1
  O2-  O431  1  0.87511910  0.90055072  0.79660599  1
  O2-  O432  1  0.17349502  0.09451042  0.20316064  1
  O2-  O433  1  0.24698866  0.06452255  0.54960883  1
  O2-  O434  1  0.14898861  0.07182513  0.85638710  1
  O2-  O435  1  0.15614918  0.33871369  0.18847182  1
  O2-  O436  1  0.21469817  0.44589876  0.54062817  1
  O2-  O437  1  0.18477719  0.35969008  0.86556640  1
  O2-  O438  1  0.13909018  0.57392282  0.19808526  1
  O2-  O439  1  0.16585064  0.65772850  0.50886608  1
  O2-  O440  1  0.21047612  0.60541733  0.86233602  1
  O2-  O441  1  0.16822861  0.85741758  0.17470200  1
  O2-  O442  1  0.15151742  0.83712558  0.51685006  1
  O2-  O443  1  0.16021026  0.82109029  0.84405964  1
  O2-  O444  1  0.41340443  0.09011584  0.18854746  1
  O2-  O445  1  0.39252443  0.05814169  0.52466226  1
  O2-  O446  1  0.42252374  0.08518137  0.81504124  1
  O2-  O447  1  0.41171953  0.32773501  0.18068397  1
  O2-  O448  1  0.40885805  0.33532279  0.50340376  1
  O2-  O449  1  0.40370141  0.34155641  0.85823652  1
  O2-  O450  1  0.41454749  0.57475901  0.17057397  1
  O2-  O451  1  0.42985665  0.58369463  0.53114684  1
  O2-  O452  1  0.43165338  0.58690867  0.86147296  1
  O2-  O453  1  0.38523681  0.80131723  0.17405268  1
  O2-  O454  1  0.41729804  0.83393025  0.51392827  1
  O2-  O455  1  0.40155996  0.82755277  0.83916391  1
  O2-  O456  1  0.66414377  0.07050125  0.18860981  1
  O2-  O457  1  0.64458180  0.08453163  0.51811703  1
  O2-  O458  1  0.67251033  0.10040019  0.84973818  1
  O2-  O459  1  0.69492684  0.33930793  0.17887538  1
  O2-  O460  1  0.66158405  0.32493433  0.48166586  1
  O2-  O461  1  0.68919577  0.34609839  0.85807557  1
  O2-  O462  1  0.66188098  0.57893554  0.18207262  1
  O2-  O463  1  0.66319627  0.53876864  0.52231753  1
  O2-  O464  1  0.65467786  0.55056655  0.85832490  1
  O2-  O465  1  0.65787864  0.80756781  0.18567008  1
  O2-  O466  1  0.67113681  0.84961391  0.51799849  1
  O2-  O467  1  0.70996618  0.79997516  0.84267808  1
  O2-  O468  1  0.91539683  0.07766790  0.18140245  1
  O2-  O469  1  0.84161368  0.07059583  0.54141792  1
  O2-  O470  1  0.91285454  0.09010743  0.86033097  1
  O2-  O471  1  0.95756321  0.30220335  0.20984424  1
  O2-  O472  1  0.92100510  0.34605208  0.52569969  1
  O2-  O473  1  0.94024950  0.34250684  0.85185645  1
  O2-  O474  1  0.92507059  0.59691193  0.20090699  1
  O2-  O475  1  0.90443177  0.59889401  0.52190401  1
  O2-  O476  1  0.91675835  0.57731335  0.85448324  1
  O2-  O477  1  0.91831962  0.83248981  0.18460115  1
  O2-  O478  1  0.92557399  0.81853328  0.54397854  1
  O2-  O479  1  0.91254702  0.94948577  0.84732562  1
  O2-  O480  1  0.18064723  0.05084195  0.34981162  1
  O2-  O481  1  0.17238285  0.09028993  0.66072808  1
  O2-  O482  1  0.15725121  0.07460029  0.97753850  1
  O2-  O483  1  0.16617418  0.32812040  0.31354630  1
  O2-  O484  1  0.17067509  0.34766339  0.64816329  1
  O2-  O485  1  0.20365993  0.36682540  0.99685165  1
  O2-  O486  1  0.15255114  0.58041011  0.32064758  1
  O2-  O487  1  0.15137661  0.59654303  0.62971121  1
  O2-  O488  1  0.20320164  0.59605722  0.98929896  1
  O2-  O489  1  0.18482678  0.83524978  0.29700437  1
  O2-  O490  1  0.15256338  0.83633692  0.64033926  1
  O2-  O491  1  0.16167270  0.83437449  0.96449782  1
  O2-  O492  1  0.32706237  0.07826097  0.29047107  1
  O2-  O493  1  0.41211122  0.07507448  0.65471186  1
  O2-  O494  1  0.43032099  0.09512018  0.97753533  1
  O2-  O495  1  0.40401846  0.33365051  0.30678622  1
  O2-  O496  1  0.41895439  0.33357880  0.63058416  1
  O2-  O497  1  0.37297785  0.33359679  0.97094990  1
  O2-  O498  1  0.45040084  0.61236095  0.31448639  1
  O2-  O499  1  0.38766902  0.57005440  0.64241412  1
  O2-  O500  1  0.42160543  0.57585547  0.98868824  1
  O2-  O501  1  0.38297322  0.78414027  0.30508775  1
  O2-  O502  1  0.41016378  0.83613004  0.63507263  1
  O2-  O503  1  0.38122802  0.81395231  0.96045304  1
  O2-  O504  1  0.65423771  0.07359419  0.33846600  1
  O2-  O505  1  0.66307664  0.08353177  0.64487198  1
  O2-  O506  1  0.69648774  0.15878863  0.96703214  1
  O2-  O507  1  0.60957730  0.30572021  0.28782702  1
  O2-  O508  1  0.66086162  0.33956724  0.65236797  1
  O2-  O509  1  0.70335954  0.31112695  0.96519884  1
  O2-  O510  1  0.65687805  0.57816019  0.30191270  1
  O2-  O511  1  0.65896253  0.57153190  0.64682259  1
  O2-  O512  1  0.68116467  0.57671030  0.97159659  1
  O2-  O513  1  0.58951147  0.77323862  0.29798007  1
  O2-  O514  1  0.66179850  0.83404663  0.64209494  1
  O2-  O515  1  0.67883297  0.79718681  0.96386536  1
  O2-  O516  1  0.93990057  0.14118080  0.30230921  1
  O2-  O517  1  0.91366447  0.08752547  0.65247359  1
  O2-  O518  1  0.89266269  0.06676639  0.98179450  1
  O2-  O519  1  0.92921382  0.33470113  0.31298975  1
  O2-  O520  1  0.91499825  0.33494992  0.65006721  1
  O2-  O521  1  0.94974752  0.34422591  0.97660561  1
  O2-  O522  1  0.91011993  0.57860601  0.32461155  1
  O2-  O523  1  0.90307795  0.58087562  0.65027829  1
  O2-  O524  1  0.91815230  0.58121788  0.97977973  1
  O2-  O525  1  0.92571376  0.83688603  0.31402336  1
  O2-  O526  1  0.91933885  0.82806296  0.66170397  1
  O2-  O527  1  0.89791776  0.80978133  0.97578820  1
  O2-  O528  1  0.05762858  0.14414957  0.01123682  1
  O2-  O529  1  0.10390746  0.14942500  0.31190498  1
  O2-  O530  1  0.08853430  0.17822440  0.68271039  1
  O2-  O531  1  0.10322457  0.43395383  0.03083101  1
  O2-  O532  1  0.08037607  0.41041495  0.36323548  1
  O2-  O533  1  0.08718782  0.43132543  0.68712605  1
  O2-  O534  1  0.15753605  0.70594940  0.03339450  1
  O2-  O535  1  0.06890308  0.66114615  0.38158825  1
  O2-  O536  1  0.07473950  0.67193960  0.68242007  1
  O2-  O537  1  0.07459566  0.90225613  0.00633308  1
  O2-  O538  1  0.09197964  0.87751481  0.36138306  1
  O2-  O539  1  0.08152950  0.92493472  0.69391984  1
  O2-  O540  1  0.32601322  0.17966774  -0.00107563  1
  O2-  O541  1  0.33884402  0.14850758  0.41465680  1
  O2-  O542  1  0.35090801  0.17380589  0.68991703  1
  O2-  O543  1  0.29381956  0.41110273  0.01817755  1
  O2-  O544  1  0.32988363  0.42385471  0.34968043  1
  O2-  O545  1  0.33178280  0.42353942  0.68467926  1
  O2-  O546  1  0.35890737  0.66710189  0.04755032  1
  O2-  O547  1  0.34443675  0.64378921  0.36338500  1
  O2-  O548  1  0.30835607  0.65924033  0.66547219  1
  O2-  O549  1  0.33476037  0.92539576  -0.00271777  1
  O2-  O550  1  0.33610811  0.89881153  0.35264284  1
  O2-  O551  1  0.31983110  0.91091748  0.68285777  1
  O2-  O552  1  0.57773593  0.17308748  0.03704693  1
  O2-  O553  1  0.63216592  0.20379221  0.37495681  1
  O2-  O554  1  0.58608019  0.16765240  0.68458081  1
  O2-  O555  1  0.57773110  0.38360784  0.01552430  1
  O2-  O556  1  0.57966875  0.41651251  0.34048099  1
  O2-  O557  1  0.57214841  0.40925039  0.68928896  1
  O2-  O558  1  0.58985074  0.64093884  0.01480225  1
  O2-  O559  1  0.55224672  0.58895225  0.38048556  1
  O2-  O560  1  0.58370262  0.66116355  0.68112462  1
  O2-  O561  1  0.50883617  0.97150887  0.02480461  1
  O2-  O562  1  0.54554487  0.88639162  0.34416200  1
  O2-  O563  1  0.57074679  0.91870251  0.68158677  1
  O2-  O564  1  0.84441921  0.18007170  0.02015029  1
  O2-  O565  1  0.83419742  0.17817423  0.35914229  1
  O2-  O566  1  0.82964592  0.16807443  0.68903526  1
  O2-  O567  1  0.85619376  0.42541032  0.01142209  1
  O2-  O568  1  0.83547263  0.41234265  0.36268857  1
  O2-  O569  1  0.83104224  0.41719600  0.69395878  1
  O2-  O570  1  0.82782364  0.65499287  0.01837453  1
  O2-  O571  1  0.81945965  0.66061397  0.30824268  1
  O2-  O572  1  0.82196006  0.65940701  0.69613082  1
  O2-  O573  1  0.83047191  0.90584870  0.02430429  1
  O2-  O574  1  0.80918571  0.79550941  0.42182691  1
  O2-  O575  1  0.83918019  0.91876264  0.63652594  1
