# generated using pymatgen
data_H2O
_symmetry_space_group_name_H-M   'P 1'
_cell_length_a   17.97942418
_cell_length_b   17.98863245
_cell_length_c   21.99828265
_cell_angle_alpha   90.06051180
_cell_angle_beta   89.98029084
_cell_angle_gamma   120.00920543
_symmetry_Int_Tables_number   1
_chemical_formula_structural   H2O
_chemical_formula_sum   'H384 O192'
_cell_volume   6161.02245660
_cell_formula_units_Z   192
loop_
 _symmetry_equiv_pos_site_id
 _symmetry_equiv_pos_as_xyz
  1  'x, y, z'
loop_
 _atom_type_symbol
 _atom_type_oxidation_number
  H+  1.0
  O2-  -2.0
loop_
 _atom_site_type_symbol
 _atom_site_label
 _atom_site_symmetry_multiplicity
 _atom_site_fract_x
 _atom_site_fract_y
 _atom_site_fract_z
 _atom_site_occupancy
  H+  H0  1  0.35858335  0.40401376  0.34748662  1
  H+  H1  1  0.45062162  0.11049165  0.29132767  1
  H+  H2  1  0.61351132  0.73589511  0.51285678  1
  H+  H3  1  0.37526735  0.89643535  0.49751643  1
  H+  H4  1  0.43930118  0.28285724  0.99752538  1
  H+  H5  1  0.72881005  0.86109745  0.33050041  1
  H+  H6  1  0.51631087  0.87200029  0.99439359  1
  H+  H7  1  0.37128154  0.75445494  0.84500291  1
  H+  H8  1  0.72419064  0.85630782  0.98908624  1
  H+  H9  1  0.13997359  0.29471693  0.51346471  1
  H+  H10  1  0.12497370  0.47938502  0.68708033  1
  H+  H11  1  0.37456136  0.49822450  0.83555418  1
  H+  H12  1  0.15339839  0.53743306  0.85318133  1
  H+  H13  1  0.48852473  0.86692055  0.17666137  1
  H+  H14  1  0.75940280  0.62122009  0.16411930  1
  H+  H15  1  0.37441366  0.63268623  0.69396788  1
  H+  H16  1  0.14878450  0.04773535  0.49024689  1
  H+  H17  1  0.86216733  0.20535005  0.15412607  1
  H+  H18  1  0.60467959  -0.02152482  0.51076010  1
  H+  H19  1  0.70700686  0.37084937  0.15942497  1
  H+  H20  1  0.77211894  0.63754268  0.82389359  1
  H+  H21  1  0.35453387  0.23729808  0.13785239  1
  H+  H22  1  0.10104920  0.21110594  0.33806521  1
  H+  H23  1  0.88331028  0.51333398  0.98485514  1
  H+  H24  1  0.47314058  0.09377739  -0.02194220  1
  H+  H25  1  0.86608175  0.65179583  0.34310632  1
  H+  H26  1  0.65249925  0.54001985  0.51361214  1
  H+  H27  1  0.76728147  0.87133392  0.49862352  1
  H+  H28  1  0.38293587  0.60443039  0.00059739  1
  H+  H29  1  0.86762118  0.37875827  -0.00362961  1
  H+  H30  1  0.18118051  0.58738862  0.61769999  1
  H+  H31  1  0.12961595  0.15153752  0.66924272  1
  H+  H32  1  0.77305620  0.89060741  0.64686413  1
  H+  H33  1  0.39007417  0.11556785  0.65044918  1
  H+  H34  1  0.53501107  0.13781199  0.18324568  1
  H+  H35  1  0.84565719  0.87040906  0.15054286  1
  H+  H36  1  0.37290478  0.37205580  0.17870952  1
  H+  H37  1  0.62737363  0.51773255  0.17052527  1
  H+  H38  1  0.37978325  0.55167966  0.51156329  1
  H+  H39  1  0.91473859  0.58729057  0.39158279  1
  H+  H40  1  0.91008539  0.34007759  0.74716850  1
  H+  H41  1  0.24417214  0.40461921  0.15224793  1
  H+  H42  1  0.63218182  0.60416456  0.83258301  1
  H+  H43  1  0.62862592  0.60665504  0.17130746  1
  H+  H44  1  0.14487394  0.02449345  0.84605636  1
  H+  H45  1  0.12573223  0.10667297  0.32226090  1
  H+  H46  1  0.13992907  0.61921110  0.85472187  1
  H+  H47  1  0.35234010  0.47041872  1.00755796  1
  H+  H48  1  0.61127037  0.88100091  0.36213548  1
  H+  H49  1  0.94359703  0.84029674  0.14159069  1
  H+  H50  1  0.17041658  0.91926369  0.49986885  1
  H+  H51  1  0.39743252  0.63767665  0.85432415  1
  H+  H52  1  0.16917362  0.82596455  0.89578709  1
  H+  H53  1  0.37307557  1.01727149  0.19155718  1
  H+  H54  1  0.36343379  0.24226084  0.82716448  1
  H+  H55  1  0.35376915  0.48964558  0.34513310  1
  H+  H56  1  0.38155320  0.29481299  0.32484621  1
  H+  H57  1  0.63251432  0.85511724  -0.01134928  1
  H+  H58  1  0.48263129  0.24581939  0.25093215  1
  H+  H59  1  0.87085314  -0.00189539  0.82961993  1
  H+  H60  1  0.12656085  0.78936503  0.61724185  1
  H+  H61  1  0.12596805  0.14954124  0.83196450  1
  H+  H62  1  0.85686929  0.47751136  0.66446516  1
  H+  H63  1  0.11998766  0.61418613  0.17671765  1
  H+  H64  1  0.34954980  0.70435542  0.01375856  1
  H+  H65  1  0.40872365  0.07460263  0.92176836  1
  H+  H66  1  0.61704614  -0.03045554  0.15318157  1
  H+  H67  1  0.37176584  0.71863835  0.68045498  1
  H+  H68  1  0.84849682  0.95885955  0.48232183  1
  H+  H69  1  0.37782025  0.24181107  0.66859355  1
  H+  H70  1  0.11902236  0.40816012  0.50192494  1
  H+  H71  1  0.52164890  0.13223769  0.65953728  1
  H+  H72  1  0.60925593  0.47593806  0.81411450  1
  H+  H73  1  0.76024126  0.87406988  0.13453594  1
  H+  H74  1  0.13676935  0.52993085  0.32456914  1
  H+  H75  1  0.23265348  0.11712343  0.83901734  1
  H+  H76  1  0.89053362  0.01130238  0.98228608  1
  H+  H77  1  0.51410282  0.62016560  0.15749856  1
  H+  H78  1  0.87862129  1.00382273  0.16982381  1
  H+  H79  1  0.62628624  0.26036473  0.65170501  1
  H+  H80  1  0.39380153  0.78251323  0.17924925  1
  H+  H81  1  0.47452950  0.61914367  0.33370618  1
  H+  H82  1  0.38199619  0.17774189  0.47969147  1
  H+  H83  1  0.46786628  0.63861563  0.51511989  1
  H+  H84  1  0.62566782  0.34149781  0.98437497  1
  H+  H85  1  0.86406025  -0.02592199  0.66226643  1
  H+  H86  1  0.99583525  0.48809337  0.13646427  1
  H+  H87  1  0.26100816  0.61487578  0.01727816  1
  H+  H88  1  0.01724785  0.86552124  0.00484992  1
  H+  H89  1  0.12919867  0.86606765  0.65861670  1
  H+  H90  1  0.65360171  0.10691642  0.97738304  1
  H+  H91  1  0.85584958  0.13130845  0.33240051  1
  H+  H92  1  0.37586777  0.76269129  0.32613287  1
  H+  H93  1  0.79389620  0.13585463  -0.00384848  1
  H+  H94  1  0.90124959  0.10534495  -0.01804122  1
  H+  H95  1  0.89272641  0.61655194  0.66470955  1
  H+  H96  1  0.16729564  0.04816575  0.62877727  1
  H+  H97  1  0.01703530  0.65060200  0.17378937  1
  H+  H98  1  0.09925374  0.68370888  0.67400864  1
  H+  H99  1  0.40668829  0.18297065  0.20690956  1
  H+  H100  1  0.33740409  0.18530059  0.76611102  1
  H+  H101  1  0.52511233  0.39207195  0.66402696  1
  H+  H102  1  0.23407784  0.35644142  0.32441081  1
  H+  H103  1  0.38008124  0.78610420  0.50695802  1
  H+  H104  1  0.85090341  0.62608246  0.17266923  1
  H+  H105  1  0.88457735  0.26993543  0.48178632  1
  H+  H106  1  0.81857871  0.90569073  0.75530155  1
  H+  H107  1  0.60757458  0.87782713  0.13534292  1
  H+  H108  1  0.10667541  0.67988933  0.39438365  1
  H+  H109  1  0.39720064  0.40751483  0.65892374  1
  H+  H110  1  0.70771575  0.11077978  0.50774048  1
  H+  H111  1  0.57361432  0.91198659  0.05354993  1
  H+  H112  1  0.09939386  0.20542815  0.15409095  1
  H+  H113  1  0.84692135  0.47862065  0.82369772  1
  H+  H114  1  0.66341806  0.58522827  0.26855503  1
  H+  H115  1  0.64392582  0.62427567  0.51292513  1
  H+  H116  1  0.62666292  -0.03151841  0.81115711  1
  H+  H117  1  0.85272777  0.44033602  0.13478327  1
  H+  H118  1  1.03203656  0.39422038  0.69602811  1
  H+  H119  1  0.98670614  0.62208645  0.34112161  1
  H+  H120  1  0.13180117  0.84761110  0.98957098  1
  H+  H121  1  0.01589051  0.11222795  0.15771042  1
  H+  H122  1  0.47290020  0.86051585  0.65774454  1
  H+  H123  1  0.60545515  0.61480909  -0.00005626  1
  H+  H124  1  0.12089066  0.35335971  0.98231057  1
  H+  H125  1  0.15670289  0.87086471  0.16981057  1
  H+  H126  1  0.80651388  0.49006316  0.11133315  1
  H+  H127  1  0.14157440  0.11091320  0.16523867  1
  H+  H128  1  0.62911690  0.75717892  0.82977270  1
  H+  H129  1  0.15432817  0.78400917  0.32370060  1
  H+  H130  1  0.99675486  0.12207300  0.66886834  1
  H+  H131  1  0.85927438  0.22281756  0.34123101  1
  H+  H132  1  0.38040844  0.12035675  0.84041088  1
  H+  H133  1  0.76706799  0.38676150  0.66295769  1
  H+  H134  1  0.03098587  0.88959022  0.32884010  1
  H+  H135  1  0.88050995  0.36306448  0.34445775  1
  H+  H136  1  0.11519527  0.34221314  0.17068587  1
  H+  H137  1  0.53502019  0.48833403  0.40298568  1
  H+  H138  1  0.23189790  0.84749940  0.16203639  1
  H+  H139  1  0.86309060  0.88290452  0.33512897  1
  H+  H140  1  0.37963305  0.13130821  -0.00218985  1
  H+  H141  1  0.09037149  0.93121496  0.42534470  1
  H+  H142  1  0.28427866  0.89362671  0.33874156  1
  H+  H143  1  0.43194138  0.50641252  0.20161481  1
  H+  H144  1  0.72472494  0.10641186  0.66673982  1
  H+  H145  1  0.88143412  0.85937025  0.83558601  1
  H+  H146  1  0.12207843  0.89206386  0.33198964  1
  H+  H147  1  0.15433938  0.28636550  0.83573619  1
  H+  H148  1  0.24463552  0.61081722  0.67659939  1
  H+  H149  1  0.71457470  0.36829093  0.82785640  1
  H+  H150  1  0.77657388  0.63878015  0.68528207  1
  H+  H151  1  -0.08622351  0.33350712  0.40026503  1
  H+  H152  1  0.58807667  0.16256264  0.24230186  1
  H+  H153  1  0.31451696  0.67513443  0.10408149  1
  H+  H154  1  0.36458670  0.87531851  0.14277019  1
  H+  H155  1  0.60396803  0.87081725  0.81398821  1
  H+  H156  1  0.58987829  0.37989105  0.15264773  1
  H+  H157  1  0.14549031  0.36644196  0.67732581  1
  H+  H158  1  0.03449672  0.11115857  -0.00245455  1
  H+  H159  1  0.26916323  0.87130790  -0.01006612  1
  H+  H160  1  0.64699902  0.10319958  0.18092945  1
  H+  H161  1  0.25364780  0.86759291  0.81566798  1
  H+  H162  1  0.10232439  0.62241656  0.01446302  1
  H+  H163  1  1.01693073  0.63183519  0.83565728  1
  H+  H164  1  0.24355839  0.37790638  0.83716593  1
  H+  H165  1  0.81143053  0.28774009  0.17762957  1
  H+  H166  1  0.25970423  0.38657657  0.00791895  1
  H+  H167  1  0.51158988  0.39982609  0.15561171  1
  H+  H168  1  0.74732845  0.09729930  0.83027921  1
  H+  H169  1  0.47243143  0.60385374  0.99599854  1
  H+  H170  1  0.36932412  0.41571588  0.49724963  1
  H+  H171  1  0.12520148  0.64270125  0.33430842  1
  H+  H172  1  -0.03037947  0.60423700  -0.00450902  1
  H+  H173  1  0.62970078  0.37055557  0.32433748  1
  H+  H174  1  0.88171040  0.77085731  0.83696076  1
  H+  H175  1  1.01715686  0.65162105  0.59170463  1
  H+  H176  1  0.46805052  0.38732808  0.33787913  1
  H+  H177  1  0.49207460  0.88967877  0.81620885  1
  H+  H178  1  0.47521589  0.87190567  0.51391644  1
  H+  H179  1  0.38914618  -0.00847349  0.20815419  1
  H+  H180  1  0.39596639  0.30420325  0.49923399  1
  H+  H181  1  0.88409406  0.61802781  0.83992115  1
  H+  H182  1  0.88296478  0.86105100  0.65382166  1
  H+  H183  1  0.05633464  0.89844977  0.18028045  1
  H+  H184  1  0.29021374  0.15668333  0.66112222  1
  H+  H185  1  0.95337950  0.41472526  0.18432053  1
  H+  H186  1  0.64988516  0.01777560  0.98277845  1
  H+  H187  1  0.61068961  0.64184008  0.34667599  1
  H+  H188  1  0.48142288  0.37374425  0.83623169  1
  H+  H189  1  0.12572989  0.23830822  0.67724882  1
  H+  H190  1  0.65992288  0.57089274  0.89135488  1
  H+  H191  1  0.10884893  0.87964816  0.83518860  1
  H+  H192  1  0.03633943  -0.09374540  0.48783458  1
  H+  H193  1  0.62207127  0.75622625  0.13259267  1
  H+  H194  1  0.61156042  0.13355428  0.66765491  1
  H+  H195  1  0.09651450  0.13907665  0.49162081  1
  H+  H196  1  0.00869264  0.12438290  0.33572242  1
  H+  H197  1  0.97487427  0.36362477  0.48689953  1
  H+  H198  1  0.62447278  0.35197933  0.65221996  1
  H+  H199  1  0.37521068  0.83562245  0.98150281  1
  H+  H200  1  0.43891066  0.35006461  0.90189181  1
  H+  H201  1  0.36615872  0.52762086  0.17237061  1
  H+  H202  1  0.38023253  0.41134094  0.83371265  1
  H+  H203  1  0.26560102  0.88029670  0.66044498  1
  H+  H204  1  0.61371342  0.21198136  -0.01518602  1
  H+  H205  1  0.87443437  0.14189320  0.67159245  1
  H+  H206  1  0.27131287  0.64113432  0.33545201  1
  H+  H207  1  0.71197261  0.58676212  0.99017332  1
  H+  H208  1  0.72854506  0.62303799  0.32587890  1
  H+  H209  1  0.79329534  0.27910871  0.14587414  1
  H+  H210  1  0.12304788  0.48738132  0.14826916  1
  H+  H211  1  0.22027021  0.27566379  0.28879235  1
  H+  H212  1  0.28671821  0.66768066  0.86717057  1
  H+  H213  1  0.86729152  0.75283880  0.16510655  1
  H+  H214  1  0.13236252  0.54568545  0.52149940  1
  H+  H215  1  0.97121471  0.86096707  0.66391375  1
  H+  H216  1  0.38224332  0.86108216  0.32834192  1
  H+  H217  1  0.15234484  0.11506636  0.99610386  1
  H+  H218  1  0.62102063  0.49894596  0.98434433  1
  H+  H219  1  0.76365984  0.39069088  0.32986020  1
  H+  H220  1  0.88067236  0.61892169  0.47079924  1
  H+  H221  1  0.29445988  0.74636865  0.12819529  1
  H+  H222  1  0.85143598  0.62027423  1.00521398  1
  H+  H223  1  0.36110312  0.17319882  0.30897882  1
  H+  H224  1  0.83480519  0.91221415  0.05412501  1
  H+  H225  1  0.64264155  0.53343453  0.67872793  1
  H+  H226  1  0.71823392  0.34788456  -0.02382393  1
  H+  H227  1  0.01951261  0.39707332  0.35185306  1
  H+  H228  1  0.71950059  0.35235613  0.50578371  1
  H+  H229  1  0.77396370  0.11843724  0.15764882  1
  H+  H230  1  0.88117672  0.36570820  0.68812224  1
  H+  H231  1  0.85928681  0.87447034  -0.00354920  1
  H+  H232  1  0.09671932  0.97020244  0.69785025  1
  H+  H233  1  0.42385832  0.59412486  0.90502114  1
  H+  H234  1  -0.03097145  0.59778421  0.67853724  1
  H+  H235  1  0.60988671  0.70652690  0.00159381  1
  H+  H236  1  0.89454203  0.86739859  0.50478422  1
  H+  H237  1  0.61493973  0.88535875  0.64753968  1
  H+  H238  1  0.64146757  0.61537114  0.70646562  1
  H+  H239  1  0.88591717  0.09531046  0.17109870  1
  H+  H240  1  0.23043792  0.38254330  0.51469096  1
  H+  H241  1  0.87336283  0.74170941  0.48932953  1
  H+  H242  1  0.57674336  0.40793458  0.72604890  1
  H+  H243  1  0.49451192  0.60066501  0.71529145  1
  H+  H244  1  0.58682211  0.15139910  0.04212282  1
  H+  H245  1  0.13281101  0.98638658  0.15829740  1
  H+  H246  1  0.25927067  0.13188988  0.99048652  1
  H+  H247  1  0.84094311  0.12560949  0.48336856  1
  H+  H248  1  0.13714429  0.40403623  0.83811308  1
  H+  H249  1  0.89070725  0.10365069  0.83180111  1
  H+  H250  1  0.63108750  0.35933564  0.50986435  1
  H+  H251  1  0.56896249  0.64006526  0.09474675  1
  H+  H252  1  0.89529801  0.22060177  0.83095945  1
  H+  H253  1  0.51770649  0.63159377  0.81989360  1
  H+  H254  1  0.26652182  0.15191765  0.32679828  1
  H+  H255  1  0.13065205  0.76334702  0.83861334  1
  H+  H256  1  0.28167331  0.14469914  0.15678458  1
  H+  H257  1  0.53343849  0.39675721  0.50561779  1
  H+  H258  1  0.71843331  0.10568194  0.32670978  1
  H+  H259  1  0.75951631  0.87281077  0.81574926  1
  H+  H260  1  0.35591872  0.87816818  0.66670135  1
  H+  H261  1  0.60974834  -0.03306608  0.35780402  1
  H+  H262  1  0.60385605  0.50703025  0.35300442  1
  H+  H263  1  0.63289805  0.27789861  0.18104230  1
  H+  H264  1  0.59612537  0.22773294  0.81687806  1
  H+  H265  1  0.60852327  0.72820674  0.34843084  1
  H+  H266  1  0.63831473  0.87621890  0.53190681  1
  H+  H267  1  0.11426465  0.50582139  0.99404911  1
  H+  H268  1  0.60464935  0.38445128  0.81662704  1
  H+  H269  1  0.38220912  -0.02464205  0.34096493  1
  H+  H270  1  0.13300804  0.75960505  -0.01062692  1
  H+  H271  1  1.00273927  0.35948850  0.85042296  1
  H+  H272  1  0.02028555  0.88319973  0.83640789  1
  H+  H273  1  0.57124189  0.18492924  0.49138731  1
  H+  H274  1  0.86553317  0.22498461  0.68690573  1
  H+  H275  1  0.36223695  0.64356592  0.34033339  1
  H+  H276  1  0.16039406  0.57892717  0.94405776  1
  H+  H277  1  0.21255759  0.62544130  0.17230535  1
  H+  H278  1  0.38618294  0.76997811  0.93621750  1
  H+  H279  1  0.89067598  0.78007408  0.31931570  1
  H+  H280  1  0.95327626  0.09822751  0.49823264  1
  H+  H281  1  0.65268918  0.81322660  0.07320831  1
  H+  H282  1  0.23569043  0.14048424  0.48701669  1
  H+  H283  1  0.91465578  0.53620301  0.20869883  1
  H+  H284  1  0.87219185  0.52545574  0.47387138  1
  H+  H285  1  -0.12235635  0.01455263  0.32813308  1
  H+  H286  1  0.85636888  0.47633277  0.34085382  1
  H+  H287  1  0.29078929  0.92167297  0.49617212  1
  H+  H288  1  0.83760894  0.67160097  0.76702038  1
  H+  H289  1  1.00712788  0.33100572  0.22661850  1
  H+  H290  1  0.58475251  0.68253136  0.45058715  1
  H+  H291  1  0.35528264  0.65685320  0.49828642  1
  H+  H292  1  0.99141321  0.35986700  0.23888953  1
  H+  H293  1  0.79665189  0.26266982  0.58732710  1
  H+  H294  1  0.92491779  0.27864400  1.00597447  1
  H+  H295  1  0.46648743  0.11656476  0.83472623  1
  H+  H296  1  0.87189487  0.05234562  0.54536923  1
  H+  H297  1  0.96050342  0.10953181  0.60441383  1
  H+  H298  1  0.42173104  0.38246971  0.24159324  1
  H+  H299  1  0.10192937  0.43350923  0.78272317  1
  H+  H300  1  0.84798522  0.37871839  0.48142308  1
  H+  H301  1  0.67186141  0.06409307  0.23458251  1
  H+  H302  1  0.83320889  0.68718394  0.39636645  1
  H+  H303  1  0.48670455  0.16325573  0.10320707  1
  H+  H304  1  0.81709972  0.40530319  0.04302024  1
  H+  H305  1  0.21924002  0.63464757  0.51942662  1
  H+  H306  1  0.44335152  0.12227317  0.55065094  1
  H+  H307  1  0.38283841  0.02382180  0.64435637  1
  H+  H308  1  0.19156311  0.09394371  0.92938657  1
  H+  H309  1  0.11036533  0.73272446  0.16484380  1
  H+  H310  1  0.08142133  0.65475944  0.77922107  1
  H+  H311  1  0.58153721  0.91402473  0.45416934  1
  H+  H312  1  0.51965847  0.12267084  0.39001547  1
  H+  H313  1  0.32132410  0.68126974  0.43848780  1
  H+  H314  1  0.63550480  0.01727480  0.65978496  1
  H+  H315  1  0.17624192  0.45165804  0.11740916  1
  H+  H316  1  0.31189132  0.90104120  0.74453831  1
  H+  H317  1  0.07397316  0.90304076  0.74871209  1
  H+  H318  1  0.07267576  0.66068596  0.06967518  1
  H+  H319  1  0.10280101  0.17826095  0.77027135  1
  H+  H320  1  0.65628883  0.81360343  0.89064139  1
  H+  H321  1  0.17434501  0.08825431  0.22641433  1
  H+  H322  1  0.59291260  0.42675611  0.44801421  1
  H+  H323  1  0.65798176  0.32356893  0.57581582  1
  H+  H324  1  0.90811118  0.82001534  0.93134728  1
  H+  H325  1  0.94079184  0.31943632  0.90647898  1
  H+  H326  1  0.08252269  0.13583875  0.06269626  1
  H+  H327  1  0.91356892  0.59571802  0.26050243  1
  H+  H328  1  0.93036047  0.84322089  0.56356648  1
  H+  H329  1  0.65939361  0.83717985  0.27771351  1
  H+  H330  1  0.84485890  0.15292855  0.05796400  1
  H+  H331  1  0.04661356  0.39146479  0.05579817  1
  H+  H332  1  0.65143741  0.32981426  0.88535666  1
  H+  H333  1  0.81204982  0.15616685  0.42576458  1
  H+  H334  1  0.34476734  0.19706996  0.41961517  1
  H+  H335  1  0.58776287  0.90282833  0.71469259  1
  H+  H336  1  0.82612963  0.90017153  0.39735174  1
  H+  H337  1  0.87407886  0.75695054  -0.01055652  1
  H+  H338  1  0.10542566  0.39531255  0.33981373  1
  H+  H339  1  0.90952039  0.58332858  0.89917037  1
  H+  H340  1  0.09652292  0.44074302  0.44115543  1
  H+  H341  1  0.65972067  0.08480258  0.57136604  1
  H+  H342  1  0.32109109  0.32322968  0.63549518  1
  H+  H343  1  0.81859910  0.64809086  0.06374272  1
  H+  H344  1  0.35600593  0.16509638  0.05885168  1
  H+  H345  1  0.90659044  0.06715250  0.26550806  1
  H+  H346  1  0.85780490  0.16360284  0.76770321  1
  H+  H347  1  0.18816355  0.11517043  0.57762851  1
  H+  H348  1  0.91754960  0.83588273  0.25839647  1
  H+  H349  1  0.35935126  0.89060075  0.80920540  1
  H+  H350  1  0.80540228  0.40175479  0.42791013  1
  H+  H351  1  0.18608751  0.84263055  0.26407465  1
  H+  H352  1  0.65842646  0.35154162  0.26067833  1
  H+  H353  1  0.91433701  0.06054997  0.89385091  1
  H+  H354  1  0.15350595  0.31408533  0.22672645  1
  H+  H355  1  0.05904089  0.15893628  0.43388155  1
  H+  H356  1  0.81713603  0.42383382  0.76257743  1
  H+  H357  1  0.34603284  0.92421143  0.43174195  1
  H+  H358  1  0.19725826  0.89253421  0.56342870  1
  H+  H359  1  0.41707691  0.58326711  0.27274873  1
  H+  H360  1  0.55125051  0.39058261  0.05532222  1
  H+  H361  1  0.08104892  0.90020452  0.06131553  1
  H+  H362  1  0.10420192  0.66135582  0.56503977  1
  H+  H363  1  0.29550053  0.44412915  0.08963917  1
  H+  H364  1  0.36053033  0.96000624  -0.00973835  1
  H+  H365  1  0.32804972  0.43702302  0.44085485  1
  H+  H366  1  0.13917135  0.02517312  0.31974605  1
  H+  H367  1  0.12216995  0.61410454  0.69219177  1
  H+  H368  1  0.17193284  0.34040048  0.92868829  1
  H+  H369  1  0.84427173  0.29192380  0.58579393  1
  H+  H370  1  0.68504944  0.06599629  0.88645398  1
  H+  H371  1  0.40785619  0.83024946  0.60286961  1
  H+  H372  1  0.62306826  0.09190518  0.32725016  1
  H+  H373  1  0.32353950  0.87587874  0.07696462  1
  H+  H374  1  0.16363902  0.58647433  0.26269958  1
  H+  H375  1  0.41578004  0.35803100  0.56159357  1
  H+  H376  1  0.37565473  0.47077235  0.74404058  1
  H+  H377  1  0.17308342  0.34537324  0.61440328  1
  H+  H378  1  0.86540924  0.72628050  0.67292246  1
  H+  H379  1  0.77860948  0.65575572  0.48918110  1
  H+  H380  1  0.50835445  0.21032115  0.09619578  1
  H+  H381  1  0.56688350  0.16338677  0.76171233  1
  H+  H382  1  0.41956997  0.83418457  0.26424593  1
  H+  H383  1  0.44893929  0.90388200  0.87444382  1
  O2-  O384  1  0.07584947  0.14436749  0.14128295  1
  O2-  O385  1  0.05639124  0.15930553  0.47928886  1
  O2-  O386  1  0.10314292  0.18474094  0.81501155  1
  O2-  O387  1  0.11521389  0.43659099  0.12471607  1
  O2-  O388  1  0.08688511  0.43591492  0.48570284  1
  O2-  O389  1  0.10480883  0.43517326  0.82823074  1
  O2-  O390  1  0.07243964  0.67085953  0.15260337  1
  O2-  O391  1  0.07751051  0.69363657  0.58192175  1
  O2-  O392  1  0.07973682  0.66176531  0.82431515  1
  O2-  O393  1  0.10070473  0.92268305  0.14904514  1
  O2-  O394  1  0.09547612  0.94089554  0.47013609  1
  O2-  O395  1  0.08133589  0.91326833  0.82157199  1
  O2-  O396  1  0.34411659  0.17918738  0.14430480  1
  O2-  O397  1  0.34405788  0.19973197  0.46467076  1
  O2-  O398  1  0.33149992  0.18234195  0.81093761  1
  O2-  O399  1  0.27822841  0.46011768  0.13116878  1
  O2-  O400  1  0.33134187  0.43908895  0.48608060  1
  O2-  O401  1  0.35037916  0.44038759  0.81597891  1
  O2-  O402  1  0.30480366  0.69964525  0.14264908  1
  O2-  O403  1  0.32177721  0.68573428  0.48321987  1
  O2-  O404  1  0.35061086  0.70396795  0.87168486  1
  O2-  O405  1  0.31068672  0.85129523  0.11945971  1
  O2-  O406  1  0.35069914  0.93274947  0.47723025  1
  O2-  O407  1  0.31160031  0.90002734  0.79281109  1
  O2-  O408  1  0.59423973  0.16773964  0.19801739  1
  O2-  O409  1  0.51406707  0.14089937  0.47684090  1
  O2-  O410  1  0.56287626  0.16577649  0.80624963  1
  O2-  O411  1  0.56544681  0.41355822  0.13382591  1
  O2-  O412  1  0.59454012  0.41818350  0.49234016  1
  O2-  O413  1  0.57450531  0.41512788  0.79950626  1
  O2-  O414  1  0.57347677  0.65039465  0.13986188  1
  O2-  O415  1  0.58216697  0.67721321  0.49538045  1
  O2-  O416  1  0.57902437  0.65394327  0.80682453  1
  O2-  O417  1  0.57788056  0.91230336  0.13457720  1
  O2-  O418  1  0.57731528  0.91517833  0.49991788  1
  O2-  O419  1  0.58457377  0.90857055  0.79532352  1
  O2-  O420  1  0.83366343  0.14598655  0.13985182  1
  O2-  O421  1  0.81611477  0.16164151  0.47103873  1
  O2-  O422  1  0.86243505  0.16043546  0.81306616  1
  O2-  O423  1  0.79882872  0.43258811  0.11552693  1
  O2-  O424  1  0.80890330  0.40224361  0.47339598  1
  O2-  O425  1  0.81242198  0.41939867  0.80739530  1
  O2-  O426  1  0.82056749  0.64958236  0.14880456  1
  O2-  O427  1  0.83757233  0.68464287  0.46940776  1
  O2-  O428  1  0.83440383  0.67139099  0.81294648  1
  O2-  O429  1  0.82456525  0.90773037  0.13347149  1
  O2-  O430  1  0.82179479  0.89590227  0.47496726  1
  O2-  O431  1  0.82037834  0.90630642  0.80070254  1
  O2-  O432  1  0.17948893  0.08840259  0.18101720  1
  O2-  O433  1  0.17647972  0.10889988  0.50459742  1
  O2-  O434  1  0.17593625  0.08494189  0.86074609  1
  O2-  O435  1  0.14388879  0.30954205  0.18214306  1
  O2-  O436  1  0.16960226  0.35318713  0.53025995  1
  O2-  O437  1  0.18301097  0.34712461  0.85181107  1
  O2-  O438  1  0.15278018  0.58457349  0.18789773  1
  O2-  O439  1  0.16312868  0.60294935  0.54120910  1
  O2-  O440  1  0.17660228  0.59664703  0.87130156  1
  O2-  O441  1  0.17909456  0.83404698  0.18607183  1
  O2-  O442  1  0.21549919  0.91179628  0.52093228  1
  O2-  O443  1  0.16625703  0.82662296  0.85001934  1
  O2-  O444  1  0.43662255  0.18639735  0.24621448  1
  O2-  O445  1  0.45775469  0.16025449  0.51426286  1
  O2-  O446  1  0.40694858  0.08634784  0.85329780  1
  O2-  O447  1  0.42926510  0.40251041  0.19797658  1
  O2-  O448  1  0.42861022  0.36306693  0.51710383  1
  O2-  O449  1  0.42461041  0.34757418  0.85832359  1
  O2-  O450  1  0.42099694  0.55489142  0.19720027  1
  O2-  O451  1  0.40561104  0.61277536  0.52307932  1
  O2-  O452  1  0.42484565  0.60190262  0.85956672  1
  O2-  O453  1  0.43059759  0.84103808  0.19696905  1
  O2-  O454  1  0.41165608  0.84620492  0.52420106  1
  O2-  O455  1  0.43421153  0.87670438  0.83453551  1
  O2-  O456  1  0.67533803  0.06910839  0.18887153  1
  O2-  O457  1  0.65016569  0.08069116  0.52659304  1
  O2-  O458  1  0.68648107  0.06110975  0.84169866  1
  O2-  O459  1  0.65168412  0.34008155  0.18210400  1
  O2-  O460  1  0.65854970  0.32394422  0.52420159  1
  O2-  O461  1  0.65147622  0.33559689  0.84059065  1
  O2-  O462  1  0.65825276  0.57638279  0.18858964  1
  O2-  O463  1  0.68442722  0.60262711  0.51886463  1
  O2-  O464  1  0.66513124  0.57587315  0.84635789  1
  O2-  O465  1  0.65387361  0.81776070  0.11797960  1
  O2-  O466  1  0.67298905  0.84829664  0.54429562  1
  O2-  O467  1  0.65792653  0.81772779  0.84596854  1
  O2-  O468  1  0.91292270  0.06283972  0.18765011  1
  O2-  O469  1  0.88829361  0.06310083  0.50268578  1
  O2-  O470  1  0.90882747  0.05859146  0.84726861  1
  O2-  O471  1  0.94742110  0.46029265  0.16456126  1
  O2-  O472  1  0.91321513  0.33335229  0.47446363  1
  O2-  O473  1  0.94259656  0.31567914  0.86201116  1
  O2-  O474  1  0.91441719  0.59006805  0.21574091  1
  O2-  O475  1  0.90911112  0.58501380  0.45982124  1
  O2-  O476  1  0.91208757  0.58477321  0.85394989  1
  O2-  O477  1  0.89982552  0.81700607  0.17334478  1
  O2-  O478  1  0.93398899  0.84650529  0.51807997  1
  O2-  O479  1  0.91222798  0.83169474  0.85344805  1
  O2-  O480  1  0.16373950  0.08596695  0.30497605  1
  O2-  O481  1  0.19056510  0.10964420  0.62364862  1
  O2-  O482  1  0.19726161  0.09836328  0.97625447  1
  O2-  O483  1  0.18953095  0.30538814  0.30057029  1
  O2-  O484  1  0.17331754  0.33587829  0.65864916  1
  O2-  O485  1  0.16438696  0.33719639  0.97377326  1
  O2-  O486  1  0.16913149  0.59006694  0.30849551  1
  O2-  O487  1  0.18201380  0.57980466  0.66256029  1
  O2-  O488  1  0.15256982  0.56841966  0.98958664  1
  O2-  O489  1  0.18493608  0.84493367  0.30961834  1
  O2-  O490  1  0.16441493  0.84841216  0.63428352  1
  O2-  O491  1  0.16361568  0.81893435  0.97251828  1
  O2-  O492  1  0.46388544  0.06913456  0.31183952  1
  O2-  O493  1  0.41573889  0.08414481  0.63033425  1
  O2-  O494  1  0.41111858  0.06783147  0.96864472  1
  O2-  O495  1  0.41253475  0.35798229  0.31497934  1
  O2-  O496  1  0.38383238  0.35236264  0.63738371  1
  O2-  O497  1  0.46898203  0.34502584  0.98585889  1
  O2-  O498  1  0.41410126  0.59066407  0.31766047  1
  O2-  O499  1  0.43487255  0.57322988  0.68948712  1
  O2-  O500  1  0.41303005  0.57807144  0.97930665  1
  O2-  O501  1  0.40823747  0.82638499  0.31098804  1
  O2-  O502  1  0.40980561  0.83011181  0.64821528  1
  O2-  O503  1  0.40502665  0.80163128  0.97579872  1
  O2-  O504  1  0.65840401  0.06840063  0.31120681  1
  O2-  O505  1  0.66532577  0.08063153  0.65092871  1
  O2-  O506  1  0.68723094  0.07782424  0.96882730  1
  O2-  O507  1  0.66126558  0.34572509  0.30556924  1
  O2-  O508  1  0.65526122  0.32234942  0.63501836  1
  O2-  O509  1  0.65622036  0.31437093  0.96526917  1
  O2-  O510  1  0.66642619  0.59159616  0.31372789  1
  O2-  O511  1  0.67620885  0.59609020  0.68240679  1
  O2-  O512  1  0.65287890  0.56018687  0.97239473  1
  O2-  O513  1  0.66508217  0.83167888  0.32117680  1
  O2-  O514  1  0.68079519  0.85864345  0.61125050  1
  O2-  O515  1  0.66052802  0.81931312  0.98317162  1
  O2-  O516  1  0.90665134  0.07395830  0.31078962  1
  O2-  O517  1  0.93975465  0.09418679  0.64602964  1
  O2-  O518  1  0.92567996  0.07061264  0.96479825  1
  O2-  O519  1  0.91568022  0.33570136  0.35418798  1
  O2-  O520  1  0.91281791  0.33614725  0.70295367  1
  O2-  O521  1  0.94801647  0.34106921  0.99574997  1
  O2-  O522  1  0.92279692  0.59196438  0.34401727  1
  O2-  O523  1  0.92188566  0.58460849  0.64970805  1
  O2-  O524  1  0.90979867  0.57643123  0.97867032  1
  O2-  O525  1  0.92357070  0.84061459  0.30308616  1
  O2-  O526  1  0.91614552  0.83219326  0.64144577  1
  O2-  O527  1  0.90696908  0.81829293  0.97692744  1
  O2-  O528  1  0.09049732  0.13249214  0.01820047  1
  O2-  O529  1  0.06809976  0.15161738  0.35378700  1
  O2-  O530  1  0.09673990  0.17477971  0.68966707  1
  O2-  O531  1  0.04083065  0.38663205  0.01041187  1
  O2-  O532  1  0.08442543  0.43111158  0.35727037  1
  O2-  O533  1  0.09389504  0.42044467  0.70573967  1
  O2-  O534  1  0.07265512  0.65557397  0.02475701  1
  O2-  O535  1  0.09902575  0.67772020  0.35033480  1
  O2-  O536  1  0.08499133  0.63931581  0.70488165  1
  O2-  O537  1  0.07841852  0.89240305  0.01707578  1
  O2-  O538  1  0.09084474  0.92224629  0.34502573  1
  O2-  O539  1  0.07448490  0.90886536  0.70251810  1
  O2-  O540  1  0.35913444  0.17120766  0.01415474  1
  O2-  O541  1  0.32908485  0.18938800  0.33746697  1
  O2-  O542  1  0.34733065  0.18135063  0.68138205  1
  O2-  O543  1  0.31579488  0.41710910  0.03069578  1
  O2-  O544  1  0.32257141  0.42905519  0.36096751  1
  O2-  O545  1  0.38862164  0.48022113  0.69911088  1
  O2-  O546  1  0.32103260  0.64625816  0.03322554  1
  O2-  O547  1  0.33108255  0.67477175  0.35231310  1
  O2-  O548  1  0.34112350  0.66215987  0.70074977  1
  O2-  O549  1  0.33098048  0.89799814  0.00281349  1
  O2-  O550  1  0.34362525  0.91592351  0.35654003  1
  O2-  O551  1  0.32409032  0.90943274  0.67928406  1
  O2-  O552  1  0.58778282  0.15005920  -0.00214136  1
  O2-  O553  1  0.54129786  0.12581355  0.34780312  1
  O2-  O554  1  0.58095584  0.16632408  0.67623739  1
  O2-  O555  1  0.55718673  0.38318925  0.01041517  1
  O2-  O556  1  0.55839063  0.45893484  0.37895865  1
  O2-  O557  1  0.58181722  0.40805557  0.67992554  1
  O2-  O558  1  0.57841704  0.64709739  0.01783886  1
  O2-  O559  1  0.57761124  0.66783413  0.36366638  1
  O2-  O560  1  0.57801275  0.65083085  0.73950865  1
  O2-  O561  1  0.57695311  0.90741418  0.00858100  1
  O2-  O562  1  0.58296595  0.91125597  0.37914354  1
  O2-  O563  1  0.58210608  0.90918395  0.67023577  1
  O2-  O564  1  0.85341623  0.16322142  0.01350989  1
  O2-  O565  1  0.82334054  0.15946506  0.34712340  1
  O2-  O566  1  0.83846732  0.16161486  0.69244298  1
  O2-  O567  1  0.82838240  0.40228990  -0.00089851  1
  O2-  O568  1  0.82153905  0.41388638  0.34944394  1
  O2-  O569  1  0.82536699  0.41727252  0.68065751  1
  O2-  O570  1  0.81670757  0.64702734  0.01875959  1
  O2-  O571  1  0.83351550  0.68230681  0.35008677  1
  O2-  O572  1  0.84151775  0.66852411  0.69177791  1
  O2-  O573  1  0.83180945  0.90935752  0.00877186  1
  O2-  O574  1  0.82923793  0.90842088  0.35214384  1
  O2-  O575  1  0.82739931  0.91285852  0.67269685  1
