# generated using pymatgen
data_H2O
_symmetry_space_group_name_H-M   'P 1'
_cell_length_a   17.97738399
_cell_length_b   17.98447182
_cell_length_c   21.99415857
_cell_angle_alpha   89.98770051
_cell_angle_beta   90.01477582
_cell_angle_gamma   119.97643733
_symmetry_Int_Tables_number   1
_chemical_formula_structural   H2O
_chemical_formula_sum   'H384 O192'
_cell_volume   6159.78021687
_cell_formula_units_Z   192
loop_
 _symmetry_equiv_pos_site_id
 _symmetry_equiv_pos_as_xyz
  1  'x, y, z'
loop_
 _atom_type_symbol
 _atom_type_oxidation_number
  H+  1.0
  O2-  -2.0
loop_
 _atom_site_type_symbol
 _atom_site_label
 _atom_site_symmetry_multiplicity
 _atom_site_fract_x
 _atom_site_fract_y
 _atom_site_fract_z
 _atom_site_occupancy
  H+  H0  1  0.35852408  0.46241608  1.00817812  1
  H+  H1  1  0.38536096  0.12396420  0.82648358  1
  H+  H2  1  0.63361599  0.65171813  0.82282911  1
  H+  H3  1  -0.06620761  0.34218309  0.73038529  1
  H+  H4  1  0.03056650  0.89512114  0.67627787  1
  H+  H5  1  0.88978334  0.28391867  0.30760857  1
  H+  H6  1  0.89315423  0.79533223  0.15872386  1
  H+  H7  1  0.33467967  0.16750401  0.06685559  1
  H+  H8  1  0.64640665  0.27697900  0.99665246  1
  H+  H9  1  0.25081816  0.57390132  0.02960713  1
  H+  H10  1  0.76713654  0.63185774  0.00480183  1
  H+  H11  1  0.12233332  0.48698245  0.66031010  1
  H+  H12  1  0.63915476  0.62984665  0.17671442  1
  H+  H13  1  0.14844882  0.53571827  0.18060300  1
  H+  H14  1  0.61210737  0.63281906  0.50134605  1
  H+  H15  1  0.60740855  0.72492287  0.16804194  1
  H+  H16  1  -0.02244535  0.11276957  0.66734217  1
  H+  H17  1  0.36099393  0.43759498  0.44545911  1
  H+  H18  1  0.22540670  0.62136973  0.66025245  1
  H+  H19  1  0.73013353  0.60905784  0.84294375  1
  H+  H20  1  0.86051227  0.24460780  0.82424612  1
  H+  H21  1  0.11779010  0.88488370  0.83269876  1
  H+  H22  1  0.72228880  0.85027363  0.63513946  1
  H+  H23  1  0.47805809  0.62316349  0.32909745  1
  H+  H24  1  0.63935818  0.86989878  0.32251792  1
  H+  H25  1  0.83308674  0.42298006  -0.07811571  1
  H+  H26  1  0.17805586  0.08727332  0.61145932  1
  H+  H27  1  0.35673894  0.70232252  0.20626335  1
  H+  H28  1  0.88212137  0.86214635  0.51059765  1
  H+  H29  1  0.61659054  0.13789636  0.49361051  1
  H+  H30  1  0.50743868  0.80314665  0.81489909  1
  H+  H31  1  0.13287972  0.48684909  0.99181038  1
  H+  H32  1  0.65801841  0.33432611  0.60426067  1
  H+  H33  1  0.36817837  0.58021041  0.01714512  1
  H+  H34  1  0.78788058  0.13751819  -0.01533396  1
  H+  H35  1  0.61236853  0.47849015  0.82725958  1
  H+  H36  1  0.97449823  0.09845200  0.98141695  1
  H+  H37  1  0.12756906  0.84695025  0.33680792  1
  H+  H38  1  0.86452697  0.47864577  -0.01797335  1
  H+  H39  1  0.62787168  0.76759621  0.49890710  1
  H+  H40  1  0.88772737  0.59777215  0.49448637  1
  H+  H41  1  0.52381425  0.88288217  0.66766239  1
  H+  H42  1  0.76849184  0.38590800  0.83998258  1
  H+  H43  1  0.09159985  0.83013043  0.51039948  1
  H+  H44  1  0.22623530  0.85784274  0.65967531  1
  H+  H45  1  0.26850800  0.14122437  0.82887580  1
  H+  H46  1  0.36316729  0.37659859  0.00936147  1
  H+  H47  1  0.11802303  0.73653166  0.15650291  1
  H+  H48  1  0.24960569  0.37847467  0.50184903  1
  H+  H49  1  0.37720460  0.34746544  0.51355078  1
  H+  H50  1  0.49070880  0.22109797  0.95083727  1
  H+  H51  1  0.35986303  0.88709034  0.12927697  1
  H+  H52  1  0.90380457  0.63687168  0.84716985  1
  H+  H53  1  0.71705606  0.38085420  0.17442686  1
  H+  H54  1  0.41484661  0.33193212  0.27011751  1
  H+  H55  1  0.08651135  0.40897099  0.22673747  1
  H+  H56  1  0.41512625  0.07048422  0.22567837  1
  H+  H57  1  0.36124557  0.23207690  0.00928927  1
  H+  H58  1  0.12496386  0.34256569  0.98424185  1
  H+  H59  1  0.51998590  0.63323635  0.65994917  1
  H+  H60  1  0.63470202  0.86443018  0.17114649  1
  H+  H61  1  0.36847704  0.72914090  0.67037725  1
  H+  H62  1  0.46525424  0.86229902  0.50771629  1
  H+  H63  1  0.11154561  0.74197280  1.00706240  1
  H+  H64  1  0.89495373  0.63122308  0.17093797  1
  H+  H65  1  0.72870112  0.13874327  0.83945605  1
  H+  H66  1  0.37434293  0.57145382  0.81320386  1
  H+  H67  1  0.29746420  0.76898066  0.89094696  1
  H+  H68  1  0.63686889  0.61090972  0.65858596  1
  H+  H69  1  0.96960722  0.36431021  0.16220505  1
  H+  H70  1  0.36357030  0.63394586  0.35052163  1
  H+  H71  1  0.14944948  0.61602183  0.84636456  1
  H+  H72  1  0.13689209  0.09637212  0.32610525  1
  H+  H73  1  0.85462764  0.72489814  1.00626873  1
  H+  H74  1  0.35297697  0.88761894  0.83522382  1
  H+  H75  1  -0.00085767  0.63914008  0.85052456  1
  H+  H76  1  0.10000407  0.69767453  0.49468584  1
  H+  H77  1  0.18049539  0.56450354  0.94438917  1
  H+  H78  1  0.63549115  0.27375961  0.50546484  1
  H+  H79  1  0.87903904  0.22155060  -0.02187971  1
  H+  H80  1  0.62456623  0.37488404  0.17433625  1
  H+  H81  1  0.61088571  0.97639411  0.15563706  1
  H+  H82  1  0.66218056  0.79175916  0.83477487  1
  H+  H83  1  0.18602817  0.34528575  0.31367168  1
  H+  H84  1  0.77185237  0.89159849  0.15547299  1
  H+  H85  1  0.98504174  0.86012300  0.84851349  1
  H+  H86  1  0.11291438  0.63659577  0.67977502  1
  H+  H87  1  0.63851779  0.78132873  0.33278620  1
  H+  H88  1  0.15861778  0.37514873  0.49570096  1
  H+  H89  1  0.37726673  0.48393296  0.51157835  1
  H+  H90  1  0.08700659  0.16529403  0.72148307  1
  H+  H91  1  0.72614052  0.11591957  0.17133056  1
  H+  H92  1  0.06491816  0.43652845  0.41260987  1
  H+  H93  1  0.12554906  0.40740488  0.34401817  1
  H+  H94  1  0.85316718  0.22292369  0.15826420  1
  H+  H95  1  0.12453856  0.26884540  0.13861215  1
  H+  H96  1  0.47693918  0.35903351  0.32899481  1
  H+  H97  1  0.55627457  0.45958868  0.14612117  1
  H+  H98  1  0.36492454  0.98169417  0.82294721  1
  H+  H99  1  0.13293448  0.11584461  0.99716422  1
  H+  H100  1  0.36384991  0.71868924  0.50685461  1
  H+  H101  1  0.38423993  1.01257238  0.16274612  1
  H+  H102  1  0.86227299  0.10503381  0.51950482  1
  H+  H103  1  0.36619017  0.36554597  0.81268031  1
  H+  H104  1  -0.01428385  0.37873656  0.82449970  1
  H+  H105  1  0.85191778  0.39925146  0.15111918  1
  H+  H106  1  0.91340883  0.08204637  0.26267079  1
  H+  H107  1  0.78548424  0.66105611  0.16130336  1
  H+  H108  1  0.55512467  0.90599812  0.27712373  1
  H+  H109  1  0.86099797  0.12817349  0.68132104  1
  H+  H110  1  0.76461522  0.63692821  0.34865944  1
  H+  H111  1  0.38095212  0.52095545  0.17685911  1
  H+  H112  1  0.37868036  0.39689454  0.34862198  1
  H+  H113  1  0.32889953  0.65105429  0.41342800  1
  H+  H114  1  0.13110688  0.74108058  0.34715297  1
  H+  H115  1  0.39216579  0.70740500  0.94792782  1
  H+  H116  1  0.27172110  0.63104033  0.51065768  1
  H+  H117  1  0.84597076  0.37208487  0.68304430  1
  H+  H118  1  0.35690640  0.63542449  0.66414817  1
  H+  H119  1  0.39072395  0.11322270  0.51083000  1
  H+  H120  1  0.84827243  -0.03427796  0.51097625  1
  H+  H121  1  0.72931997  0.10493824  0.51325280  1
  H+  H122  1  0.84610991  0.45978075  0.68462353  1
  H+  H123  1  0.35766338  0.38197988  0.16410404  1
  H+  H124  1  0.97309499  0.86635138  0.50558186  1
  H+  H125  1  0.38553125  0.90721815  -0.00043521  1
  H+  H126  1  0.60942664  0.11863217  0.15822327  1
  H+  H127  1  0.40716472  0.84195700  1.03112887  1
  H+  H128  1  0.88109040  0.77426992  0.34029541  1
  H+  H129  1  0.39033940  0.02448632  0.51372983  1
  H+  H130  1  0.97284694  0.58887040  0.49071991  1
  H+  H131  1  0.61233990  0.37745625  0.33712558  1
  H+  H132  1  0.66273194  0.55270681  0.17306415  1
  H+  H133  1  0.95101477  0.07198195  0.53794989  1
  H+  H134  1  0.72868980  0.36734760  0.97857019  1
  H+  H135  1  0.23318595  0.88145794  -0.00824733  1
  H+  H136  1  -0.03295339  0.59967814  0.68112272  1
  H+  H137  1  0.48422395  0.36493019  -0.00377529  1
  H+  H138  1  0.72985435  0.61598797  0.50851189  1
  H+  H139  1  1.01237488  0.87474123  0.34235512  1
  H+  H140  1  0.86586457  0.72173441  0.49711657  1
  H+  H141  1  0.86171647  0.39437361  0.83926852  1
  H+  H142  1  0.35786238  0.88683887  0.36069659  1
  H+  H143  1  0.37020654  0.70824159  0.82591326  1
  H+  H144  1  0.53595705  0.14859575  0.00296766  1
  H+  H145  1  0.39350883  0.28192055  0.84024050  1
  H+  H146  1  0.85754070  0.97025984  -0.00171420  1
  H+  H147  1  0.84897733  0.36586801  0.49460030  1
  H+  H148  1  0.46876100  0.35329485  0.17185792  1
  H+  H149  1  -0.01937202  0.88398466  0.15803564  1
  H+  H150  1  0.38614963  0.10976037  0.32208782  1
  H+  H151  1  0.38163648  0.61399144  0.53617039  1
  H+  H152  1  0.37715926  0.76141124  0.12982226  1
  H+  H153  1  0.52330048  0.63309544  0.51032069  1
  H+  H154  1  0.52911159  0.91137867  1.00354361  1
  H+  H155  1  0.58391138  0.42078316  0.73018929  1
  H+  H156  1  0.60503415  0.88272988  0.48691864  1
  H+  H157  1  0.65060394  0.04361938  0.83330197  1
  H+  H158  1  0.60448292  0.38482161  0.82658546  1
  H+  H159  1  0.92966000  0.34128392  0.88552296  1
  H+  H160  1  0.88109320  0.60287871  0.67810619  1
  H+  H161  1  0.79288272  0.90480950  0.71402759  1
  H+  H162  1  0.61011143  0.38444846  0.01279682  1
  H+  H163  1  -0.01059243  0.63846961  -0.00079898  1
  H+  H164  1  0.88844700  0.10263252  0.97167128  1
  H+  H165  1  0.87975711  -0.01007155  0.69282152  1
  H+  H166  1  0.22355721  0.11583690  0.99914809  1
  H+  H167  1  0.10941700  0.22252828  1.00076098  1
  H+  H168  1  0.63047654  0.27135980  0.31909729  1
  H+  H169  1  0.11287974  0.22587822  0.66381263  1
  H+  H170  1  0.27249782  0.12113568  0.49196283  1
  H+  H171  1  0.63230262  0.51758882  -0.00387212  1
  H+  H172  1  0.38214620  0.48921464  0.34766236  1
  H+  H173  1  0.83011242  0.91957232  0.44365085  1
  H+  H174  1  0.61044765  0.89455106  0.99859806  1
  H+  H175  1  0.61236929  0.13491704  0.82364879  1
  H+  H176  1  0.21437412  0.34267471  0.99357062  1
  H+  H177  1  0.04503731  0.16837553  0.48992783  1
  H+  H178  1  0.41386076  0.72383985  -0.02189797  1
  H+  H179  1  0.10722146  0.97950299  0.00238604  1
  H+  H180  1  0.36291070  0.22480119  0.33921435  1
  H+  H181  1  0.17181998  0.08310580  0.90677065  1
  H+  H182  1  0.98129247  0.62622458  0.17394921  1
  H+  H183  1  0.87052643  0.52913442  0.32217710  1
  H+  H184  1  0.88106804  0.25784228  0.49989857  1
  H+  H185  1  0.56747931  0.53336184  0.29498958  1
  H+  H186  1  0.13908286  0.24564065  0.48829144  1
  H+  H187  1  0.67076989  0.58476462  0.56821366  1
  H+  H188  1  0.35442434  0.21475358  0.49739647  1
  H+  H189  1  0.77405190  0.89330701  0.34696421  1
  H+  H190  1  0.11748026  0.88918736  0.67819821  1
  H+  H191  1  0.60846367  0.72233875  0.99158427  1
  H+  H192  1  0.13668659  0.12126465  0.51787614  1
  H+  H193  1  0.38258024  1.01980524  0.32733464  1
  H+  H194  1  0.86763729  0.14315763  0.32658313  1
  H+  H195  1  0.51691109  0.11495050  0.67314637  1
  H+  H196  1  0.12933585  0.11601263  0.16929345  1
  H+  H197  1  0.76765835  0.39039465  0.32784739  1
  H+  H198  1  0.25408879  0.11111213  0.66969379  1
  H+  H199  1  0.62368150  0.47821955  0.49427953  1
  H+  H200  1  0.14796865  1.01629451  0.66980272  1
  H+  H201  1  0.71348831  0.35676887  0.66492655  1
  H+  H202  1  0.85789176  0.46652893  0.49321201  1
  H+  H203  1  0.21427319  0.35796628  0.14018888  1
  H+  H204  1  0.15315073  0.53489548  0.51746493  1
  H+  H205  1  0.33502985  0.16249668  0.39712686  1
  H+  H206  1  0.51846274  0.13068369  0.33806121  1
  H+  H207  1  0.37454904  0.39385398  0.66132214  1
  H+  H208  1  0.38573997  0.52230654  0.63314672  1
  H+  H209  1  0.38171726  0.61217509  0.17972416  1
  H+  H210  1  0.13153405  0.96251206  0.48037003  1
  H+  H211  1  0.10864576  0.72260337  0.68428655  1
  H+  H212  1  0.46547712  0.85147633  0.12553783  1
  H+  H213  1  0.87711080  0.85975714  0.99721073  1
  H+  H214  1  0.13861796  0.86720423  0.16060031  1
  H+  H215  1  0.59287566  0.92417450  0.09391994  1
  H+  H216  1  0.38439130  0.77347547  0.36609412  1
  H+  H217  1  0.38904658  0.01093017  0.66033825  1
  H+  H218  1  0.48252790  0.37390753  0.83518040  1
  H+  H219  1  0.40622020  0.15726415  0.98519642  1
  H+  H220  1  0.97211876  0.11089393  0.32361223  1
  H+  H221  1  0.11405487  0.38431999  0.16414797  1
  H+  H222  1  0.85281389  0.63365974  0.33953578  1
  H+  H223  1  0.63927386  0.36672989  0.50455767  1
  H+  H224  1  0.86153900  0.98237588  0.34493779  1
  H+  H225  1  0.88766724  0.86645835  0.34242619  1
  H+  H226  1  0.26749278  0.13050793  0.15705338  1
  H+  H227  1  0.13182277  0.64241931  0.33895873  1
  H+  H228  1  0.11652585  0.21353155  0.33939084  1
  H+  H229  1  0.37750095  0.26557727  0.17868936  1
  H+  H230  1  0.61593556  0.88836196  0.66415463  1
  H+  H231  1  0.85869613  0.48941277  0.16184506  1
  H+  H232  1  0.61971867  0.13540452  1.00416027  1
  H+  H233  1  0.48526375  0.36601376  0.66167676  1
  H+  H234  1  0.82841107  0.11527956  0.45424865  1
  H+  H235  1  0.07913162  0.90407007  0.42346159  1
  H+  H236  1  0.42242591  0.11123946  0.88784597  1
  H+  H237  1  0.08794067  0.18423254  0.20192303  1
  H+  H238  1  1.01770096  0.88845676  1.00483393  1
  H+  H239  1  0.22709552  0.86739767  0.15653652  1
  H+  H240  1  0.77368911  0.13209086  0.67393292  1
  H+  H241  1  0.71763689  0.86484898  -0.00777274  1
  H+  H242  1  0.22350814  0.85854803  0.34172814  1
  H+  H243  1  0.60716247  0.72126859  0.65994628  1
  H+  H244  1  0.88140018  1.02458887  0.17163073  1
  H+  H245  1  0.11309346  0.13353851  0.82284923  1
  H+  H246  1  0.24191160  0.62608310  0.17764999  1
  H+  H247  1  0.64260075  1.03310625  -0.01242499  1
  H+  H248  1  0.49221880  0.82644225  0.83521824  1
  H+  H249  1  0.04526598  0.48864815  0.46028417  1
  H+  H250  1  0.63562599  0.02264204  0.50682219  1
  H+  H251  1  0.75581077  0.37316682  0.50163008  1
  H+  H252  1  0.88900433  0.62591276  0.99520500  1
  H+  H253  1  0.24863510  0.38819631  0.36685329  1
  H+  H254  1  0.95873754  0.35394038  0.48683995  1
  H+  H255  1  0.11753499  0.64666340  0.15831510  1
  H+  H256  1  0.89684434  0.87133896  0.67015529  1
  H+  H257  1  0.15190737  0.37440799  0.65281814  1
  H+  H258  1  0.90127416  0.35916835  -0.02734762  1
  H+  H259  1  0.77317807  0.63996099  0.67817293  1
  H+  H260  1  0.97485527  0.11167133  0.17395363  1
  H+  H261  1  0.11815657  0.48182044  0.81938276  1
  H+  H262  1  0.27382560  0.88719183  0.50750763  1
  H+  H263  1  0.86615060  0.72920036  0.83318097  1
  H+  H264  1  0.51988472  0.63317877  0.17223180  1
  H+  H265  1  0.61440630  0.38838398  0.67100625  1
  H+  H266  1  0.63995877  0.52342112  0.66097855  1
  H+  H267  1  0.23050887  0.87176108  0.84049668  1
  H+  H268  1  0.60807524  0.64500144  0.34470696  1
  H+  H269  1  0.13751985  0.87175868  -0.01208320  1
  H+  H270  1  0.12637455  0.73442862  0.83474418  1
  H+  H271  1  0.03760233  0.39320788  0.66891099  1
  H+  H272  1  0.46880116  0.86321372  0.35179582  1
  H+  H273  1  0.28475392  0.39356604  0.66133928  1
  H+  H274  1  0.36598810  0.87389760  0.67204803  1
  H+  H275  1  0.35605610  0.12736327  0.15793757  1
  H+  H276  1  0.65506386  0.91839072  0.81750718  1
  H+  H277  1  0.50833869  0.11311888  0.15694566  1
  H+  H278  1  -0.00642925  0.35641879  -0.02229484  1
  H+  H279  1  0.63352437  0.11782088  0.32636953  1
  H+  H280  1  0.85499840  0.13477602  0.16760750  1
  H+  H281  1  0.89334355  0.26913318  0.68256144  1
  H+  H282  1  0.62390739  0.26760165  0.83535047  1
  H+  H283  1  0.39337677  0.57901511  0.94726993  1
  H+  H284  1  0.12265087  0.49325484  0.32423923  1
  H+  H285  1  0.61290594  0.11403577  0.67180812  1
  H+  H286  1  0.22720551  0.10062486  0.32474624  1
  H+  H287  1  0.52202489  0.63155906  -0.00334913  1
  H+  H288  1  0.66004525  0.08605830  0.22870286  1
  H+  H289  1  0.72500312  0.11980684  0.32064254  1
  H+  H290  1  0.66765550  0.83789031  0.23135637  1
  H+  H291  1  0.38256003  0.83402538  0.92397525  1
  H+  H292  1  0.29872724  0.22512595  0.78598503  1
  H+  H293  1  0.56907642  0.40710811  0.07391532  1
  H+  H294  1  0.17893912  0.28481014  0.25054913  1
  H+  H295  1  0.16419847  0.07999946  0.22463713  1
  H+  H296  1  0.65601782  0.33659857  0.26016871  1
  H+  H297  1  0.57901650  0.66957351  0.40689404  1
  H+  H298  1  0.39742040  0.51354415  0.85239864  1
  H+  H299  1  0.33836917  0.66076498  0.76189015  1
  H+  H300  1  0.08925640  0.16020269  0.39889062  1
  H+  H301  1  0.66558781  0.09377597  0.92804323  1
  H+  H302  1  0.11689080  0.98446915  0.15208508  1
  H+  H303  1  0.14283607  1.01989784  0.84877708  1
  H+  H304  1  0.63346460  0.60781603  0.98783083  1
  H+  H305  1  0.93463312  0.61343749  0.92246095  1
  H+  H306  1  0.08600529  0.92338844  0.09310817  1
  H+  H307  1  0.65488986  0.58967282  0.26204120  1
  H+  H308  1  0.86366764  0.72783109  0.67871763  1
  H+  H309  1  0.41975543  0.07848377  0.60407719  1
  H+  H310  1  0.83227487  0.66478299  0.43662048  1
  H+  H311  1  0.90565620  0.33846430  0.21519291  1
  H+  H312  1  0.15107653  0.82209269  0.60822594  1
  H+  H313  1  0.86504304  0.89842731  0.15003682  1
  H+  H314  1  0.09129841  0.66898473  0.77789111  1
  H+  H315  1  0.39593688  0.27669078  0.66622148  1
  H+  H316  1  0.13048104  0.62409328  0.49848905  1
  H+  H317  1  0.18049164  0.34186782  0.59498866  1
  H+  H318  1  0.08590322  0.91734383  0.77540430  1
  H+  H319  1  0.18101968  0.60048455  0.26154747  1
  H+  H320  1  0.17062477  0.59706084  0.59805064  1
  H+  H321  1  0.07135994  0.38153058  0.04504021  1
  H+  H322  1  0.84744168  0.19238339  0.37917568  1
  H+  H323  1  0.61824284  0.94094492  0.75784384  1
  H+  H324  1  0.56898038  0.91478157  0.43313399  1
  H+  H325  1  0.65531887  0.82723992  0.58257467  1
  H+  H326  1  0.61445962  0.46743680  0.34028009  1
  H+  H327  1  0.09579323  0.43146561  0.75599610  1
  H+  H328  1  0.31422208  0.62216823  0.08768896  1
  H+  H329  1  0.09967899  0.66018616  0.40672303  1
  H+  H330  1  0.66489591  0.84129248  0.93058096  1
  H+  H331  1  0.82498238  0.17256886  0.77263450  1
  H+  H332  1  0.61186683  0.98603111  0.31822196  1
  H+  H333  1  0.46171702  0.78612446  0.62146644  1
  H+  H334  1  0.66334497  0.08000893  0.60050429  1
  H+  H335  1  0.41471749  0.83214016  0.57176442  1
  H+  H336  1  0.52695522  0.13608648  0.49602863  1
  H+  H337  1  0.10843176  -0.04002618  0.33650804  1
  H+  H338  1  0.36066396  0.88346478  0.50414650  1
  H+  H339  1  0.58017894  0.15004418  0.73731446  1
  H+  H340  1  0.33562055  0.16029829  0.73562386  1
  H+  H341  1  0.85885589  0.39782472  0.32251093  1
  H+  H342  1  0.59324445  0.41714231  0.43562593  1
  H+  H343  1  0.23436675  0.60868154  0.83831690  1
  H+  H344  1  0.32566340  0.92613636  0.40938394  1
  H+  H345  1  0.92079712  0.84230060  0.60693354  1
  H+  H346  1  0.42613345  0.85700518  0.23764387  1
  H+  H347  1  0.41511320  0.58496469  0.27004209  1
  H+  H348  1  0.34102703  0.99458148  0.00229870  1
  H+  H349  1  0.71845494  0.85832654  0.49933823  1
  H+  H350  1  0.33800640  0.40390971  0.74859319  1
  H+  H351  1  0.08046276  0.68037525  0.06680550  1
  H+  H352  1  0.40444290  0.31374407  0.57146310  1
  H+  H353  1  0.09498163  0.02533037  0.53703687  1
  H+  H354  1  0.13789044  0.28732527  0.25013492  1
  H+  H355  1  0.37018767  0.12508326  0.67862888  1
  H+  H356  1  0.57610204  0.14926812  0.09362166  1
  H+  H357  1  0.83733493  0.66934311  0.77358772  1
  H+  H358  1  0.43517633  0.90264802  0.23662382  1
  H+  H359  1  -0.02274368  0.37358589  0.30861560  1
  H+  H360  1  0.82557298  0.91883102  0.06168492  1
  H+  H361  1  0.91149287  0.03506129  0.89203360  1
  H+  H362  1  0.07252063  0.16088180  0.06098149  1
  H+  H363  1  0.57935592  0.16360488  0.39759632  1
  H+  H364  1  0.51942834  0.13329045  0.81743297  1
  H+  H365  1  0.90083944  0.06418953  0.61705509  1
  H+  H366  1  0.63377861  1.01518517  0.65851222  1
  H+  H367  1  0.60131382  0.67896998  0.76400935  1
  H+  H368  1  0.90300155  0.87126234  0.85207105  1
  H+  H369  1  0.66614433  0.57752710  0.89977362  1
  H+  H370  1  0.90567863  0.59629233  0.26709239  1
  H+  H371  1  0.64939638  0.32285820  0.89775240  1
  H+  H372  1  0.03534378  0.74948919  0.55113112  1
  H+  H373  1  0.32821916  0.93311996  0.08206703  1
  H+  H374  1  0.23560149  0.62019992  0.32653834  1
  H+  H375  1  0.16056042  0.22368892  0.79467416  1
  H+  H376  1  0.17353009  0.84239615  0.90334420  1
  H+  H377  1  0.86799504  0.93857482  0.78769932  1
  H+  H378  1  0.33849436  0.90771974  0.73037431  1
  H+  H379  1  0.33668200  0.41387758  0.10190968  1
  H+  H380  1  0.83419711  0.67454050  0.09799837  1
  H+  H381  1  0.91283206  0.82977102  0.94041758  1
  H+  H382  1  0.42421820  0.34019262  0.93528022  1
  H+  H383  1  0.74849665  0.88085238  0.84943632  1
  O2-  O384  1  0.07661772  0.16098972  0.16076795  1
  O2-  O385  1  0.10280799  0.18208205  0.47782759  1
  O2-  O386  1  0.10211113  0.17352145  0.79901692  1
  O2-  O387  1  0.08810232  0.41866783  0.18301869  1
  O2-  O388  1  0.05591911  0.44062012  0.45713778  1
  O2-  O389  1  0.08292858  0.42474016  0.80002252  1
  O2-  O390  1  0.08416274  0.67345091  0.14375908  1
  O2-  O391  1  0.08786316  0.64327946  0.47543465  1
  O2-  O392  1  0.09415086  0.67198995  0.82354409  1
  O2-  O393  1  0.08606366  0.92313863  0.13858842  1
  O2-  O394  1  0.08218541  0.90658175  0.47093367  1
  O2-  O395  1  0.08497439  0.91462847  0.82035766  1
  O2-  O396  1  0.32924334  0.16049508  0.14303433  1
  O2-  O397  1  0.33204206  0.15465326  0.47821082  1
  O2-  O398  1  0.32132109  0.18409625  0.80528059  1
  O2-  O399  1  0.33179237  0.41558050  0.14743158  1
  O2-  O400  1  0.34934219  0.42790907  0.49023425  1
  O2-  O401  1  0.31627728  0.36522204  0.78611252  1
  O2-  O402  1  0.33817618  0.67262686  0.16741619  1
  O2-  O403  1  0.33688150  0.65612677  0.49823874  1
  O2-  O404  1  0.33814066  0.65153285  0.80704238  1
  O2-  O405  1  0.33470234  0.92550779  0.12901094  1
  O2-  O406  1  0.33182426  0.91804431  0.49105319  1
  O2-  O407  1  0.33516160  0.92130937  0.80847795  1
  O2-  O408  1  0.57133282  0.14290034  0.14040629  1
  O2-  O409  1  0.58548233  0.16672129  0.47757589  1
  O2-  O410  1  0.57976570  0.16233035  0.80244637  1
  O2-  O411  1  0.55621502  0.40605501  0.13987633  1
  O2-  O412  1  0.59785747  0.41781429  0.48062470  1
  O2-  O413  1  0.57707894  0.41814953  0.81114794  1
  O2-  O414  1  0.58157973  0.66230830  0.16015699  1
  O2-  O415  1  0.57770189  0.66030636  0.48714420  1
  O2-  O416  1  0.61865223  0.69407129  0.80667405  1
  O2-  O417  1  0.58518576  0.91696347  0.13923721  1
  O2-  O418  1  0.57601868  0.91683546  0.47717720  1
  O2-  O419  1  0.64288164  0.96129196  0.79871056  1
  O2-  O420  1  0.81805933  0.15918985  0.15585291  1
  O2-  O421  1  0.83532266  0.13929418  0.49492588  1
  O2-  O422  1  0.82131067  0.18179335  0.81657138  1
  O2-  O423  1  0.82068672  0.43084712  0.14543546  1
  O2-  O424  1  0.81938851  0.40075701  0.48484500  1
  O2-  O425  1  0.82904145  0.42361920  0.85102034  1
  O2-  O426  1  0.84324646  0.68455650  0.14280030  1
  O2-  O427  1  0.83543724  0.66172517  0.48233442  1
  O2-  O428  1  0.83909548  0.66818007  0.81920273  1
  O2-  O429  1  0.83004906  0.92708997  0.13779844  1
  O2-  O430  1  0.82231021  0.90741830  0.48833184  1
  O2-  O431  1  0.86408118  0.93702261  0.83351941  1
  O2-  O432  1  0.16570473  0.08657241  0.17996147  1
  O2-  O433  1  0.15022797  0.07860533  0.53676259  1
  O2-  O434  1  0.17556374  0.08121492  0.86124612  1
  O2-  O435  1  0.15183944  0.33261671  0.13284943  1
  O2-  O436  1  0.18535572  0.34334254  0.51141617  1
  O2-  O437  1  0.26825343  0.27765083  0.75949553  1
  O2-  O438  1  0.17744021  0.59756426  0.19135685  1
  O2-  O439  1  0.18012844  0.59590271  0.52738629  1
  O2-  O440  1  0.17677278  0.58177013  0.85771825  1
  O2-  O441  1  0.16807918  0.83539455  0.17345362  1
  O2-  O442  1  0.09433320  0.78643330  0.53736800  1
  O2-  O443  1  0.17089037  0.83840596  0.85652419  1
  O2-  O444  1  0.41812910  0.07386261  0.18043828  1
  O2-  O445  1  0.42233993  0.08521771  0.52832679  1
  O2-  O446  1  0.41386189  0.09425729  0.84398177  1
  O2-  O447  1  0.40924926  0.32554702  0.19394200  1
  O2-  O448  1  0.38623651  0.30076393  0.52814669  1
  O2-  O449  1  0.42037436  0.34419182  0.85087216  1
  O2-  O450  1  0.41170178  0.58003245  0.19483401  1
  O2-  O451  1  0.41550690  0.58427131  0.55190833  1
  O2-  O452  1  0.39107956  0.52691768  0.81060687  1
  O2-  O453  1  0.40541891  0.82163182  0.11107053  1
  O2-  O454  1  0.40655825  0.83280632  0.52508369  1
  O2-  O455  1  0.35664657  0.81246352  0.88227622  1
  O2-  O456  1  0.66064836  0.08332068  0.18345689  1
  O2-  O457  1  0.66720909  0.08200769  0.52364512  1
  O2-  O458  1  0.66495630  0.10078608  0.85203131  1
  O2-  O459  1  0.65764494  0.34881571  0.19156670  1
  O2-  O460  1  0.66783228  0.33347768  0.52146042  1
  O2-  O461  1  0.64675477  0.32606832  0.85240234  1
  O2-  O462  1  0.68081341  0.60828682  0.19205849  1
  O2-  O463  1  0.66876899  0.58734155  0.52262353  1
  O2-  O464  1  0.66807122  0.57938127  0.85405131  1
  O2-  O465  1  0.66484937  0.83395860  0.18633787  1
  O2-  O466  1  0.65520162  0.82980827  0.51046778  1
  O2-  O467  1  0.68547289  0.85027509  0.85395466  1
  O2-  O468  1  0.91297117  0.08336697  0.19054031  1
  O2-  O469  1  0.89089208  0.05236487  0.54598970  1
  O2-  O470  1  0.91820629  0.02905031  0.84645136  1
  O2-  O471  1  0.90702218  0.33480361  0.17002854  1
  O2-  O472  1  0.90112053  0.31949647  0.50553775  1
  O2-  O473  1  0.92432153  0.34760151  0.83983005  1
  O2-  O474  1  0.92064188  0.59828130  0.18896341  1
  O2-  O475  1  0.91222637  0.56055073  0.50442225  1
  O2-  O476  1  0.94025296  0.61729874  0.86917789  1
  O2-  O477  1  0.91872293  0.85692460  0.16938960  1
  O2-  O478  1  0.91686542  0.83627036  0.52631224  1
  O2-  O479  1  0.92373153  0.83082182  0.86288930  1
  O2-  O480  1  0.16651788  0.06646093  0.31024595  1
  O2-  O481  1  0.18718286  0.07926152  0.65544939  1
  O2-  O482  1  0.16409314  0.08478085  0.98275237  1
  O2-  O483  1  0.18532690  0.35637210  0.35722747  1
  O2-  O484  1  0.18137107  0.34173052  0.63986446  1
  O2-  O485  1  0.15716322  0.30936400  0.97483725  1
  O2-  O486  1  0.17693270  0.59521844  0.30852949  1
  O2-  O487  1  0.16535179  0.59328681  0.64480671  1
  O2-  O488  1  0.17306503  0.55235604  0.98821104  1
  O2-  O489  1  0.16276942  0.81898661  0.32848108  1
  O2-  O490  1  0.16350658  0.83253516  0.65237989  1
  O2-  O491  1  0.17067682  0.84394746  0.97397655  1
  O2-  O492  1  0.41517722  0.07775623  0.30795053  1
  O2-  O493  1  0.41978167  0.07372185  0.64994750  1
  O2-  O494  1  0.45449676  0.15985593  0.95923267  1
  O2-  O495  1  0.41549542  0.33339826  0.31617973  1
  O2-  O496  1  0.42302951  0.33413378  0.64771106  1
  O2-  O497  1  0.42254983  0.33243644  0.97986071  1
  O2-  O498  1  0.41704885  0.58684998  0.31624975  1
  O2-  O499  1  0.41226210  0.58482561  0.61938473  1
  O2-  O500  1  0.40827688  0.56961291  0.98791317  1
  O2-  O501  1  0.41249755  0.83665762  0.37198805  1
  O2-  O502  1  0.43484547  0.81739005  0.63826613  1
  O2-  O503  1  0.42086386  0.87581905  0.99274929  1
  O2-  O504  1  0.66359033  0.08793488  0.30828108  1
  O2-  O505  1  0.66266136  0.07836012  0.64621076  1
  O2-  O506  1  0.66934714  0.09429192  0.97370896  1
  O2-  O507  1  0.65798868  0.33243162  0.30718113  1
  O2-  O508  1  0.65323702  0.33443146  0.64896720  1
  O2-  O509  1  0.66339662  0.33234266  0.97637044  1
  O2-  O510  1  0.62795635  0.57201507  0.30436602  1
  O2-  O511  1  0.67186715  0.58467016  0.64583280  1
  O2-  O512  1  0.66530358  0.57598779  0.97743358  1
  O2-  O513  1  0.67223334  0.83991928  0.31468301  1
  O2-  O514  1  0.66096542  0.82686996  0.62878433  1
  O2-  O515  1  0.65760360  0.83783974  0.97581789  1
  O2-  O516  1  0.91202899  0.08540837  0.30941886  1
  O2-  O517  1  0.91244878  0.07490019  0.66282568  1
  O2-  O518  1  0.91569858  0.06524397  0.96340238  1
  O2-  O519  1  0.91712509  0.34436665  0.29384354  1
  O2-  O520  1  0.92697971  0.33335968  0.68642291  1
  O2-  O521  1  0.92975207  0.32803827  0.95778364  1
  O2-  O522  1  0.89640476  0.59173361  0.31200208  1
  O2-  O523  1  0.90695447  0.56761144  0.66692825  1
  O2-  O524  1  0.92686134  0.60402176  0.97839370  1
  O2-  O525  1  0.91752897  0.83568946  0.32895334  1
  O2-  O526  1  0.92623436  0.84208035  0.65214755  1
  O2-  O527  1  0.90963905  0.82949773  0.98578456  1
  O2-  O528  1  0.07640281  0.15839176  0.01666046  1
  O2-  O529  1  0.08380688  0.15421975  0.35387054  1
  O2-  O530  1  0.07933647  0.16495988  0.67626473  1
  O2-  O531  1  0.07625151  0.38898910  0.00113839  1
  O2-  O532  1  0.08632266  0.43051625  0.33593500  1
  O2-  O533  1  0.10117297  0.42628014  0.67370018  1
  O2-  O534  1  0.07403132  0.68204637  0.02163380  1
  O2-  O535  1  0.10238059  0.67096547  0.36047648  1
  O2-  O536  1  0.08285525  0.66386293  0.70106778  1
  O2-  O537  1  0.07996446  0.91815624  0.01583786  1
  O2-  O538  1  0.07646394  0.90130804  0.35481235  1
  O2-  O539  1  0.09155366  0.92473331  0.69159078  1
  O2-  O540  1  0.33433148  0.17003539  0.02104649  1
  O2-  O541  1  0.33394242  0.16296188  0.35177971  1
  O2-  O542  1  0.33761181  0.15505587  0.68980743  1
  O2-  O543  1  0.33004070  0.40314699  0.02530658  1
  O2-  O544  1  0.35695074  0.43234583  0.36914535  1
  O2-  O545  1  0.34742580  0.42894240  0.67297431  1
  O2-  O546  1  0.30111447  0.58001035  0.05559147  1
  O2-  O547  1  0.33042639  0.65963888  0.36857707  1
  O2-  O548  1  0.33282554  0.66689823  0.68572723  1
  O2-  O549  1  0.32208899  0.93608652  0.01474793  1
  O2-  O550  1  0.32663099  0.92034380  0.36450301  1
  O2-  O551  1  0.33712022  0.90565723  0.68469002  1
  O2-  O552  1  0.58992765  0.16476137  0.02508235  1
  O2-  O553  1  0.57964197  0.16223703  0.35217291  1
  O2-  O554  1  0.57790973  0.14201506  0.68957089  1
  O2-  O555  1  0.57678455  0.41215668  0.02552474  1
  O2-  O556  1  0.58239937  0.40815436  0.35547553  1
  O2-  O557  1  0.58435756  0.42189144  0.68497140  1
  O2-  O558  1  0.58524634  0.66086891  0.00117074  1
  O2-  O559  1  0.58146545  0.67749257  0.36186636  1
  O2-  O560  1  0.57853556  0.66238079  0.67723069  1
  O2-  O561  1  0.58997471  0.93273260  0.01652139  1
  O2-  O562  1  0.57727824  0.92062727  0.31857629  1
  O2-  O563  1  0.58750986  0.91904043  0.68070867  1
  O2-  O564  1  0.84968057  0.15999834  -0.00878985  1
  O2-  O565  1  0.83687163  0.17638734  0.33642174  1
  O2-  O566  1  0.83215887  0.16210872  0.69146260  1
  O2-  O567  1  0.83254738  0.41845102  -0.03144444  1
  O2-  O568  1  0.82861460  0.42544097  0.34063781  1
  O2-  O569  1  0.80965312  0.39704132  0.69299395  1
  O2-  O570  1  0.82794833  0.66367464  0.02033656  1
  O2-  O571  1  0.82443252  0.66574897  0.36150072  1
  O2-  O572  1  0.83215598  0.66950862  0.69642210  1
  O2-  O573  1  0.82327741  0.91098661  0.01622268  1
  O2-  O574  1  0.83289786  0.92505115  0.36499281  1
  O2-  O575  1  0.85478816  0.92839307  0.71195469  1
