# generated using pymatgen
data_H2O
_symmetry_space_group_name_H-M   'P 1'
_cell_length_a   17.98626369
_cell_length_b   17.98918819
_cell_length_c   22.00439342
_cell_angle_alpha   90.01390284
_cell_angle_beta   89.98992939
_cell_angle_gamma   120.02311701
_symmetry_Int_Tables_number   1
_chemical_formula_structural   H2O
_chemical_formula_sum   'H384 O192'
_cell_volume   6164.40732304
_cell_formula_units_Z   192
loop_
 _symmetry_equiv_pos_site_id
 _symmetry_equiv_pos_as_xyz
  1  'x, y, z'
loop_
 _atom_type_symbol
 _atom_type_oxidation_number
  H+  1.0
  O2-  -2.0
loop_
 _atom_site_type_symbol
 _atom_site_label
 _atom_site_symmetry_multiplicity
 _atom_site_fract_x
 _atom_site_fract_y
 _atom_site_fract_z
 _atom_site_occupancy
  H+  H0  1  0.11676634  0.88639658  0.69238456  1
  H+  H1  1  0.85678633  0.23506460  0.83258685  1
  H+  H2  1  0.83049196  0.16908217  0.73788608  1
  H+  H3  1  0.10060618  0.11936320  0.66606826  1
  H+  H4  1  0.58736901  0.63759814  0.67916632  1
  H+  H5  1  0.35357553  0.37818091  0.33590906  1
  H+  H6  1  0.66175810  0.02273677  0.47493581  1
  H+  H7  1  0.62074251  -0.02931707  0.17346152  1
  H+  H8  1  0.16905318  0.82626768  0.91224239  1
  H+  H9  1  0.34784918  0.37716117  0.48960591  1
  H+  H10  1  0.12042315  0.48246265  0.48613715  1
  H+  H11  1  0.88331775  0.60675082  0.16875531  1
  H+  H12  1  0.47176034  0.82581144  0.50132061  1
  H+  H13  1  0.24064806  0.86037429  0.98766903  1
  H+  H14  1  0.56526083  0.72449337  0.46980006  1
  H+  H15  1  0.41221399  0.63520099  0.98966729  1
  H+  H16  1  0.84863180  0.43768906  0.51663484  1
  H+  H17  1  0.91658067  0.92527036  0.81609574  1
  H+  H18  1  0.64316283  0.12847484  0.66794995  1
  H+  H19  1  0.11256467  0.72008028  0.16379327  1
  H+  H20  1  0.91548752  0.36330512  0.16108526  1
  H+  H21  1  0.47285019  0.10176562  -0.01070757  1
  H+  H22  1  0.43158818  0.79378635  -0.00243478  1
  H+  H23  1  1.01597438  0.62945247  0.49862539  1
  H+  H24  1  0.86176625  0.88793886  0.66632568  1
  H+  H25  1  0.26035045  0.37160655  1.00537153  1
  H+  H26  1  0.38860256  0.36553924  0.16647324  1
  H+  H27  1  0.29818589  0.66157402  0.00314390  1
  H+  H28  1  0.84775332  0.92784390  0.72703536  1
  H+  H29  1  0.90029163  0.85900704  0.17901379  1
  H+  H30  1  0.62448059  0.77530268  0.99325999  1
  H+  H31  1  0.36139951  0.13887818  0.15933870  1
  H+  H32  1  0.84918491  0.98609331  -0.00476140  1
  H+  H33  1  0.47339828  0.60846048  0.15607403  1
  H+  H34  1  0.61363636  0.47832065  0.83470547  1
  H+  H35  1  0.15019886  0.87593925  0.51076025  1
  H+  H36  1  0.16735408  0.33873989  0.26097372  1
  H+  H37  1  0.58718038  0.86581565  0.99856985  1
  H+  H38  1  0.58559225  0.94963842  0.34776903  1
  H+  H39  1  0.13423409  0.77953690  0.50571414  1
  H+  H40  1  0.27103418  0.15471716  1.00858548  1
  H+  H41  1  0.68061496  0.35635635  0.26590497  1
  H+  H42  1  0.89774162  0.62587536  0.83771042  1
  H+  H43  1  0.87915519  0.07542699  0.31411356  1
  H+  H44  1  0.46851623  0.35682160  0.32250435  1
  H+  H45  1  0.47947070  0.11801630  0.16648543  1
  H+  H46  1  0.37877892  0.11515099  0.83418688  1
  H+  H47  1  0.78505917  0.87430893  0.15320064  1
  H+  H48  1  0.87423052  0.99485791  0.49468316  1
  H+  H49  1  0.47458636  0.10899886  0.49308575  1
  H+  H50  1  0.96914347  0.60261041  0.17197242  1
  H+  H51  1  0.89887897  0.76619270  0.32173518  1
  H+  H52  1  0.13432753  0.76404751  0.84644732  1
  H+  H53  1  0.62238504  0.09639550  0.99656521  1
  H+  H54  1  0.22776089  0.85980927  0.84510923  1
  H+  H55  1  0.13145088  0.28425128  0.32290053  1
  H+  H56  1  0.72930528  0.11445876  0.84867286  1
  H+  H57  1  0.15047744  0.86578039  0.99268335  1
  H+  H58  1  0.12516799  0.27679684  0.50300218  1
  H+  H59  1  0.11515023  -0.02363405  0.15500144  1
  H+  H60  1  0.25249435  0.10516008  0.48379042  1
  H+  H61  1  0.06575698  -0.06148731  0.84771668  1
  H+  H62  1  0.27837700  0.65261322  0.67241748  1
  H+  H63  1  0.12690699  1.00907645  0.66422386  1
  H+  H64  1  1.02730757  0.64298169  0.83311007  1
  H+  H65  1  0.34261088  0.13347766  0.68000767  1
  H+  H66  1  0.87468831  0.40413431  0.83406223  1
  H+  H67  1  0.87753139  0.11398331  -0.00632588  1
  H+  H68  1  0.13070549  0.76078891  0.33555841  1
  H+  H69  1  0.37969388  0.27575157  0.84564457  1
  H+  H70  1  0.62484062  0.17728439  0.50173695  1
  H+  H71  1  0.36935300  0.63903759  0.15318129  1
  H+  H72  1  0.86972268  0.38597606  0.67257942  1
  H+  H73  1  0.12520886  0.76133941  0.66098255  1
  H+  H74  1  0.64779149  0.76328201  0.15674816  1
  H+  H75  1  0.11965794  0.88828053  0.35265948  1
  H+  H76  1  0.34346953  0.22151122  0.67546901  1
  H+  H77  1  0.88011829  0.68333471  0.48221257  1
  H+  H78  1  0.89781546  0.53487709  0.83987670  1
  H+  H79  1  0.91564320  0.58132381  0.26353398  1
  H+  H80  1  0.83305390  0.43534996  0.06043456  1
  H+  H81  1  0.61336482  0.90637156  0.22374139  1
  H+  H82  1  0.22126934  0.36215145  0.84047749  1
  H+  H83  1  0.11124680  0.13563421  0.15525145  1
  H+  H84  1  0.08188465  0.16232039  0.75655383  1
  H+  H85  1  0.88244857  1.02380211  0.65961764  1
  H+  H86  1  0.70492788  0.36767612  0.50461464  1
  H+  H87  1  0.88587633  0.52686059  0.32639745  1
  H+  H88  1  0.61167012  0.63217325  0.15140364  1
  H+  H89  1  0.87622976  0.86596023  -0.01470896  1
  H+  H90  1  0.35587346  0.38735093  0.83265029  1
  H+  H91  1  0.26226243  0.86305345  0.34424176  1
  H+  H92  1  0.53632878  0.64592275  -0.00483236  1
  H+  H93  1  0.87015278  0.64000796  0.32955510  1
  H+  H94  1  0.70664249  0.08820203  0.00185972  1
  H+  H95  1  0.54377829  0.18489981  0.69329620  1
  H+  H96  1  0.72867511  0.12244115  0.66563384  1
  H+  H97  1  0.10722112  0.38727140  0.83849148  1
  H+  H98  1  0.60589803  0.10416033  0.83209276  1
  H+  H99  1  0.36019086  0.22741079  0.16199248  1
  H+  H100  1  0.60901678  0.47469030  0.33111539  1
  H+  H101  1  0.60777663  0.72326055  0.82901216  1
  H+  H102  1  0.60629775  0.40319721  0.49080659  1
  H+  H103  1  0.64816771  0.25276074  0.33704249  1
  H+  H104  1  0.86225789  0.14920177  0.83129267  1
  H+  H105  1  0.61300473  0.37979966  0.67952532  1
  H+  H106  1  0.37771832  0.26805707  0.32310763  1
  H+  H107  1  0.36202028  0.72847618  0.82417074  1
  H+  H108  1  0.47081332  0.09927199  0.33194748  1
  H+  H109  1  0.63614460  0.78587678  0.67054819  1
  H+  H110  1  0.13782156  0.52421813  0.84844538  1
  H+  H111  1  0.42467438  0.09413478  0.22698372  1
  H+  H112  1  0.90866942  0.89923988  0.50445707  1
  H+  H113  1  0.14351293  0.03041337  0.55823177  1
  H+  H114  1  0.98169811  0.13653783  0.84105445  1
  H+  H115  1  0.68793977  0.59960006  0.89687683  1
  H+  H116  1  0.60731765  0.26391981  0.86056859  1
  H+  H117  1  0.07125698  0.90546654  0.74749244  1
  H+  H118  1  0.12812920  0.02710683  0.32658844  1
  H+  H119  1  0.24609360  0.86657032  0.68002481  1
  H+  H120  1  0.13282175  0.27331273  0.83592308  1
  H+  H121  1  0.34462617  0.96915150  0.82772864  1
  H+  H122  1  1.02562481  0.14647509  0.49429647  1
  H+  H123  1  0.36686765  0.50146997  0.47704125  1
  H+  H124  1  0.87688676  0.74171692  0.82503376  1
  H+  H125  1  0.85961744  0.13507805  0.67911427  1
  H+  H126  1  0.22315959  0.11047285  0.17128863  1
  H+  H127  1  0.65441500  0.85553681  0.16133734  1
  H+  H128  1  0.14114596  0.61488804  0.84584407  1
  H+  H129  1  0.65694380  0.29420892  0.66447118  1
  H+  H130  1  0.89855785  1.02121558  0.16587162  1
  H+  H131  1  0.14947303  0.62047157  -0.00184834  1
  H+  H132  1  0.74965066  0.36129785  0.02642299  1
  H+  H133  1  0.14301851  0.38919763  0.17955580  1
  H+  H134  1  0.34972818  0.72151650  0.33557997  1
  H+  H135  1  0.16810072  0.58416805  0.26186331  1
  H+  H136  1  0.88401623  0.26721360  0.66202101  1
  H+  H137  1  0.12326270  0.39246154  0.48692840  1
  H+  H138  1  0.80778290  0.65269723  0.67623760  1
  H+  H139  1  0.26932486  0.37716460  0.15843576  1
  H+  H140  1  0.15071923  0.52401882  0.18260604  1
  H+  H141  1  0.61033484  0.22017603  1.00461309  1
  H+  H142  1  0.48469270  0.39622826  0.51189672  1
  H+  H143  1  0.35388613  0.71200958  0.49323299  1
  H+  H144  1  0.11058482  0.13622208  0.81838990  1
  H+  H145  1  0.46216599  0.10141403  0.83567776  1
  H+  H146  1  0.33270915  -0.04644243  0.67943694  1
  H+  H147  1  0.28229445  0.64242437  0.15807816  1
  H+  H148  1  0.77387806  0.13034713  0.32964474  1
  H+  H149  1  -0.00604629  0.86290671  0.33021593  1
  H+  H150  1  0.82255926  0.66488860  0.09307765  1
  H+  H151  1  0.39069423  0.77055745  0.66368620  1
  H+  H152  1  0.20726797  0.09862924  0.65094512  1
  H+  H153  1  0.79019021  0.90276014  0.50075845  1
  H+  H154  1  0.78741716  0.67351457  0.47794340  1
  H+  H155  1  0.37784153  0.85661293  0.83606427  1
  H+  H156  1  0.27558303  0.87471707  0.49328534  1
  H+  H157  1  0.03127741  0.62698395  0.67876772  1
  H+  H158  1  0.41064309  0.57068860  0.42668554  1
  H+  H159  1  0.39165909  0.62445034  0.31214984  1
  H+  H160  1  0.01536739  0.13675858  0.00695151  1
  H+  H161  1  0.63352843  0.65709499  -0.00216852  1
  H+  H162  1  0.98482183  0.11498180  0.16673765  1
  H+  H163  1  0.63561628  0.11185246  0.32519933  1
  H+  H164  1  0.64476346  0.82373809  0.89454701  1
  H+  H165  1  0.78643585  0.39732832  0.67271008  1
  H+  H166  1  0.52102563  0.63035887  0.82694784  1
  H+  H167  1  0.26595643  0.12947007  0.83292488  1
  H+  H168  1  0.04280361  0.91822012  0.50392941  1
  H+  H169  1  0.10510785  0.38538268  0.00000423  1
  H+  H170  1  0.22805989  0.61483620  0.32568134  1
  H+  H171  1  0.72447624  0.61248602  0.16761288  1
  H+  H172  1  0.88904102  0.24620059  0.49847668  1
  H+  H173  1  0.70350192  0.87317503  0.98850008  1
  H+  H174  1  0.63455912  0.52408121  0.16840426  1
  H+  H175  1  0.62448455  0.35811191  0.85362084  1
  H+  H176  1  0.35954133  0.86506195  0.33719363  1
  H+  H177  1  0.53739903  0.40944429  0.00443753  1
  H+  H178  1  0.89507650  0.38107168  0.31960876  1
  H+  H179  1  1.00440798  0.37289468  0.50086433  1
  H+  H180  1  0.72927808  0.11130373  0.16840226  1
  H+  H181  1  0.41439862  0.33504090  0.60948636  1
  H+  H182  1  0.82909149  0.63043890  0.99006188  1
  H+  H183  1  0.08538432  0.66647413  0.10259418  1
  H+  H184  1  0.09173436  0.92726523  0.40785424  1
  H+  H185  1  0.14032646  0.60898915  0.17466865  1
  H+  H186  1  0.02449843  0.64580963  0.00839924  1
  H+  H187  1  0.20726334  0.52809942  0.63460896  1
  H+  H188  1  0.13264830  0.26893009  0.99378826  1
  H+  H189  1  0.46701315  0.34963188  0.67048397  1
  H+  H190  1  0.58093100  0.95781721  0.00269875  1
  H+  H191  1  -0.01528861  0.38427555  0.31870267  1
  H+  H192  1  0.39477871  0.84983228  0.50491403  1
  H+  H193  1  0.64373762  0.63973355  0.49140338  1
  H+  H194  1  0.77208949  0.39668751  0.34207780  1
  H+  H195  1  0.61438268  0.97414775  0.82756303  1
  H+  H196  1  0.97207714  0.36494450  0.85225708  1
  H+  H197  1  0.72998105  0.87199124  0.66929158  1
  H+  H198  1  0.60440683  0.46368264  0.68205440  1
  H+  H199  1  0.10554926  0.62830287  0.34213608  1
  H+  H200  1  0.38790218  0.28677838  0.00116973  1
  H+  H201  1  0.88368450  0.54185597  0.98473096  1
  H+  H202  1  0.86865581  0.22103377  0.16067806  1
  H+  H203  1  0.48071132  0.85908141  0.18372248  1
  H+  H204  1  0.69996330  0.07609645  0.32565131  1
  H+  H205  1  0.35066404  0.47099467  0.68058120  1
  H+  H206  1  0.13200743  0.02398560  0.99873511  1
  H+  H207  1  0.61850620  0.39579324  0.15857334  1
  H+  H208  1  0.34611744  0.62019164  0.47929632  1
  H+  H209  1  0.48227286  0.18625655  0.30973132  1
  H+  H210  1  0.87320399  0.34541486  1.00935961  1
  H+  H211  1  0.90640783  0.79102095  0.65712962  1
  H+  H212  1  0.90745069  0.61572303  0.66594360  1
  H+  H213  1  0.64538025  0.53214795  0.66447647  1
  H+  H214  1  0.61951518  0.89966220  0.67086389  1
  H+  H215  1  0.46971963  0.36417092  0.84625610  1
  H+  H216  1  0.73038871  0.88686369  0.31659847  1
  H+  H217  1  0.21891510  0.61301726  0.50195664  1
  H+  H218  1  0.17316554  0.57533942  0.59300748  1
  H+  H219  1  0.62901114  1.01244848  0.49950417  1
  H+  H220  1  0.12080223  0.22920385  0.16065628  1
  H+  H221  1  0.12023722  0.88977829  0.15369553  1
  H+  H222  1  0.36751823  0.96748895  -0.00932746  1
  H+  H223  1  0.61319452  0.98661779  0.66658604  1
  H+  H224  1  0.01740045  0.63017036  0.33912744  1
  H+  H225  1  0.50984378  0.62900725  0.48934159  1
  H+  H226  1  0.89941436  0.52102085  0.66816643  1
  H+  H227  1  0.24738475  0.87908892  0.18032898  1
  H+  H228  1  0.86681736  0.56276209  0.52248977  1
  H+  H229  1  0.19869557  0.00672964  0.87736102  1
  H+  H230  1  0.60611774  0.62189421  0.33705835  1
  H+  H231  1  0.49063635  0.86719011  0.65742317  1
  H+  H232  1  0.86675368  -0.04552105  0.33647364  1
  H+  H233  1  0.21724400  0.34628029  0.66022050  1
  H+  H234  1  0.13408418  0.50899366  0.32689364  1
  H+  H235  1  0.62602644  0.22128837  0.15209620  1
  H+  H236  1  0.70441462  0.23009283  0.37771315  1
  H+  H237  1  0.35810213  0.47329322  0.15072231  1
  H+  H238  1  0.66480344  0.07272623  0.90731645  1
  H+  H239  1  0.46839966  0.86030693  0.83310094  1
  H+  H240  1  0.12578473  0.11035756  0.99402763  1
  H+  H241  1  0.01198911  0.38636326  0.68752971  1
  H+  H242  1  0.11655672  0.72988272  0.00921752  1
  H+  H243  1  0.11028850  0.21439144  0.66616168  1
  H+  H244  1  0.87131526  0.13798392  0.32494951  1
  H+  H245  1  0.65027435  0.63260661  0.66669565  1
  H+  H246  1  0.09797922  0.47597323  0.68696936  1
  H+  H247  1  0.75394782  0.18383980  0.51874147  1
  H+  H248  1  0.72747582  0.61056406  0.31820610  1
  H+  H249  1  0.52371042  0.38610606  0.15866572  1
  H+  H250  1  0.60650106  0.84763624  0.48938552  1
  H+  H251  1  0.36600349  -0.03854302  0.48531722  1
  H+  H252  1  0.36811965  -0.02285575  0.15932780  1
  H+  H253  1  0.35605319  0.38403882  0.68018976  1
  H+  H254  1  0.89134371  0.12277510  0.51383996  1
  H+  H255  1  0.63423612  0.37062602  0.32441365  1
  H+  H256  1  0.26814674  0.38506056  0.33527080  1
  H+  H257  1  0.37257715  0.61071196  0.67115210  1
  H+  H258  1  0.62110335  0.85124879  0.83307847  1
  H+  H259  1  0.91427829  0.36973451  0.50493884  1
  H+  H260  1  0.34766666  0.13352609  0.33825274  1
  H+  H261  1  0.98936338  0.85966500  0.17192665  1
  H+  H262  1  0.91063355  0.81314485  0.49693994  1
  H+  H263  1  0.61417969  0.28427885  0.50664836  1
  H+  H264  1  0.61565777  0.49577194  0.48003164  1
  H+  H265  1  0.12362928  0.39793268  0.32868506  1
  H+  H266  1  0.66719140  0.78431825  0.52603584  1
  H+  H267  1  0.79115777  0.33237290  0.51968296  1
  H+  H268  1  0.67897169  0.55189400  1.00027786  1
  H+  H269  1  0.66504909  0.33266981  0.94331800  1
  H+  H270  1  0.12292624  0.63364552  0.68240595  1
  H+  H271  1  0.21834829  0.29125983  0.21457266  1
  H+  H272  1  0.21650076  0.36171812  0.50355857  1
  H+  H273  1  0.48217944  0.62678178  0.31301567  1
  H+  H274  1  0.38292448  0.52426441  0.83818596  1
  H+  H275  1  0.86538251  0.13043368  0.15918666  1
  H+  H276  1  0.12970433  0.61398865  0.50738858  1
  H+  H277  1  0.63701090  0.36640188  1.00121232  1
  H+  H278  1  0.34678596  0.12127658  0.47849705  1
  H+  H279  1  0.02448140  0.88276099  0.00099862  1
  H+  H280  1  0.46371208  0.84810025  0.32483356  1
  H+  H281  1  0.42303824  0.07057637  0.72080111  1
  H+  H282  1  0.45871931  0.61075018  0.67409293  1
  H+  H283  1  0.02734026  0.14387690  0.33432828  1
  H+  H284  1  0.11689756  0.15041590  0.33720141  1
  H+  H285  1  0.86290817  0.68242903  0.73563838  1
  H+  H286  1  0.96628967  0.35547757  0.99806738  1
  H+  H287  1  0.86525158  0.72250736  0.15246802  1
  H+  H288  1  0.69734978  0.16272844  0.57815421  1
  H+  H289  1  0.91533410  0.09397036  0.93300846  1
  H+  H290  1  0.84696135  0.21403224  0.00857861  1
  H+  H291  1  0.36141617  0.38106672  1.00653002  1
  H+  H292  1  0.17980586  0.59313330  0.93868401  1
  H+  H293  1  0.85949107  0.89919115  0.10313654  1
  H+  H294  1  0.90161183  0.04673209  0.83802959  1
  H+  H295  1  0.08208323  0.17911751  0.43373522  1
  H+  H296  1  0.15628115  0.82589514  0.60347970  1
  H+  H297  1  0.09883914  0.43097793  0.39259211  1
  H+  H298  1  0.93684680  0.85097591  0.89415648  1
  H+  H299  1  0.58805529  0.66576920  0.09020446  1
  H+  H300  1  0.53167206  0.05040766  0.78762657  1
  H+  H301  1  0.41890444  0.58825310  0.21659611  1
  H+  H302  1  0.05191862  0.38323716  0.17599004  1
  H+  H303  1  0.84557445  0.17843960  0.38744123  1
  H+  H304  1  0.57465762  0.64705180  0.39701512  1
  H+  H305  1  0.10849737  0.47469114  0.00148597  1
  H+  H306  1  0.44508969  0.43933551  0.55190806  1
  H+  H307  1  0.41641790  0.34340808  0.94011183  1
  H+  H308  1  0.82521986  0.91620543  0.39996236  1
  H+  H309  1  0.38773385  0.61562993  0.83364518  1
  H+  H310  1  0.83003972  0.41565165  0.40133767  1
  H+  H311  1  0.35203668  0.68544025  0.06391366  1
  H+  H312  1  0.31934037  0.66191502  0.39582707  1
  H+  H313  1  0.32417958  0.41306171  0.77198797  1
  H+  H314  1  0.84187934  0.67967211  0.38555030  1
  H+  H315  1  0.27379465  0.63675045  0.82542123  1
  H+  H316  1  0.16558262  0.32784889  0.93369095  1
  H+  H317  1  0.33194682  0.68030629  0.73704153  1
  H+  H318  1  0.92575616  0.33819336  0.22856471  1
  H+  H319  1  0.68250704  0.84860586  0.57929632  1
  H+  H320  1  0.44663934  0.06877215  0.65215870  1
  H+  H321  1  0.39038067  0.77202718  0.17319906  1
  H+  H322  1  0.40649074  0.82648709  0.26284618  1
  H+  H323  1  0.07802829  0.16735736  0.06542802  1
  H+  H324  1  0.91960271  0.08944568  0.57170354  1
  H+  H325  1  0.32906210  0.89323226  0.40544157  1
  H+  H326  1  0.21701088  0.11397092  0.32325411  1
  H+  H327  1  0.07303875  0.41977702  0.78308614  1
  H+  H328  1  0.97313936  0.11174092  0.66246867  1
  H+  H329  1  0.31545522  0.39574582  0.42450882  1
  H+  H330  1  0.78643383  0.65272164  0.82459989  1
  H+  H331  1  0.07167643  0.66148529  0.43759398  1
  H+  H332  1  0.61054381  0.12749589  0.15291752  1
  H+  H333  1  0.16066641  0.32112907  0.59946203  1
  H+  H334  1  0.84492680  0.18126346  0.44107927  1
  H+  H335  1  0.36719687  0.88786991  0.16278995  1
  H+  H336  1  0.59276068  0.18469983  0.43559991  1
  H+  H337  1  0.91988641  0.56205867  0.57947659  1
  H+  H338  1  0.31330183  0.15873656  0.39738781  1
  H+  H339  1  0.09057424  0.67106039  0.77495582  1
  H+  H340  1  0.20604717  0.92141666  0.21992484  1
  H+  H341  1  0.57650724  0.41919684  0.39206483  1
  H+  H342  1  0.79797346  0.93725303  0.05329744  1
  H+  H343  1  0.76952987  0.43930232  0.18944648  1
  H+  H344  1  0.85297298  0.43400010  0.77185141  1
  H+  H345  1  0.91754345  0.60142349  0.92737515  1
  H+  H346  1  0.40385317  0.07369123  0.54454950  1
  H+  H347  1  0.67996563  0.84392422  0.25519794  1
  H+  H348  1  0.57995613  0.41241049  0.77917325  1
  H+  H349  1  0.59172668  0.43102180  0.06473295  1
  H+  H350  1  0.64477444  0.61965763  0.84028910  1
  H+  H351  1  0.82296519  0.15537362  0.06775707  1
  H+  H352  1  0.58282800  0.92366206  0.76400471  1
  H+  H353  1  0.57822661  0.67315635  0.74543519  1
  H+  H354  1  0.43257327  0.59949283  0.92945866  1
  H+  H355  1  0.41503905  0.33502977  0.22766412  1
  H+  H356  1  0.32814546  0.18011920  0.06819768  1
  H+  H357  1  0.96508600  1.00724857  0.77583908  1
  H+  H358  1  0.92708189  0.32943414  0.60379027  1
  H+  H359  1  0.56214276  0.84776378  0.42516696  1
  H+  H360  1  0.42665668  0.82393638  0.59493017  1
  H+  H361  1  0.37517100  0.88239480  -0.01011829  1
  H+  H362  1  0.41024751  0.07636358  0.93271201  1
  H+  H363  1  0.08187975  0.91166154  0.06077019  1
  H+  H364  1  0.57897524  0.15824878  0.06178242  1
  H+  H365  1  0.90561398  0.33150396  0.90790615  1
  H+  H366  1  0.59880622  0.17695389  0.74481788  1
  H+  H367  1  0.30914532  0.90281394  0.77041169  1
  H+  H368  1  0.16821871  0.82530012  0.27749713  1
  H+  H369  1  0.66331632  0.08206729  0.22454280  1
  H+  H370  1  0.94021612  0.83339542  0.26055458  1
  H+  H371  1  0.92701254  0.85100993  0.59842078  1
  H+  H372  1  0.92743567  0.07282521  0.25331709  1
  H+  H373  1  0.66545401  0.58070429  0.26047392  1
  H+  H374  1  0.86527191  0.77350908  0.98348373  1
  H+  H375  1  0.75127098  0.33886178  0.12556533  1
  H+  H376  1  0.15866437  0.07827479  0.22836896  1
  H+  H377  1  0.68167195  0.61079159  0.54715357  1
  H+  H378  1  0.66669574  0.34555438  0.60215552  1
  H+  H379  1  0.32261925  0.40562731  0.07170323  1
  H+  H380  1  0.60291735  0.87536387  0.32803245  1
  H+  H381  1  0.68298171  0.60752768  0.59996870  1
  H+  H382  1  0.31511874  0.16612256  0.76995989  1
  H+  H383  1  0.16251010  0.05874190  0.91100811  1
  O2-  O384  1  0.08264297  0.16840782  0.14259658  1
  O2-  O385  1  0.08477523  0.18295052  0.47858164  1
  O2-  O386  1  0.08017833  0.16451663  0.80305662  1
  O2-  O387  1  0.11428813  0.42338072  0.17779641  1
  O2-  O388  1  0.09478836  0.42428432  0.46706045  1
  O2-  O389  1  0.07691368  0.41951361  0.82887632  1
  O2-  O390  1  0.08419674  0.66130763  0.14828929  1
  O2-  O391  1  0.07489795  0.66638374  0.48287766  1
  O2-  O392  1  0.08996340  0.67340791  0.82027142  1
  O2-  O393  1  0.08520560  0.91498749  0.13954319  1
  O2-  O394  1  0.10553189  0.94128252  0.49143242  1
  O2-  O395  1  0.02845334  0.87914389  0.83151968  1
  O2-  O396  1  0.32673434  0.16623881  0.14839739  1
  O2-  O397  1  0.31100227  0.14682585  0.46874173  1
  O2-  O398  1  0.32355355  0.16698794  0.81510641  1
  O2-  O399  1  0.32961695  0.41159783  0.13728666  1
  O2-  O400  1  0.31372974  0.40059749  0.47124118  1
  O2-  O401  1  0.32474371  0.41669507  0.81759878  1
  O2-  O402  1  0.34202530  0.67466346  0.14236280  1
  O2-  O403  1  0.31756998  0.65533512  0.47298838  1
  O2-  O404  1  0.33257968  0.66746808  0.80694063  1
  O2-  O405  1  0.33292155  0.91475207  0.15063510  1
  O2-  O406  1  0.33473729  0.89869209  0.47505570  1
  O2-  O407  1  0.31434551  0.90693145  0.81651627  1
  O2-  O408  1  0.58304471  0.16161653  0.14016523  1
  O2-  O409  1  0.57808358  0.18173132  0.47925775  1
  O2-  O410  1  0.56049190  0.10768135  0.80579349  1
  O2-  O411  1  0.58424265  0.42055209  0.14288796  1
  O2-  O412  1  0.57809955  0.43373176  0.47203932  1
  O2-  O413  1  0.57866641  0.41633674  0.82404933  1
  O2-  O414  1  0.58375647  0.66445241  0.13559333  1
  O2-  O415  1  0.57118949  0.67488624  0.48363313  1
  O2-  O416  1  0.58257734  0.66187907  0.81239987  1
  O2-  O417  1  0.59415643  0.90776309  0.18221669  1
  O2-  O418  1  0.55183249  0.81957874  0.46584080  1
  O2-  O419  1  0.57822629  0.91651981  0.80880096  1
  O2-  O420  1  0.83344630  0.16004898  0.14663913  1
  O2-  O421  1  0.84462248  0.18403873  0.48616843  1
  O2-  O422  1  0.82689490  0.17424889  0.81662278  1
  O2-  O423  1  0.72655141  0.31841995  0.16757593  1
  O2-  O424  1  0.81498388  0.38325055  0.49288949  1
  O2-  O425  1  0.85502712  0.44226834  0.81627466  1
  O2-  O426  1  0.82992980  0.66273358  0.13748908  1
  O2-  O427  1  0.84747516  0.70595331  0.46186520  1
  O2-  O428  1  0.84741817  0.68150104  0.81028168  1
  O2-  O429  1  0.85023821  0.90873415  0.14550343  1
  O2-  O430  1  0.84660162  0.93373476  0.47956804  1
  O2-  O431  1  0.90874047  0.96949603  0.79370545  1
  O2-  O432  1  0.16067184  0.07612696  0.18296880  1
  O2-  O433  1  0.14872315  0.03156010  0.51241860  1
  O2-  O434  1  0.16725234  0.03691222  0.86918405  1
  O2-  O435  1  0.18821610  0.31614020  0.19331621  1
  O2-  O436  1  0.15670454  0.33874348  0.51900905  1
  O2-  O437  1  0.16051599  0.33018986  0.85605732  1
  O2-  O438  1  0.17594732  0.58711975  0.19378943  1
  O2-  O439  1  0.15947128  0.58200451  0.51984489  1
  O2-  O440  1  0.17356026  0.58671374  0.85974924  1
  O2-  O441  1  0.18955379  0.86523219  0.20253862  1
  O2-  O442  1  0.17415301  0.83811822  0.52153031  1
  O2-  O443  1  0.16629462  0.82590119  0.86385727  1
  O2-  O444  1  0.41925230  0.08859088  0.18240376  1
  O2-  O445  1  0.41163439  0.06901196  0.50116612  1
  O2-  O446  1  0.40089928  0.07602926  0.84647462  1
  O2-  O447  1  0.41938431  0.33594276  0.18221329  1
  O2-  O448  1  0.43298691  0.38320555  0.53713672  1
  O2-  O449  1  0.40908379  0.33586318  0.86087199  1
  O2-  O450  1  0.41299321  0.57904132  0.17106806  1
  O2-  O451  1  0.40182964  0.56678136  0.47071098  1
  O2-  O452  1  0.41868696  0.58635029  0.84931450  1
  O2-  O453  1  0.41791348  0.83113278  0.19224586  1
  O2-  O454  1  0.41750121  0.81438637  0.52300307  1
  O2-  O455  1  0.40790791  0.82504530  0.84639286  1
  O2-  O456  1  0.66662619  0.08029070  0.17976907  1
  O2-  O457  1  0.71332168  0.19738225  0.53993271  1
  O2-  O458  1  0.66780771  0.07700029  0.86197970  1
  O2-  O459  1  0.71171122  0.38745054  0.19010627  1
  O2-  O460  1  0.64685782  0.34486087  0.52222542  1
  O2-  O461  1  0.64913763  0.32330547  0.86989480  1
  O2-  O462  1  0.66473167  0.58469332  0.18372976  1
  O2-  O463  1  0.68051037  0.61364830  0.50160008  1
  O2-  O464  1  0.68019693  0.59312963  0.85228523  1
  O2-  O465  1  0.68682103  0.82527761  0.16937545  1
  O2-  O466  1  0.68846544  0.84527656  0.53381030  1
  O2-  O467  1  0.64783985  0.81893769  0.85011994  1
  O2-  O468  1  0.92324873  0.08025337  0.18249097  1
  O2-  O469  1  0.92084715  0.09112947  0.52594747  1
  O2-  O470  1  0.92184040  0.10417113  0.85683537  1
  O2-  O471  1  0.93053024  0.32645312  0.18414231  1
  O2-  O472  1  0.94497653  0.34121932  0.52038637  1
  O2-  O473  1  0.90925959  0.33477124  0.86263776  1
  O2-  O474  1  0.90965762  0.57567306  0.18812083  1
  O2-  O475  1  0.90963249  0.54730578  0.53412469  1
  O2-  O476  1  0.92781521  0.59742579  0.85599616  1
  O2-  O477  1  0.93085884  0.82785761  0.19190232  1
  O2-  O478  1  0.94089378  0.86903833  0.51791625  1
  O2-  O479  1  0.93931106  0.85478432  0.84841400  1
  O2-  O480  1  0.15615543  0.08455197  0.30763507  1
  O2-  O481  1  0.14774088  0.06002741  0.63638133  1
  O2-  O482  1  0.15990327  0.08290176  0.98106658  1
  O2-  O483  1  0.16162328  0.34454256  0.30685782  1
  O2-  O484  1  0.15878785  0.30938401  0.64364642  1
  O2-  O485  1  0.16787647  0.32972775  0.97929761  1
  O2-  O486  1  0.16522746  0.58085717  0.30945192  1
  O2-  O487  1  0.18607737  0.56859930  0.63689189  1
  O2-  O488  1  0.18343884  0.59435909  0.98408098  1
  O2-  O489  1  0.16667151  0.82307014  0.32298722  1
  O2-  O490  1  0.15046861  0.82239798  0.64842441  1
  O2-  O491  1  0.17492080  0.83047705  0.97733518  1
  O2-  O492  1  0.44228831  0.12445352  0.30922864  1
  O2-  O493  1  0.41760320  0.08853754  0.67982002  1
  O2-  O494  1  0.41195504  0.06766602  0.97665850  1
  O2-  O495  1  0.40904530  0.32739730  0.30588608  1
  O2-  O496  1  0.40782516  0.32484796  0.65409842  1
  O2-  O497  1  0.42034576  0.34877693  0.98533479  1
  O2-  O498  1  0.43203320  0.61588923  0.28744791  1
  O2-  O499  1  0.39913839  0.57611699  0.65965459  1
  O2-  O500  1  0.44273352  0.60600271  0.97404771  1
  O2-  O501  1  0.40297014  0.82468717  0.30967152  1
  O2-  O502  1  0.42871788  0.83018425  0.64119519  1
  O2-  O503  1  0.46733539  0.85432023  0.97968500  1
  O2-  O504  1  0.64442832  0.06503862  0.30817817  1
  O2-  O505  1  0.66975854  0.09908897  0.64690709  1
  O2-  O506  1  0.64672638  0.05823701  0.98529899  1
  O2-  O507  1  0.67086894  0.34552378  0.31041677  1
  O2-  O508  1  0.67852055  0.35241613  0.64672280  1
  O2-  O509  1  0.66452783  0.33206144  0.98933077  1
  O2-  O510  1  0.66641054  0.57669017  0.30606394  1
  O2-  O511  1  0.68412082  0.60427202  0.64944382  1
  O2-  O512  1  0.70909174  0.61088097  0.98140811  1
  O2-  O513  1  0.68051576  0.87807311  0.29042040  1
  O2-  O514  1  0.66860682  0.84521156  0.65384694  1
  O2-  O515  1  0.64116936  0.83588663  0.97877322  1
  O2-  O516  1  0.92768963  0.06931718  0.30008527  1
  O2-  O517  1  0.91190341  0.08602791  0.64815643  1
  O2-  O518  1  0.90993380  0.08545806  0.97826505  1
  O2-  O519  1  0.92550238  0.35267020  0.30282272  1
  O2-  O520  1  0.91455377  0.32841419  0.64761806  1
  O2-  O521  1  0.90302988  0.31999474  0.98747294  1
  O2-  O522  1  0.91800733  0.58635150  0.30952685  1
  O2-  O523  1  0.93317161  0.58117486  0.65029925  1
  O2-  O524  1  0.90929239  0.60212168  0.97345642  1
  O2-  O525  1  0.93667015  0.83020203  0.30778655  1
  O2-  O526  1  0.91776053  0.84766512  0.64296511  1
  O2-  O527  1  0.90509276  0.83424968  0.97230813  1
  O2-  O528  1  0.07678101  0.16528203  0.01974581  1
  O2-  O529  1  0.08607321  0.18085654  0.35047849  1
  O2-  O530  1  0.07619014  0.15355946  0.68419753  1
  O2-  O531  1  0.07088653  0.41281709  0.00996015  1
  O2-  O532  1  0.09809504  0.43422430  0.34646250  1
  O2-  O533  1  0.06699293  0.42190263  0.70928665  1
  O2-  O534  1  0.08286059  0.67005513  0.02561640  1
  O2-  O535  1  0.07637603  0.65876734  0.35809177  1
  O2-  O536  1  0.09140331  0.66204793  0.69553274  1
  O2-  O537  1  0.08456554  0.91315946  0.01539426  1
  O2-  O538  1  0.08607686  0.91668843  0.36310467  1
  O2-  O539  1  0.11360744  0.93240014  0.71471581  1
  O2-  O540  1  0.32965821  0.19254803  0.02418638  1
  O2-  O541  1  0.31663654  0.16305813  0.35089190  1
  O2-  O542  1  0.30950026  0.16122912  0.69133790  1
  O2-  O543  1  0.32155697  0.40284910  0.02349048  1
  O2-  O544  1  0.32454803  0.40655013  0.35560932  1
  O2-  O545  1  0.32199355  0.40988580  0.69507185  1
  O2-  O546  1  0.35832694  0.69208288  0.01875749  1
  O2-  O547  1  0.31781744  0.66070777  0.35022082  1
  O2-  O548  1  0.33668729  0.68727979  0.69037639  1
  O2-  O549  1  0.33490518  0.90309119  -0.00249773  1
  O2-  O550  1  0.32542605  0.89241599  0.35831689  1
  O2-  O551  1  0.30587219  0.89659066  0.69769002  1
  O2-  O552  1  0.58167537  0.15838733  0.01640553  1
  O2-  O553  1  0.64659800  0.20308666  0.36046516  1
  O2-  O554  1  0.60258881  0.19803675  0.70214021  1
  O2-  O555  1  0.59761312  0.43644250  0.01953328  1
  O2-  O556  1  0.57765863  0.41397468  0.34705812  1
  O2-  O557  1  0.57588854  0.40281878  0.69667512  1
  O2-  O558  1  0.59776596  0.68038360  0.01319888  1
  O2-  O559  1  0.57184972  0.64713117  0.35266696  1
  O2-  O560  1  0.57529663  0.67984809  0.69791718  1
  O2-  O561  1  0.54774107  0.89352110  0.01527843  1
  O2-  O562  1  0.56175254  0.88729425  0.35239699  1
  O2-  O563  1  0.58316784  0.92611480  0.68184874  1
  O2-  O564  1  0.81662339  0.15248552  0.02250234  1
  O2-  O565  1  0.84054417  0.17096824  0.33893943  1
  O2-  O566  1  0.82917399  0.16633838  0.69232742  1
  O2-  O567  1  0.79948758  0.37330690  0.05512762  1
  O2-  O568  1  0.83271692  0.42378525  0.35710465  1
  O2-  O569  1  0.84598727  0.42237400  0.68826766  1
  O2-  O570  1  0.79650915  0.65710719  0.00869352  1
  O2-  O571  1  0.84222580  0.67527103  0.34038376  1
  O2-  O572  1  0.86717854  0.67950822  0.69001767  1
  O2-  O573  1  0.81095068  0.92563271  0.01242688  1
  O2-  O574  1  0.81754471  0.90494450  0.35551029  1
  O2-  O575  1  0.83105270  0.91811884  0.68344046  1
