# generated using pymatgen
data_H2O
_symmetry_space_group_name_H-M   'P 1'
_cell_length_a   17.99274051
_cell_length_b   17.99963143
_cell_length_c   22.01243892
_cell_angle_alpha   89.97077449
_cell_angle_beta   90.00892198
_cell_angle_gamma   119.99185419
_symmetry_Int_Tables_number   1
_chemical_formula_structural   H2O
_chemical_formula_sum   'H384 O192'
_cell_volume   6174.40776393
_cell_formula_units_Z   192
loop_
 _symmetry_equiv_pos_site_id
 _symmetry_equiv_pos_as_xyz
  1  'x, y, z'
loop_
 _atom_type_symbol
 _atom_type_oxidation_number
  H+  1.0
  O2-  -2.0
loop_
 _atom_site_type_symbol
 _atom_site_label
 _atom_site_symmetry_multiplicity
 _atom_site_fract_x
 _atom_site_fract_y
 _atom_site_fract_z
 _atom_site_occupancy
  H+  H0  1  0.28415096  0.38496588  -0.01880897  1
  H+  H1  1  0.10631144  0.71849920  0.67150090  1
  H+  H2  1  0.87084597  0.46806274  -0.00153470  1
  H+  H3  1  0.86766070  0.38290859  0.15571711  1
  H+  H4  1  0.50753992  0.66343814  0.31608068  1
  H+  H5  1  0.60252941  0.12575073  0.16884861  1
  H+  H6  1  0.12004047  0.47722423  0.48749939  1
  H+  H7  1  1.02352066  0.89103336  1.02059302  1
  H+  H8  1  0.34716043  0.95560340  0.64966423  1
  H+  H9  1  0.11326450  -0.03126801  0.82409591  1
  H+  H10  1  0.75031134  0.37991111  0.68906983  1
  H+  H11  1  1.01997343  0.64734273  0.33518564  1
  H+  H12  1  0.97884186  0.61388261  0.16896200  1
  H+  H13  1  0.84574857  0.13284236  0.34269518  1
  H+  H14  1  0.35441641  0.12065090  0.34898744  1
  H+  H15  1  0.65368006  0.57909937  0.62533262  1
  H+  H16  1  0.84523757  0.67299052  0.10211745  1
  H+  H17  1  0.53234490  0.90187649  0.83058667  1
  H+  H18  1  0.33257253  0.47640275  0.30098811  1
  H+  H19  1  0.86413789  0.26028009  0.33177621  1
  H+  H20  1  0.97582060  0.86125055  0.65194013  1
  H+  H21  1  0.52017451  0.13832584  0.82244948  1
  H+  H22  1  0.38827904  0.26474355  0.32719797  1
  H+  H23  1  0.64333492  0.62352643  0.48278621  1
  H+  H24  1  0.11646955  0.14848417  0.50247546  1
  H+  H25  1  0.97243270  0.09797573  0.99154497  1
  H+  H26  1  0.38583110  0.86805690  -0.00658401  1
  H+  H27  1  0.11106581  0.47278241  0.00576992  1
  H+  H28  1  0.35398031  0.64276623  0.15959616  1
  H+  H29  1  0.88683495  0.61212145  0.64874171  1
  H+  H30  1  0.36301904  0.23138854  0.82864370  1
  H+  H31  1  0.23365042  0.64615664  0.31527207  1
  H+  H32  1  0.64102217  1.03622694  0.83202159  1
  H+  H33  1  0.86327753  0.72539437  0.66976932  1
  H+  H34  1  0.07906272  0.66491881  0.06369858  1
  H+  H35  1  0.26511024  0.13225678  0.16789423  1
  H+  H36  1  0.30843552  0.91336162  0.49389889  1
  H+  H37  1  0.35995203  0.50361945  0.32682287  1
  H+  H38  1  0.08707221  0.41862089  0.74978141  1
  H+  H39  1  0.65254701  0.78388858  0.32589781  1
  H+  H40  1  0.11720297  0.61050218  0.48804516  1
  H+  H41  1  0.22049020  0.61586326  0.16871057  1
  H+  H42  1  0.62818720  0.37264370  0.36139865  1
  H+  H43  1  0.87757912  0.27782500  0.47211779  1
  H+  H44  1  0.39080168  0.79834522  0.31599449  1
  H+  H45  1  0.55953293  0.43374990  0.39959991  1
  H+  H46  1  0.26741012  0.62248044  0.67979054  1
  H+  H47  1  0.61646965  0.89253832  0.82959788  1
  H+  H48  1  0.11232899  0.12906883  1.00140195  1
  H+  H49  1  0.34260977  0.76677529  0.47348977  1
  H+  H50  1  0.86858228  0.47224144  0.15391603  1
  H+  H51  1  0.22744267  0.10746061  0.99705373  1
  H+  H52  1  1.01902484  0.62959632  1.00313419  1
  H+  H53  1  0.12973998  0.09304529  0.83849726  1
  H+  H54  1  0.90801675  0.58470273  0.55783163  1
  H+  H55  1  0.88824432  0.37765807  0.71431515  1
  H+  H56  1  0.23020480  0.35579727  0.50851007  1
  H+  H57  1  0.87610612  0.13378611  0.01524240  1
  H+  H58  1  0.97516759  0.35561611  0.84570532  1
  H+  H59  1  0.11305938  0.13740190  0.67038813  1
  H+  H60  1  0.11828318  0.75850452  0.49344662  1
  H+  H61  1  0.36380434  0.58184265  0.84062349  1
  H+  H62  1  0.61964750  0.89285119  0.15737686  1
  H+  H63  1  0.78419922  0.64438710  1.00092509  1
  H+  H64  1  0.13230370  0.35645822  0.15906304  1
  H+  H65  1  0.61746951  0.49071891  0.00652513  1
  H+  H66  1  0.10968598  0.21329513  0.15177951  1
  H+  H67  1  0.35482482  0.73231166  1.00752839  1
  H+  H68  1  0.84946709  0.96425732  0.82444593  1
  H+  H69  1  0.98051524  0.36078409  0.98903935  1
  H+  H70  1  0.49380376  0.88009813  0.31940044  1
  H+  H71  1  0.86446685  0.09877593  0.17678458  1
  H+  H72  1  0.38626292  0.11679869  0.84299984  1
  H+  H73  1  0.45079521  0.59495822  0.15903453  1
  H+  H74  1  0.13865517  1.01997366  -0.00100096  1
  H+  H75  1  0.16691514  0.79141616  0.32342998  1
  H+  H76  1  0.25217286  0.68099782  0.46116517  1
  H+  H77  1  0.85699833  0.14044279  0.49136153  1
  H+  H78  1  0.29917207  0.15934042  0.50552876  1
  H+  H79  1  0.76362361  0.14508048  0.67855872  1
  H+  H80  1  -0.00679920  0.86404908  0.18313535  1
  H+  H81  1  0.35824889  1.00789876  0.19063171  1
  H+  H82  1  0.10743097  0.88389680  0.02187732  1
  H+  H83  1  0.21988860  0.61356645  -0.00554413  1
  H+  H84  1  0.36849562  0.89346567  0.15733254  1
  H+  H85  1  0.87184319  0.10004885  0.83860532  1
  H+  H86  1  0.11475177  0.75840110  0.99062781  1
  H+  H87  1  0.85800739  0.88251643  0.48880233  1
  H+  H88  1  0.14069827  0.36063758  1.00376525  1
  H+  H89  1  0.32572894  0.67920405  0.10322345  1
  H+  H90  1  0.53768069  0.15915227  0.49921233  1
  H+  H91  1  0.56493779  0.16248771  0.75575243  1
  H+  H92  1  0.84512534  0.16668935  0.10677095  1
  H+  H93  1  0.33949183  0.93076249  0.76379383  1
  H+  H94  1  0.35553936  0.09417145  0.19814998  1
  H+  H95  1  0.39174961  0.14130138  0.68557659  1
  H+  H96  1  0.41422988  0.89104899  0.50514713  1
  H+  H97  1  0.00470428  0.63204543  0.48577629  1
  H+  H98  1  0.18297194  0.84920108  0.46640739  1
  H+  H99  1  0.71901613  0.36414984  0.82066424  1
  H+  H100  1  0.08848638  0.43219429  0.31967203  1
  H+  H101  1  0.08279694  0.16498331  0.40300517  1
  H+  H102  1  0.77971439  0.38080155  0.32768160  1
  H+  H103  1  0.39141850  0.78300607  0.17294300  1
  H+  H104  1  0.26245959  0.28443211  0.39070416  1
  H+  H105  1  0.14217075  0.86478423  0.17714537  1
  H+  H106  1  0.16051438  0.59001664  0.22666513  1
  H+  H107  1  0.63019169  0.37942826  0.68297871  1
  H+  H108  1  0.41135509  0.04282390  0.51856597  1
  H+  H109  1  0.72985779  0.35883028  0.16076979  1
  H+  H110  1  0.06042798  0.93205793  0.51221620  1
  H+  H111  1  0.88965309  0.86111448  0.32462751  1
  H+  H112  1  0.61445132  0.90002869  0.67897824  1
  H+  H113  1  0.13221794  0.33650248  0.31075073  1
  H+  H114  1  0.85802496  0.71794142  0.81967853  1
  H+  H115  1  0.27266677  0.37382389  0.14848313  1
  H+  H116  1  0.73855503  0.87551005  0.32487877  1
  H+  H117  1  0.63410235  0.02844287  0.98765618  1
  H+  H118  1  0.77169072  0.14155299  0.82841031  1
  H+  H119  1  0.81343021  0.16014968  0.40178178  1
  H+  H120  1  0.62722293  1.03744815  0.66364877  1
  H+  H121  1  0.47601058  0.86145097  0.66264741  1
  H+  H122  1  0.54971525  0.60975836  0.49545807  1
  H+  H123  1  0.52731929  0.87626877  0.48634476  1
  H+  H124  1  0.53140786  0.39994571  0.01377920  1
  H+  H125  1  0.85687840  0.96338453  1.00898885  1
  H+  H126  1  0.12998917  0.61622228  0.84020966  1
  H+  H127  1  0.11139256  0.63869323  0.15471654  1
  H+  H128  1  0.36757254  -0.01558571  1.00198472  1
  H+  H129  1  0.38127754  0.10350482  0.99535576  1
  H+  H130  1  0.63005414  0.46421864  0.67044839  1
  H+  H131  1  0.36775493  -0.00851352  0.82474693  1
  H+  H132  1  0.76852660  0.14461116  0.49857376  1
  H+  H133  1  0.11322188  0.65764139  0.33582559  1
  H+  H134  1  0.12829224  0.50979285  0.68528020  1
  H+  H135  1  0.61900393  0.25150425  0.49494525  1
  H+  H136  1  0.27834990  0.89503709  0.00709606  1
  H+  H137  1  0.88418694  0.60904174  0.83411178  1
  H+  H138  1  0.87333453  0.52259402  0.49718592  1
  H+  H139  1  0.37889513  0.61533611  0.66424342  1
  H+  H140  1  0.35748729  0.21469077  0.02200645  1
  H+  H141  1  0.64230006  0.64482271  0.17212252  1
  H+  H142  1  0.87120988  0.89132987  0.66622923  1
  H+  H143  1  0.90574245  0.07973779  0.27449059  1
  H+  H144  1  0.10942148  0.97910712  0.17607538  1
  H+  H145  1  0.85771638  0.47782538  0.81251433  1
  H+  H146  1  0.11110179  0.21118646  0.33747205  1
  H+  H147  1  0.64401563  1.02417087  0.17096979  1
  H+  H148  1  0.62952851  0.76601446  -0.00098222  1
  H+  H149  1  0.10820918  0.47382467  0.15863691  1
  H+  H150  1  0.60961039  0.86533019  0.47873278  1
  H+  H151  1  0.70887747  0.36075907  0.62209152  1
  H+  H152  1  0.77639621  0.89057001  0.48280222  1
  H+  H153  1  0.17133436  0.06044130  0.50687572  1
  H+  H154  1  0.23781965  0.11111856  0.66450614  1
  H+  H155  1  -0.02649148  0.85536017  0.83079859  1
  H+  H156  1  0.64437014  0.36385772  0.16967689  1
  H+  H157  1  0.70963027  0.10705516  0.32744865  1
  H+  H158  1  0.35466876  0.64384040  1.01752056  1
  H+  H159  1  0.11701718  0.39967939  0.84216367  1
  H+  H160  1  0.48076155  0.62800660  0.66427653  1
  H+  H161  1  0.88279352  0.28630225  0.69729650  1
  H+  H162  1  0.73881128  0.61143290  0.17141078  1
  H+  H163  1  0.10930047  0.21619292  0.00634442  1
  H+  H164  1  0.79888567  0.94450763  0.17492919  1
  H+  H165  1  0.52900244  0.38974105  0.16347224  1
  H+  H166  1  0.97271870  0.11881951  0.65587711  1
  H+  H167  1  0.72198524  0.38692812  0.49823586  1
  H+  H168  1  0.13371402  0.09995897  0.33620939  1
  H+  H169  1  0.84927466  0.39124329  0.47646470  1
  H+  H170  1  0.58715723  0.21354317  -0.00923855  1
  H+  H171  1  0.12852313  0.10642118  0.17721518  1
  H+  H172  1  0.93836141  0.82555750  0.50393314  1
  H+  H173  1  0.25146847  0.61555419  0.83207775  1
  H+  H174  1  -0.02270440  0.85674335  0.33065891  1
  H+  H175  1  -0.02808786  0.60712276  0.64809972  1
  H+  H176  1  0.68347087  0.85387272  0.74056158  1
  H+  H177  1  0.66119831  0.08785505  0.92905386  1
  H+  H178  1  0.39508600  0.88887916  0.83612155  1
  H+  H179  1  0.27993285  0.92157751  0.33603935  1
  H+  H180  1  0.11494345  0.72831234  0.82492152  1
  H+  H181  1  0.14364533  0.56097986  0.32825793  1
  H+  H182  1  0.60835305  0.38187884  0.82011458  1
  H+  H183  1  0.67672191  0.80490134  0.17282862  1
  H+  H184  1  0.59293416  0.61946739  0.03632643  1
  H+  H185  1  0.95356003  0.08683834  0.83415304  1
  H+  H186  1  0.07669003  0.14414741  0.10015435  1
  H+  H187  1  0.88440680  0.26022603  0.84401426  1
  H+  H188  1  0.44745015  0.04657920  0.69226596  1
  H+  H189  1  0.39668619  0.49791167  0.52192682  1
  H+  H190  1  0.23066029  0.86473288  0.16553458  1
  H+  H191  1  0.61044083  0.65606974  0.67558497  1
  H+  H192  1  0.65079423  0.14263460  0.51166662  1
  H+  H193  1  0.65868325  0.26414038  0.31817635  1
  H+  H194  1  0.11479912  0.72983836  0.15520580  1
  H+  H195  1  0.59770304  0.12954613  -0.00451261  1
  H+  H196  1  0.35403389  0.46152041  0.16322930  1
  H+  H197  1  0.88922800  0.52328362  0.32204693  1
  H+  H198  1  0.95949923  0.30579582  0.31796893  1
  H+  H199  1  0.63671191  0.12306161  0.82837199  1
  H+  H200  1  0.84513244  0.74387716  0.50835815  1
  H+  H201  1  0.14614498  1.02523679  0.65976938  1
  H+  H202  1  0.21922237  0.33690657  0.32311849  1
  H+  H203  1  0.38716743  0.25164644  0.66667011  1
  H+  H204  1  0.51448682  0.62439398  0.83112085  1
  H+  H205  1  0.38236319  0.14766720  0.50663510  1
  H+  H206  1  0.61295830  0.88488370  0.33240116  1
  H+  H207  1  0.96430064  0.36459388  0.48259884  1
  H+  H208  1  0.63318604  0.51155968  0.83143617  1
  H+  H209  1  0.14257469  0.36891905  0.49684878  1
  H+  H210  1  0.01992369  0.38296453  0.16025119  1
  H+  H211  1  0.58214853  0.49756204  0.34541796  1
  H+  H212  1  0.35599168  0.46106510  0.80684214  1
  H+  H213  1  0.50811725  0.36266938  0.52419837  1
  H+  H214  1  0.84183467  0.61266088  0.49515834  1
  H+  H215  1  0.00915067  0.42648776  0.35019621  1
  H+  H216  1  0.88913317  0.36179238  -0.01092192  1
  H+  H217  1  0.10728391  0.63067220  0.68121543  1
  H+  H218  1  0.64714168  0.75339172  0.49718457  1
  H+  H219  1  0.10707274  0.96373993  0.34386749  1
  H+  H220  1  0.11311699  0.88077598  0.82037931  1
  H+  H221  1  0.01614042  0.38967918  0.69942260  1
  H+  H222  1  0.07442027  0.79954772  0.94920711  1
  H+  H223  1  0.40175240  0.80795003  0.82151548  1
  H+  H224  1  0.76989814  0.62735856  0.81931709  1
  H+  H225  1  0.37117902  0.47181443  0.98937476  1
  H+  H226  1  0.08213301  0.17952493  0.82180174  1
  H+  H227  1  0.39190153  0.35529259  0.98243139  1
  H+  H228  1  0.57702667  0.67320374  0.19725319  1
  H+  H229  1  0.88791434  0.87613361  0.99029081  1
  H+  H230  1  0.38036153  0.66271086  0.49294619  1
  H+  H231  1  0.85167787  0.14237703  0.67179997  1
  H+  H232  1  0.52166050  0.88597499  0.00516408  1
  H+  H233  1  0.37194646  0.37093384  0.50970422  1
  H+  H234  1  0.77076747  0.87268879  1.00624492  1
  H+  H235  1  0.85947581  0.71954963  0.34331450  1
  H+  H236  1  0.48623627  0.37184215  0.82588523  1
  H+  H237  1  0.34603445  0.68751442  0.84647465  1
  H+  H238  1  0.60996247  0.88486975  1.00502496  1
  H+  H239  1  0.14085841  0.29783535  0.85034439  1
  H+  H240  1  0.60142570  0.13546692  0.33893375  1
  H+  H241  1  0.82011087  0.65253242  0.39902590  1
  H+  H242  1  0.97117614  0.11408386  0.33148812  1
  H+  H243  1  0.34084010  0.62131222  0.48317038  1
  H+  H244  1  0.87431989  0.72929354  0.00346705  1
  H+  H245  1  0.35867262  0.45378579  0.66176471  1
  H+  H246  1  0.88876584  0.60772828  0.98908704  1
  H+  H247  1  0.89229915  1.02798744  0.50198899  1
  H+  H248  1  0.59091953  0.18142906  0.39698268  1
  H+  H249  1  0.64448646  0.52322435  0.17146435  1
  H+  H250  1  0.67262896  0.64877038  0.96575848  1
  H+  H251  1  0.37463909  0.34131189  0.65851252  1
  H+  H252  1  0.10221730  0.48008121  0.83851867  1
  H+  H253  1  0.74974107  0.60503160  0.64526237  1
  H+  H254  1  0.22079945  0.85235469  0.65354676  1
  H+  H255  1  0.23463687  0.37095527  0.83711834  1
  H+  H256  1  0.37555154  0.68011551  0.33289996  1
  H+  H257  1  0.89849004  0.76534466  0.17886517  1
  H+  H258  1  0.46987039  0.61582226  1.02435157  1
  H+  H259  1  0.77693016  0.13639956  0.16380372  1
  H+  H260  1  0.88607693  0.03076420  0.65479982  1
  H+  H261  1  0.23565668  0.86965708  0.83417885  1
  H+  H262  1  0.86938288  0.98234356  0.33571307  1
  H+  H263  1  0.35967018  0.37499542  0.80929939  1
  H+  H264  1  0.62385009  0.35964894  -0.01930012  1
  H+  H265  1  0.12133252  0.35465391  0.67458991  1
  H+  H266  1  0.35757654  0.21922683  0.16445282  1
  H+  H267  1  0.34097753  0.34310175  0.34996451  1
  H+  H268  1  1.02128962  0.14070815  0.49897778  1
  H+  H269  1  0.63059329  0.27343970  0.82264556  1
  H+  H270  1  0.48508901  0.87037427  0.16765451  1
  H+  H271  1  0.63764755  0.32552331  0.91695550  1
  H+  H272  1  0.06714777  0.66535439  0.42579887  1
  H+  H273  1  0.08212956  0.85839230  0.49742780  1
  H+  H274  1  0.59998163  0.34414081  0.38643585  1
  H+  H275  1  0.88669050  0.26584868  0.17329367  1
  H+  H276  1  0.12939422  0.60936031  0.99365099  1
  H+  H277  1  0.63028139  0.76738519  0.84132648  1
  H+  H278  1  0.72478197  0.61004950  0.32595941  1
  H+  H279  1  0.41681636  0.27702429  0.51482435  1
  H+  H280  1  0.87296650  0.63619894  0.15955019  1
  H+  H281  1  0.62249757  0.64339409  0.33188104  1
  H+  H282  1  0.47643072  0.10877034  0.99028011  1
  H+  H283  1  0.20660072  0.35102754  0.66086882  1
  H+  H284  1  0.63318898  0.60134696  0.83426585  1
  H+  H285  1  0.38858362  0.35727957  0.17037639  1
  H+  H286  1  0.72272957  0.85429276  0.83965909  1
  H+  H287  1  0.45862327  0.36744573  0.33100927  1
  H+  H288  1  0.33033272  0.65295262  0.73703660  1
  H+  H289  1  0.68427162  0.85522655  0.23339030  1
  H+  H290  1  0.57219174  0.66143748  0.77220975  1
  H+  H291  1  0.22408280  0.10262297  0.33499719  1
  H+  H292  1  0.32277100  0.14945831  0.07693706  1
  H+  H293  1  0.17994471  0.60594449  0.53632189  1
  H+  H294  1  0.43316187  0.30132868  0.95408549  1
  H+  H295  1  0.92298427  0.82309751  0.24588771  1
  H+  H296  1  0.82026809  0.42724349  0.42322334  1
  H+  H297  1  0.65899398  0.82113799  0.93684645  1
  H+  H298  1  0.84691541  0.92268627  0.72763145  1
  H+  H299  1  0.85658192  0.87820148  0.82078441  1
  H+  H300  1  0.34733061  0.16661615  0.73930682  1
  H+  H301  1  0.87666009  0.22297405  1.01307097  1
  H+  H302  1  0.67019255  0.58239448  0.26419139  1
  H+  H303  1  0.41643883  0.32744264  0.23024709  1
  H+  H304  1  0.84404990  0.41041221  0.05814829  1
  H+  H305  1  0.09020368  0.41902758  0.42997054  1
  H+  H306  1  0.36377017  0.03806393  0.28757359  1
  H+  H307  1  0.41966947  0.57918446  0.60213259  1
  H+  H308  1  0.66995146  0.81823234  0.55200710  1
  H+  H309  1  0.33997868  0.92498571  0.09841917  1
  H+  H310  1  0.06725299  0.90421277  0.40196258  1
  H+  H311  1  0.27440163  0.13947424  0.82914689  1
  H+  H312  1  0.43214863  0.85699039  0.25310968  1
  H+  H313  1  0.91704115  0.32300782  0.91426815  1
  H+  H314  1  0.16262113  0.82590366  0.59431298  1
  H+  H315  1  0.65975640  0.46357909  0.49735325  1
  H+  H316  1  0.49489512  0.72809744  0.27626816  1
  H+  H317  1  0.41305461  0.08126718  0.90163323  1
  H+  H318  1  0.16702108  0.07345023  0.89943707  1
  H+  H319  1  0.71749832  0.58218438  0.54612866  1
  H+  H320  1  0.16845565  0.33583993  0.94323288  1
  H+  H321  1  0.42360469  0.60529168  0.22547827  1
  H+  H322  1  0.08332303  0.91463363  0.72591213  1
  H+  H323  1  0.61657608  0.12112250  0.66428755  1
  H+  H324  1  0.86393682  0.34324645  0.58967250  1
  H+  H325  1  0.15846327  0.58578666  0.90209276  1
  H+  H326  1  0.83079627  0.65994814  0.72702060  1
  H+  H327  1  0.58812105  0.67315682  0.09037883  1
  H+  H328  1  0.91633352  0.57927887  0.92787973  1
  H+  H329  1  0.41407221  0.83795096  0.93392115  1
  H+  H330  1  0.84156932  0.92098637  0.39310693  1
  H+  H331  1  0.15997112  0.07862996  0.23941917  1
  H+  H332  1  0.61420616  0.74447219  0.68854871  1
  H+  H333  1  0.42230227  0.84044728  0.56240305  1
  H+  H334  1  0.42795549  0.32056390  0.60322584  1
  H+  H335  1  0.73942764  0.87189796  0.68263393  1
  H+  H336  1  0.91651951  0.08687724  0.56217400  1
  H+  H337  1  0.57587951  0.90261694  0.39492565  1
  H+  H338  1  0.38816866  0.77012583  0.66082669  1
  H+  H339  1  0.58998723  0.42582554  0.10484806  1
  H+  H340  1  0.18364026  0.10104876  0.57336741  1
  H+  H341  1  0.07852501  0.66567510  0.76725434  1
  H+  H342  1  0.38209482  0.52456949  0.88799905  1
  H+  H343  1  0.67436911  0.11053097  0.57224375  1
  H+  H344  1  0.16500401  0.32150377  0.21321700  1
  H+  H345  1  0.34048786  0.16749821  0.40485233  1
  H+  H346  1  0.35178504  0.95832091  0.43225038  1
  H+  H347  1  0.62384270  1.01684207  0.32542684  1
  H+  H348  1  0.59427447  0.66669487  0.39413393  1
  H+  H349  1  0.97398712  0.61098777  0.83621103  1
  H+  H350  1  0.90604868  0.06727200  0.93574575  1
  H+  H351  1  0.91384510  0.82840767  0.88957136  1
  H+  H352  1  0.12945367  0.26514698  0.50230668  1
  H+  H353  1  0.58511099  0.91797637  0.09739896  1
  H+  H354  1  0.91087497  0.32664664  0.23135449  1
  H+  H355  1  0.88403139  0.60911442  0.32287629  1
  H+  H356  1  0.57865080  0.92483756  0.73492877  1
  H+  H357  1  0.32833421  0.71363227  0.38278278  1
  H+  H358  1  0.90271370  0.33809225  0.58680318  1
  H+  H359  1  0.32396857  0.39588538  0.72074710  1
  H+  H360  1  0.59527452  0.20705810  0.16750466  1
  H+  H361  1  0.17424565  0.83536809  0.89276946  1
  H+  H362  1  0.11288347  0.88579758  0.66628705  1
  H+  H363  1  0.90474049  0.82273943  0.59762766  1
  H+  H364  1  0.36180543  0.87823210  0.66676889  1
  H+  H365  1  0.66788535  0.07913184  0.23238678  1
  H+  H366  1  0.07838726  0.41350553  0.06528361  1
  H+  H367  1  0.58474113  0.41515043  0.75897642  1
  H+  H368  1  0.20078871  0.83542224  0.25969586  1
  H+  H369  1  0.69009986  0.32041087  0.25503697  1
  H+  H370  1  0.06528987  0.13525486  0.75809137  1
  H+  H371  1  0.44659354  0.09801310  0.58064013  1
  H+  H372  1  0.91833281  0.58178357  0.22841440  1
  H+  H373  1  0.10478403  0.22295158  0.67742990  1
  H+  H374  1  0.97480038  0.92283361  0.95214886  1
  H+  H375  1  0.33386930  0.38936371  0.44986272  1
  H+  H376  1  0.42643728  0.36851792  0.88167684  1
  H+  H377  1  0.15010344  0.56284383  0.62427707  1
  H+  H378  1  0.83241359  0.16816601  0.77023524  1
  H+  H379  1  0.07954758  0.91835802  0.11631523  1
  H+  H380  1  0.87090482  0.39511225  0.34748478  1
  H+  H381  1  0.43550373  0.61798350  0.96065265  1
  H+  H382  1  0.67664066  0.58374477  0.92135842  1
  H+  H383  1  0.41045708  0.59094725  0.51148197  1
  O2-  O384  1  0.08281695  0.15072648  0.14474731  1
  O2-  O385  1  0.08450310  0.17578700  0.48537135  1
  O2-  O386  1  0.05865123  0.12291225  0.80389327  1
  O2-  O387  1  0.07969356  0.41366905  0.14311286  1
  O2-  O388  1  0.09694262  0.41643848  0.47445946  1
  O2-  O389  1  0.07708961  0.41822121  0.82652281  1
  O2-  O390  1  0.08143736  0.66930471  0.13939434  1
  O2-  O391  1  0.06639048  0.66078037  0.47219412  1
  O2-  O392  1  0.08179887  0.66667730  0.81290386  1
  O2-  O393  1  0.07907715  0.91612615  0.16165627  1
  O2-  O394  1  0.04470366  0.88307960  0.48579029  1
  O2-  O395  1  0.08102783  0.90962827  0.80634268  1
  O2-  O396  1  0.32490797  0.15770166  0.15184765  1
  O2-  O397  1  0.35737528  0.18158880  0.48832574  1
  O2-  O398  1  0.33497949  0.17108524  0.81404169  1
  O2-  O399  1  0.33611432  0.40646353  0.14314436  1
  O2-  O400  1  0.33795485  0.39760809  0.49511866  1
  O2-  O401  1  0.32339007  0.39968392  0.79403904  1
  O2-  O402  1  0.32763278  0.67824184  0.14881550  1
  O2-  O403  1  0.29764900  0.73410865  0.44239279  1
  O2-  O404  1  0.31465737  0.63877892  0.81921296  1
  O2-  O405  1  0.33325882  0.91850579  0.14332049  1
  O2-  O406  1  0.36475184  0.94924528  0.47571995  1
  O2-  O407  1  0.33963933  0.92976243  0.80866133  1
  O2-  O408  1  0.55961574  0.14425225  0.16645396  1
  O2-  O409  1  0.59569491  0.19156372  0.48100900  1
  O2-  O410  1  0.57679725  0.16682653  0.80172301  1
  O2-  O411  1  0.59042567  0.42416792  0.15021392  1
  O2-  O412  1  0.61809982  0.40101080  0.49561958  1
  O2-  O413  1  0.57864155  0.41471410  0.80596484  1
  O2-  O414  1  0.61623607  0.68360449  0.16358406  1
  O2-  O415  1  0.60503573  0.64802822  0.47565679  1
  O2-  O416  1  0.57475810  0.65860600  0.81704284  1
  O2-  O417  1  0.58311588  0.91650727  0.14303546  1
  O2-  O418  1  0.58210480  0.89742779  0.46396743  1
  O2-  O419  1  0.59031092  0.92528905  0.81213125  1
  O2-  O420  1  0.84008566  0.16595669  0.15307875  1
  O2-  O421  1  0.82593624  0.16859856  0.47553806  1
  O2-  O422  1  0.83394717  0.16640181  0.81600633  1
  O2-  O423  1  0.83975814  0.41326563  0.13688534  1
  O2-  O424  1  0.81916416  0.42482778  0.46939592  1
  O2-  O425  1  0.82238784  0.41820090  0.79665325  1
  O2-  O426  1  0.84506769  0.67126487  0.14728218  1
  O2-  O427  1  0.80337842  0.64027766  0.48004912  1
  O2-  O428  1  0.83027529  0.65802099  0.80401122  1
  O2-  O429  1  0.86065934  0.98543495  0.16587531  1
  O2-  O430  1  0.83848153  0.92166692  0.47254886  1
  O2-  O431  1  0.82290085  0.90500143  0.80589834  1
  O2-  O432  1  0.15933511  0.07589379  0.19421611  1
  O2-  O433  1  0.18751750  0.11401950  0.52801433  1
  O2-  O434  1  0.16840032  0.07256221  0.85380631  1
  O2-  O435  1  0.16293060  0.32432622  0.16862790  1
  O2-  O436  1  0.16654610  0.33129115  0.51431172  1
  O2-  O437  1  0.18176106  0.35663885  0.86149734  1
  O2-  O438  1  0.15901381  0.58231037  0.18169762  1
  O2-  O439  1  0.15770340  0.58714343  0.49551811  1
  O2-  O440  1  0.15874078  0.58397653  0.85616366  1
  O2-  O441  1  0.17126219  0.83086967  0.18337980  1
  O2-  O442  1  0.15141812  0.82249562  0.50376162  1
  O2-  O443  1  0.17438345  0.83571541  0.84783576  1
  O2-  O444  1  0.35416574  0.04611733  0.22110323  1
  O2-  O445  1  0.43589271  0.10111813  0.53690170  1
  O2-  O446  1  0.41403476  0.08326284  0.85542252  1
  O2-  O447  1  0.42079341  0.32837918  0.18520370  1
  O2-  O448  1  0.44603366  0.33597258  0.53473648  1
  O2-  O449  1  0.42272459  0.34450844  0.84132576  1
  O2-  O450  1  0.40108809  0.58187283  0.18408992  1
  O2-  O451  1  0.43132340  0.55946163  0.53644007  1
  O2-  O452  1  0.40006131  0.55492437  0.84896451  1
  O2-  O453  1  0.42537329  0.84447809  0.18593055  1
  O2-  O454  1  0.42576314  0.84469504  0.51746210  1
  O2-  O455  1  0.42370705  0.85531588  0.85022666  1
  O2-  O456  1  0.67780246  0.08315526  0.18743926  1
  O2-  O457  1  0.67941998  0.11144395  0.52739809  1
  O2-  O458  1  0.66974999  0.09669852  0.84586649  1
  O2-  O459  1  0.67234898  0.33021176  0.18019964  1
  O2-  O460  1  0.66612505  0.36190276  0.52235154  1
  O2-  O461  1  0.65934738  0.33397771  0.83781630  1
  O2-  O462  1  0.67831759  0.58511413  0.18628494  1
  O2-  O463  1  0.71371937  0.58197487  0.49966335  1
  O2-  O464  1  0.66558216  0.57296783  0.84757593  1
  O2-  O465  1  0.69027262  0.86175932  0.18805135  1
  O2-  O466  1  0.67021408  0.81519210  0.50783298  1
  O2-  O467  1  0.66169307  0.82882249  0.85374842  1
  O2-  O468  1  0.87884142  0.05991434  0.20254632  1
  O2-  O469  1  0.92272021  0.08862790  0.51666847  1
  O2-  O470  1  0.89567667  0.06281434  0.85250064  1
  O2-  O471  1  0.91692419  0.32841321  0.18669112  1
  O2-  O472  1  0.90770549  0.34094437  0.46388850  1
  O2-  O473  1  0.91536141  0.32044645  0.86271125  1
  O2-  O474  1  0.91759509  0.58193864  0.18279652  1
  O2-  O475  1  0.90166830  0.58450169  0.51104125  1
  O2-  O476  1  0.91346938  0.57871316  0.85088633  1
  O2-  O477  1  0.92858153  0.82467796  0.19830141  1
  O2-  O478  1  0.88012797  0.80524450  0.52126982  1
  O2-  O479  1  0.91210010  0.82554210  0.84452277  1
  O2-  O480  1  0.16387214  0.07083086  0.31954375  1
  O2-  O481  1  0.17952734  0.08713656  0.64695784  1
  O2-  O482  1  0.16831860  0.07661071  0.97826039  1
  O2-  O483  1  0.16545811  0.31009223  0.29812108  1
  O2-  O484  1  0.14391952  0.31909491  0.65621886  1
  O2-  O485  1  0.17084282  0.33060998  0.98771349  1
  O2-  O486  1  0.17135691  0.61408838  0.30399003  1
  O2-  O487  1  0.16239422  0.57288571  0.66754614  1
  O2-  O488  1  0.16050453  0.58016783  0.97750314  1
  O2-  O489  1  0.21915436  0.83369167  0.30211521  1
  O2-  O490  1  0.16036477  0.82548529  0.63900002  1
  O2-  O491  1  0.12778106  0.81510727  0.97066386  1
  O2-  O492  1  0.37868135  0.04472744  0.33415638  1
  O2-  O493  1  0.45860749  0.09597696  0.66696127  1
  O2-  O494  1  0.40936138  0.07406812  0.97591168  1
  O2-  O495  1  0.40357532  0.32291161  0.31163697  1
  O2-  O496  1  0.41014420  0.31313009  0.64852972  1
  O2-  O497  1  0.42459454  0.32473976  0.99166237  1
  O2-  O498  1  0.46352870  0.66894171  0.29073631  1
  O2-  O499  1  0.41894498  0.59085865  0.64865692  1
  O2-  O500  1  0.41519466  0.59288825  1.00077101  1
  O2-  O501  1  0.43226186  0.85956794  0.30047324  1
  O2-  O502  1  0.41564031  0.82967837  0.64581739  1
  O2-  O503  1  0.41232793  0.83341274  0.97871681  1
  O2-  O504  1  0.65099937  0.07613406  0.30932978  1
  O2-  O505  1  0.65746211  0.09909276  0.65352757  1
  O2-  O506  1  0.65766998  0.08806188  0.97377262  1
  O2-  O507  1  0.70770365  0.31490732  0.29697774  1
  O2-  O508  1  0.69503587  0.34871614  0.66501220  1
  O2-  O509  1  0.60816211  0.30806796  0.95674502  1
  O2-  O510  1  0.66539766  0.58649752  0.30911425  1
  O2-  O511  1  0.69859821  0.56519781  0.61830894  1
  O2-  O512  1  0.68163385  0.59963806  0.96621231  1
  O2-  O513  1  0.67713582  0.84359281  0.31012122  1
  O2-  O514  1  0.67701877  0.84407756  0.69656189  1
  O2-  O515  1  0.66100294  0.82448155  0.98198677  1
  O2-  O516  1  0.90966857  0.08527571  0.31990260  1
  O2-  O517  1  0.91305685  0.09079282  0.63956654  1
  O2-  O518  1  0.91005037  0.06615812  0.98061094  1
  O2-  O519  1  0.91232338  0.31778919  0.31611788  1
  O2-  O520  1  0.92195539  0.34826110  0.70326777  1
  O2-  O521  1  0.92017529  0.32934263  0.97291440  1
  O2-  O522  1  0.91860747  0.58435186  0.30651068  1
  O2-  O523  1  0.91699526  0.58708126  0.62654942  1
  O2-  O524  1  0.92010439  0.57950798  0.97351724  1
  O2-  O525  1  0.91607865  0.82543877  0.31317577  1
  O2-  O526  1  0.91319591  0.83041973  0.64269518  1
  O2-  O527  1  0.93611758  0.86621501  0.96933428  1
  O2-  O528  1  0.07693201  0.15390896  0.01595560  1
  O2-  O529  1  0.07976792  0.15483353  0.35851896  1
  O2-  O530  1  0.07671259  0.15889867  0.68787204  1
  O2-  O531  1  0.08144638  0.41191804  0.01975688  1
  O2-  O532  1  0.07162790  0.45176102  0.35573202  1
  O2-  O533  1  0.08293484  0.41881174  0.70449075  1
  O2-  O534  1  0.08021913  0.66378379  0.01780691  1
  O2-  O535  1  0.07820629  0.68049035  0.35453166  1
  O2-  O536  1  0.07507918  0.66081609  0.69057807  1
  O2-  O537  1  0.08240177  0.91801742  0.03812512  1
  O2-  O538  1  0.07084151  0.90305550  0.35744618  1
  O2-  O539  1  0.08496896  0.91855547  0.68048519  1
  O2-  O540  1  0.32430917  0.15263324  0.03090749  1
  O2-  O541  1  0.33298309  0.16136158  0.36024173  1
  O2-  O542  1  0.35239574  0.16441295  0.69367010  1
  O2-  O543  1  0.34523350  0.41692360  -0.03287032  1
  O2-  O544  1  0.29495091  0.34407377  0.37732645  1
  O2-  O545  1  0.32646518  0.39383296  0.67468095  1
  O2-  O546  1  0.32175994  0.67347283  0.02612641  1
  O2-  O547  1  0.33831050  0.70548310  0.33777460  1
  O2-  O548  1  0.33054844  0.65242462  0.69169344  1
  O2-  O549  1  0.33844485  0.92202253  0.01907988  1
  O2-  O550  1  0.31095860  0.97060799  0.36686663  1
  O2-  O551  1  0.32914429  0.90841935  0.67859876  1
  O2-  O552  1  0.56135389  0.15485038  0.00828375  1
  O2-  O553  1  0.58585156  0.17844423  0.35229814  1
  O2-  O554  1  0.55083391  0.15666899  0.68312982  1
  O2-  O555  1  0.59210864  0.43494687  0.02721917  1
  O2-  O556  1  0.53315944  0.45359191  0.36988235  1
  O2-  O557  1  0.59521519  0.40902537  0.69089052  1
  O2-  O558  1  0.57522303  0.66140923  0.04574713  1
  O2-  O559  1  0.59603625  0.67670821  0.34976513  1
  O2-  O560  1  0.57481082  0.67902378  0.69039218  1
  O2-  O561  1  0.58170064  0.91637920  0.02043275  1
  O2-  O562  1  0.57570582  0.90733793  0.34804590  1
  O2-  O563  1  0.57561078  0.92196947  0.68939932  1
  O2-  O564  1  0.85941967  0.17111452  0.03738070  1
  O2-  O565  1  0.81290547  0.16104117  0.35578409  1
  O2-  O566  1  0.82348217  0.16908096  0.69440669  1
  O2-  O567  1  0.84607763  0.40822567  0.01289030  1
  O2-  O568  1  0.83783307  0.42470339  0.35067778  1
  O2-  O569  1  0.83821403  0.42906345  0.73116272  1
  O2-  O570  1  0.84240434  0.67091761  0.01968868  1
  O2-  O571  1  0.82703803  0.65733813  0.35410131  1
  O2-  O572  1  0.83324873  0.66352253  0.68147706  1
  O2-  O573  1  0.83166852  0.90105675  0.01909496  1
  O2-  O574  1  0.84148907  0.91993331  0.34775315  1
  O2-  O575  1  0.84365386  0.92413328  0.68235541  1
