# generated using pymatgen
data_H2O
_symmetry_space_group_name_H-M   'P 1'
_cell_length_a   17.99526817
_cell_length_b   17.99256692
_cell_length_c   22.01454037
_cell_angle_alpha   90.02288647
_cell_angle_beta   89.97781566
_cell_angle_gamma   119.97858475
_symmetry_Int_Tables_number   1
_chemical_formula_structural   H2O
_chemical_formula_sum   'H384 O192'
_cell_volume   6174.26601345
_cell_formula_units_Z   192
loop_
 _symmetry_equiv_pos_site_id
 _symmetry_equiv_pos_as_xyz
  1  'x, y, z'
loop_
 _atom_type_symbol
 _atom_type_oxidation_number
  H+  1.0
  O2-  -2.0
loop_
 _atom_site_type_symbol
 _atom_site_label
 _atom_site_symmetry_multiplicity
 _atom_site_fract_x
 _atom_site_fract_y
 _atom_site_fract_z
 _atom_site_occupancy
  H+  H0  1  0.81540536  0.65337268  0.00119574  1
  H+  H1  1  0.02422752  0.38496297  0.83127305  1
  H+  H2  1  -0.00651175  0.36430679  0.65641570  1
  H+  H3  1  0.90562382  0.87615448  0.18669398  1
  H+  H4  1  0.47073193  0.86894463  0.84676894  1
  H+  H5  1  0.15969125  0.12601710  0.50985384  1
  H+  H6  1  0.38551704  0.11416443  0.17416054  1
  H+  H7  1  1.03602084  0.13971227  1.02931005  1
  H+  H8  1  0.15964847  0.62778225  0.66475420  1
  H+  H9  1  0.61488066  0.22590921  0.33789769  1
  H+  H10  1  0.46608475  0.35983528  0.83218210  1
  H+  H11  1  0.84314225  0.13146219  0.49017834  1
  H+  H12  1  0.10927915  0.63845161  0.83186696  1
  H+  H13  1  0.63636601  0.61764218  0.49378719  1
  H+  H14  1  0.47912089  0.86292497  0.32958106  1
  H+  H15  1  0.40520712  0.82437590  0.94060259  1
  H+  H16  1  0.60705188  0.50272453  0.83076223  1
  H+  H17  1  0.74088283  0.86539483  0.49591843  1
  H+  H18  1  0.75573441  0.25942182  0.66703423  1
  H+  H19  1  0.36590600  0.13625545  1.01247250  1
  H+  H20  1  0.87766354  0.00406938  0.77736437  1
  H+  H21  1  -0.01506093  0.66599696  0.67503779  1
  H+  H22  1  0.39076259  0.02548476  0.32849410  1
  H+  H23  1  0.14757076  0.77139046  0.18196375  1
  H+  H24  1  0.38742970  0.27262769  0.17785113  1
  H+  H25  1  0.13903760  0.28127160  0.33588093  1
  H+  H26  1  0.11246385  0.39835368  0.33387872  1
  H+  H27  1  0.37844753  0.01699939  1.00092726  1
  H+  H28  1  0.88434007  0.93494865  0.66014362  1
  H+  H29  1  0.63736976  0.86359101  0.33162950  1
  H+  H30  1  0.61290405  -0.02553724  0.34169879  1
  H+  H31  1  0.89309426  0.27605150  0.84557545  1
  H+  H32  1  0.09867871  0.18424751  0.80925343  1
  H+  H33  1  0.66610137  0.05392855  0.99683806  1
  H+  H34  1  0.27277228  0.88640007  0.16515808  1
  H+  H35  1  0.48674481  0.39159066  0.52189704  1
  H+  H36  1  0.27704343  0.13665463  0.16511054  1
  H+  H37  1  0.34727983  0.87656184  0.00925533  1
  H+  H38  1  0.66743649  0.37995682  0.49328567  1
  H+  H39  1  0.33214837  0.25713727  0.52162290  1
  H+  H40  1  0.22110430  0.61983184  0.30662466  1
  H+  H41  1  0.94026017  0.10844603  0.51848813  1
  H+  H42  1  0.74112167  0.36201127  0.51073980  1
  H+  H43  1  0.88232220  0.29805698  1.00278102  1
  H+  H44  1  0.89451283  0.87148465  0.32800205  1
  H+  H45  1  0.14186826  0.02869624  0.32838278  1
  H+  H46  1  0.42941778  0.83711261  0.60007787  1
  H+  H47  1  0.09765495  0.16974982  0.11634016  1
  H+  H48  1  0.35536909  0.39257589  0.49664691  1
  H+  H49  1  0.58008256  -0.06496551  0.77147012  1
  H+  H50  1  0.62332001  0.73230511  0.48338999  1
  H+  H51  1  0.39266296  0.09901969  0.50013059  1
  H+  H52  1  0.35106264  0.63424101  0.32647871  1
  H+  H53  1  0.61060709  0.89758934  0.82407281  1
  H+  H54  1  0.52460576  0.39120565  0.33500927  1
  H+  H55  1  0.11276030  0.64397367  0.33685575  1
  H+  H56  1  0.06180537  0.13559763  0.56591484  1
  H+  H57  1  0.60431876  0.11229497  0.17614721  1
  H+  H58  1  0.51931260  0.63529856  0.16988213  1
  H+  H59  1  0.51409681  0.38487658  0.01139324  1
  H+  H60  1  0.01207091  0.10131734  0.66062632  1
  H+  H61  1  0.13297805  0.87225598  0.84795744  1
  H+  H62  1  0.63669362  0.54079861  0.65056713  1
  H+  H63  1  0.86380521  0.14899163  0.79831178  1
  H+  H64  1  0.58796921  0.37223255  0.79419888  1
  H+  H65  1  0.58636051  0.16581017  0.10478129  1
  H+  H66  1  0.61614258  0.72805404  0.17588384  1
  H+  H67  1  0.58353145  0.92663727  -0.01198530  1
  H+  H68  1  0.77713216  0.39320660  0.15999093  1
  H+  H69  1  0.49806147  0.85258668  0.01167583  1
  H+  H70  1  0.38917354  0.15574492  0.67833183  1
  H+  H71  1  0.19563242  0.31829692  0.83343289  1
  H+  H72  1  0.03551331  0.90288812  -0.00212852  1
  H+  H73  1  0.88025616  0.08710409  0.65830831  1
  H+  H74  1  0.12388250  0.89516740  -0.00285913  1
  H+  H75  1  0.87094904  0.69716823  0.64201212  1
  H+  H76  1  0.61526737  0.63046282  0.16822041  1
  H+  H77  1  0.12888656  0.53213066  0.30919638  1
  H+  H78  1  0.51070421  0.12775878  0.66889733  1
  H+  H79  1  0.47978667  0.87531055  0.66293590  1
  H+  H80  1  0.38515644  0.61592217  0.17232407  1
  H+  H81  1  0.14256173  0.10813531  0.17960494  1
  H+  H82  1  0.12095900  -0.02516085  0.17392806  1
  H+  H83  1  0.64087553  0.03266771  0.84138959  1
  H+  H84  1  0.87998671  0.07980153  1.03586752  1
  H+  H85  1  0.76349807  0.36079919  0.85999283  1
  H+  H86  1  0.14481198  0.60574863  0.22831155  1
  H+  H87  1  0.35058603  0.97410257  0.83919153  1
  H+  H88  1  1.02762622  0.13072341  0.17085324  1
  H+  H89  1  0.66875682  0.59001771  0.26216296  1
  H+  H90  1  0.40495350  0.62961402  0.50526691  1
  H+  H91  1  0.74294797  0.14665772  0.99679948  1
  H+  H92  1  0.46961954  0.10494227  0.00467787  1
  H+  H93  1  0.14737703  0.11747294  0.00431428  1
  H+  H94  1  0.85095951  0.63043291  0.48105086  1
  H+  H95  1  0.38684838  0.60650357  0.67641859  1
  H+  H96  1  0.41198697  0.08137976  0.90630166  1
  H+  H97  1  0.78418771  0.86796820  0.03552224  1
  H+  H98  1  0.70105471  0.39521551  0.86453956  1
  H+  H99  1  0.25991024  0.64582368  0.15910706  1
  H+  H100  1  0.13716235  0.27563016  0.51311989  1
  H+  H101  1  0.88190982  0.27004758  0.31937584  1
  H+  H102  1  0.60598605  0.60386474  0.00206945  1
  H+  H103  1  0.36968970  0.13962215  0.33178712  1
  H+  H104  1  0.86432370  0.22830837  0.48439242  1
  H+  H105  1  1.01738743  0.62881968  0.49561479  1
  H+  H106  1  0.12967002  0.41079967  0.47865000  1
  H+  H107  1  0.63965461  0.83117390  0.99993224  1
  H+  H108  1  0.00799684  0.87925753  0.18325369  1
  H+  H109  1  0.26883738  0.03682553  0.44911238  1
  H+  H110  1  0.77740383  0.89085299  0.33247973  1
  H+  H111  1  0.53145045  0.42167775  0.51073761  1
  H+  H112  1  0.23145039  0.11910712  0.32835537  1
  H+  H113  1  0.63904334  0.61775412  0.32278105  1
  H+  H114  1  -0.01759331  0.88620821  0.67103707  1
  H+  H115  1  0.88143223  0.47374294  0.49879781  1
  H+  H116  1  0.61355343  0.64295519  0.82426233  1
  H+  H117  1  0.11903162  0.23010702  0.01495514  1
  H+  H118  1  0.90298927  0.86617784  0.00497548  1
  H+  H119  1  0.36064495  0.18416100  0.73986603  1
  H+  H120  1  0.26226737  0.62648936  0.00729943  1
  H+  H121  1  0.89260766  0.62906585  0.32530606  1
  H+  H122  1  0.38210341  0.77935486  0.84354839  1
  H+  H123  1  0.60440486  0.22589928  1.01982777  1
  H+  H124  1  0.40847002  0.55749227  0.83780183  1
  H+  H125  1  0.85458827  0.75735798  0.67950899  1
  H+  H126  1  0.36376523  0.65278144  0.82990144  1
  H+  H127  1  0.72663911  0.12202979  0.50685796  1
  H+  H128  1  0.13629024  0.34034115  0.18120232  1
  H+  H129  1  0.40187171  0.86717580  0.50816884  1
  H+  H130  1  0.86159566  0.38599311  0.16141009  1
  H+  H131  1  -0.00920412  0.36589687  0.49773761  1
  H+  H132  1  0.36836484  0.22722242  1.00960725  1
  H+  H133  1  0.07648216  0.42642031  0.06474307  1
  H+  H134  1  0.35066983  0.91824255  0.43836359  1
  H+  H135  1  0.63113720  0.89646164  0.49137362  1
  H+  H136  1  0.12938241  0.36992095  0.99838912  1
  H+  H137  1  0.64871328  0.86145659  0.17744861  1
  H+  H138  1  0.72316693  0.60983768  0.16662111  1
  H+  H139  1  0.77649128  0.86978797  0.79155426  1
  H+  H140  1  0.15213159  0.74560927  0.68295698  1
  H+  H141  1  0.14242143  0.77817342  0.33150558  1
  H+  H142  1  0.88151061  0.53811037  0.33637340  1
  H+  H143  1  0.27977043  0.38668461  0.16853163  1
  H+  H144  1  0.79069683  0.65022591  0.80907395  1
  H+  H145  1  0.53488110  0.65880720  0.82716440  1
  H+  H146  1  0.28193141  0.89209029  0.34277345  1
  H+  H147  1  0.88615631  0.55582083  0.56514915  1
  H+  H148  1  1.02492023  0.64489683  0.34160912  1
  H+  H149  1  0.91924385  0.58794327  0.90848168  1
  H+  H150  1  0.13933262  0.52148878  0.84048423  1
  H+  H151  1  0.63060911  0.35882411  0.31913726  1
  H+  H152  1  0.38980305  0.36346507  0.17853562  1
  H+  H153  1  0.92848398  0.07757761  0.12722977  1
  H+  H154  1  0.35289757  0.72656710  0.16023004  1
  H+  H155  1  0.62103011  0.65503397  0.66451013  1
  H+  H156  1  0.86303464  0.87300162  0.80991894  1
  H+  H157  1  0.56432108  0.80827220  0.61025017  1
  H+  H158  1  0.38416974  0.36090515  -0.00370357  1
  H+  H159  1  0.91452280  0.78491931  0.99780610  1
  H+  H160  1  0.14743358  0.38479183  0.66523907  1
  H+  H161  1  0.38119275  0.86649840  0.17179042  1
  H+  H162  1  0.40947729  0.54387695  0.50404349  1
  H+  H163  1  0.62266985  0.23450229  0.49155935  1
  H+  H164  1  0.35713821  0.21652193  0.83380623  1
  H+  H165  1  0.27791219  0.39304986  0.34255601  1
  H+  H166  1  0.37302637  0.34965310  0.84101802  1
  H+  H167  1  0.66844472  0.50445893  0.46996067  1
  H+  H168  1  0.61440031  0.14538704  0.83610760  1
  H+  H169  1  0.56597647  0.42013412  0.74255888  1
  H+  H170  1  0.85805151  0.13270055  0.32991993  1
  H+  H171  1  0.59767083  0.39889637  0.65722148  1
  H+  H172  1  0.35909918  0.47280647  0.01085344  1
  H+  H173  1  0.13181944  0.86313003  0.66989777  1
  H+  H174  1  0.32305616  0.12913084  0.41822133  1
  H+  H175  1  0.36830667  0.75774622  -0.00286992  1
  H+  H176  1  0.84291120  0.18016790  0.07528416  1
  H+  H177  1  0.14601882  0.86920843  0.32608975  1
  H+  H178  1  0.89649001  0.74042266  0.54145179  1
  H+  H179  1  0.11544474  0.88139091  0.17393443  1
  H+  H180  1  0.72833655  0.62987107  0.65234316  1
  H+  H181  1  0.62039348  0.22915767  0.16599385  1
  H+  H182  1  0.87830973  0.98486246  0.17443352  1
  H+  H183  1  0.89278858  0.04806888  0.83931175  1
  H+  H184  1  0.88694685  0.42655173  0.01159970  1
  H+  H185  1  0.77802044  0.64754252  0.33118635  1
  H+  H186  1  0.09221405  0.51066186  0.15188784  1
  H+  H187  1  0.72222245  0.53206950  0.96827457  1
  H+  H188  1  0.96799880  0.36132432  0.31872417  1
  H+  H189  1  0.10383699  0.72328188  0.83242042  1
  H+  H190  1  0.35754372  0.88527411  0.66093734  1
  H+  H191  1  0.83244025  0.44257241  0.64361073  1
  H+  H192  1  0.87742299  0.48869761  0.83840828  1
  H+  H193  1  0.52337207  0.38448961  0.17000479  1
  H+  H194  1  0.93251646  0.55537069  1.00755499  1
  H+  H195  1  0.90172193  0.37001638  0.84547978  1
  H+  H196  1  0.01589809  0.39178353  0.00573693  1
  H+  H197  1  0.69509402  0.34997584  0.65627369  1
  H+  H198  1  0.68970079  0.79429322  0.96252729  1
  H+  H199  1  0.37946340  1.01729813  0.65740492  1
  H+  H200  1  0.69122101  0.13088323  0.60671678  1
  H+  H201  1  0.28539303  0.64223674  0.49814223  1
  H+  H202  1  0.60741658  0.68731231  0.02230963  1
  H+  H203  1  0.11939811  -0.02318781  0.67604092  1
  H+  H204  1  0.63679796  0.11677158  0.51045318  1
  H+  H205  1  0.67623487  0.83804430  0.55426318  1
  H+  H206  1  0.30968904  0.42881428  0.83511314  1
  H+  H207  1  0.58659227  0.22379948  0.66572141  1
  H+  H208  1  0.85578421  0.97481317  0.48593316  1
  H+  H209  1  0.03932605  0.62449877  0.17621123  1
  H+  H210  1  0.26970791  0.39022792  0.68288650  1
  H+  H211  1  0.61129555  0.14130650  0.01398928  1
  H+  H212  1  0.85793609  0.62506158  0.16491462  1
  H+  H213  1  -0.02274190  0.11677088  0.31349788  1
  H+  H214  1  0.46718560  0.86184630  0.16859530  1
  H+  H215  1  0.86588592  -0.01920297  0.32683550  1
  H+  H216  1  0.11890407  0.49059784  0.67387136  1
  H+  H217  1  0.88057127  0.18364135  0.00565930  1
  H+  H218  1  0.52742851  0.64116032  0.33683590  1
  H+  H219  1  0.08714514  0.92956000  0.74052224  1
  H+  H220  1  0.89838828  0.77574385  0.84171530  1
  H+  H221  1  1.01113292  0.10278301  0.79142783  1
  H+  H222  1  0.39083627  0.52807295  0.32723582  1
  H+  H223  1  0.47419415  0.11390054  0.17391486  1
  H+  H224  1  0.60399317  0.47289645  0.01478903  1
  H+  H225  1  1.00033434  0.63893288  0.65942080  1
  H+  H226  1  0.89287775  0.21301644  0.66250533  1
  H+  H227  1  0.35288222  0.72365385  0.32671208  1
  H+  H228  1  0.48952022  0.11831079  0.50743730  1
  H+  H229  1  0.72306810  0.11016426  0.32001548  1
  H+  H230  1  0.36130126  0.97671375  0.16130156  1
  H+  H231  1  0.23070177  0.30569966  0.53607799  1
  H+  H232  1  0.76871128  0.64115968  0.48191789  1
  H+  H233  1  0.71968308  0.36676295  0.33037496  1
  H+  H234  1  0.63801708  0.77357943  0.33001310  1
  H+  H235  1  0.23399687  0.10259620  0.49884987  1
  H+  H236  1  0.63608407  0.35820230  0.17433764  1
  H+  H237  1  0.13503871  0.98137555  0.48390039  1
  H+  H238  1  0.62478451  1.02227868  0.17342267  1
  H+  H239  1  0.12178809  0.49407990  0.48996166  1
  H+  H240  1  0.03021312  0.07660804  0.50898320  1
  H+  H241  1  0.21098120  0.85496342  0.99513414  1
  H+  H242  1  0.89929533  0.52505241  0.17931994  1
  H+  H243  1  0.61481784  0.48021975  0.32615052  1
  H+  H244  1  0.35790093  0.13000631  0.83013858  1
  H+  H245  1  0.12089695  0.44437510  0.16266756  1
  H+  H246  1  0.38769605  0.36485257  0.33073308  1
  H+  H247  1  0.10511321  0.37404931  0.82190227  1
  H+  H248  1  0.38732303  0.52734475  0.17299157  1
  H+  H249  1  0.16509015  0.58051429  0.89997365  1
  H+  H250  1  0.78097533  0.14840415  0.82439302  1
  H+  H251  1  0.27006318  0.64215291  0.82840304  1
  H+  H252  1  0.62721297  1.00676556  0.67838309  1
  H+  H253  1  0.89244513  0.78020915  0.32945996  1
  H+  H254  1  0.13377101  0.00185213  0.99842621  1
  H+  H255  1  0.36892830  0.22920186  0.33999498  1
  H+  H256  1  0.63063870  0.52232713  0.17115003  1
  H+  H257  1  0.03338553  0.89404788  0.33854656  1
  H+  H258  1  0.46908231  0.59883139  0.99581606  1
  H+  H259  1  0.19412184  0.38246748  0.94644501  1
  H+  H260  1  0.27118241  0.38476647  0.01732405  1
  H+  H261  1  0.37468649  0.35988397  0.66902782  1
  H+  H262  1  0.52581546  0.13667720  0.33939605  1
  H+  H263  1  0.09890429  0.05263673  0.82424486  1
  H+  H264  1  0.55950990  0.52563075  0.87944826  1
  H+  H265  1  0.38314121  0.97499748  0.49804466  1
  H+  H266  1  0.23652102  0.61151176  0.65592065  1
  H+  H267  1  0.39258943  0.27809138  0.66673953  1
  H+  H268  1  0.89304444  0.33411757  0.65246506  1
  H+  H269  1  0.61738662  0.23244546  0.84953996  1
  H+  H270  1  0.34816187  0.88490035  0.84183968  1
  H+  H271  1  0.88183079  0.38490165  0.49595884  1
  H+  H272  1  0.09024382  0.75944813  0.51690094  1
  H+  H273  1  0.28630935  0.41666159  0.48584001  1
  H+  H274  1  0.37202324  0.72855615  0.67208069  1
  H+  H275  1  0.61490139  0.77909757  0.65169256  1
  H+  H276  1  0.36415200  0.47466062  0.69386365  1
  H+  H277  1  0.01760653  0.89987651  0.83671579  1
  H+  H278  1  0.61722951  0.91356259  0.67278140  1
  H+  H279  1  0.26982747  0.88756098  0.66085372  1
  H+  H280  1  -0.11929554  0.60794784  0.84963267  1
  H+  H281  1  0.89743730  0.00277650  1.03950566  1
  H+  H282  1  0.37108547  0.89302799  0.34025651  1
  H+  H283  1  0.22000808  0.86712068  0.84909819  1
  H+  H284  1  0.12291063  0.60907347  0.98920972  1
  H+  H285  1  0.62769440  0.35627717  1.00923419  1
  H+  H286  1  0.11901099  0.88599803  0.48856679  1
  H+  H287  1  0.37355697  0.73026819  0.49964499  1
  H+  H288  1  0.58858280  0.91934974  0.40295382  1
  H+  H289  1  0.33440858  0.67320788  0.73235396  1
  H+  H290  1  0.31040111  0.39193767  0.76726906  1
  H+  H291  1  0.63443718  0.11254307  0.32782798  1
  H+  H292  1  0.87476893  0.05470549  0.56850255  1
  H+  H293  1  0.35691858  0.31245500  0.58376672  1
  H+  H294  1  0.41630966  0.08282872  0.60129804  1
  H+  H295  1  0.17507039  0.83322760  0.23980017  1
  H+  H296  1  0.14412454  0.25785956  0.18569112  1
  H+  H297  1  0.92938003  0.83213806  0.61540924  1
  H+  H298  1  0.17849962  0.06621418  0.60125427  1
  H+  H299  1  0.67771148  0.33344169  0.95954119  1
  H+  H300  1  0.13788353  0.82565905  0.60607581  1
  H+  H301  1  0.82675282  0.16070897  0.39020727  1
  H+  H302  1  0.70180881  0.98386306  0.11925698  1
  H+  H303  1  0.60979086  0.92550837  0.09123586  1
  H+  H304  1  0.86551485  0.22124785  0.16013419  1
  H+  H305  1  0.12586551  0.52201534  0.99365764  1
  H+  H306  1  0.62559472  0.98340091  0.49831289  1
  H+  H307  1  0.78865590  0.88767821  0.18344511  1
  H+  H308  1  0.87566464  0.53800929  0.66412202  1
  H+  H309  1  0.63583445  0.06880940  0.24291659  1
  H+  H310  1  0.50835474  0.39876788  0.65827514  1
  H+  H311  1  0.91631820  0.34548680  0.93832124  1
  H+  H312  1  0.08206516  0.71782243  -0.00502403  1
  H+  H313  1  0.16893332  0.58558392  0.56638530  1
  H+  H314  1  0.08478417  0.14607444  0.70864409  1
  H+  H315  1  0.59069161  0.17165597  0.43352868  1
  H+  H316  1  0.34449214  0.42692396  0.39796442  1
  H+  H317  1  0.07354204  0.15953212  0.39385159  1
  H+  H318  1  0.92602199  0.65450670  0.55141522  1
  H+  H319  1  0.66945686  0.33001151  0.23238699  1
  H+  H320  1  0.91835357  0.83357308  0.90298784  1
  H+  H321  1  0.64368235  0.14813994  0.66296894  1
  H+  H322  1  0.12095748  0.68405545  0.74171785  1
  H+  H323  1  0.64545952  0.78526537  0.82888830  1
  H+  H324  1  0.65342755  0.33956984  0.59188050  1
  H+  H325  1  0.92755845  0.58580676  0.23825331  1
  H+  H326  1  0.87242244  0.13486823  0.15696468  1
  H+  H327  1  0.42188148  0.83967328  0.26900425  1
  H+  H328  1  0.66824687  0.59198293  0.55435376  1
  H+  H329  1  0.90697132  0.66083531  0.01129773  1
  H+  H330  1  0.91081194  0.46407876  0.77944336  1
  H+  H331  1  0.17246055  0.33578113  0.27606164  1
  H+  H332  1  0.08532175  0.42797081  0.73346690  1
  H+  H333  1  0.67912269  0.09829141  0.89735474  1
  H+  H334  1  0.41761672  0.33541968  0.93600112  1
  H+  H335  1  0.93636431  0.32890448  0.55935101  1
  H+  H336  1  0.47583668  0.60746290  0.67248596  1
  H+  H337  1  0.90912210  0.32753954  0.23053787  1
  H+  H338  1  0.23666564  0.11732551  0.00164109  1
  H+  H339  1  0.79677365  0.14187776  0.67227856  1
  H+  H340  1  0.78934285  0.32544310  0.72196495  1
  H+  H341  1  0.96707467  0.36453544  0.17049216  1
  H+  H342  1  0.93490531  0.84326793  0.24720065  1
  H+  H343  1  0.98448004  0.11331795  0.91739362  1
  H+  H344  1  0.12573166  0.27976601  0.88668879  1
  H+  H345  1  0.49127901  0.86692805  0.50874132  1
  H+  H346  1  0.33663325  0.41771446  0.10799641  1
  H+  H347  1  0.85498865  0.68269507  0.75493093  1
  H+  H348  1  0.58859684  0.67007503  0.39601176  1
  H+  H349  1  0.13854237  0.09555406  0.65255167  1
  H+  H350  1  0.86150758  0.45566664  0.07299887  1
  H+  H351  1  0.17860590  0.34999649  0.60948717  1
  H+  H352  1  0.42438564  0.59781026  0.90428417  1
  H+  H353  1  0.47441790  0.11404737  0.84932582  1
  H+  H354  1  0.82283763  0.42971202  0.40973857  1
  H+  H355  1  0.07855183  0.66432900  0.43662301  1
  H+  H356  1  0.10517168  0.92588587  0.39265778  1
  H+  H357  1  0.42001052  0.58708642  0.26808434  1
  H+  H358  1  0.83368024  0.67425087  0.39275410  1
  H+  H359  1  0.59558490  0.68403739  0.72647044  1
  H+  H360  1  0.52991197  0.64556912  0.48676688  1
  H+  H361  1  0.41884795  0.08238086  0.26732830  1
  H+  H362  1  0.57833021  0.41286181  0.10901329  1
  H+  H363  1  0.33694193  0.16987085  0.10521684  1
  H+  H364  1  0.13858256  0.61672319  0.50752528  1
  H+  H365  1  0.84438813  0.89939005  0.09516872  1
  H+  H366  1  0.32039015  0.90922642  0.06786792  1
  H+  H367  1  0.08324551  0.43567927  0.38765362  1
  H+  H368  1  0.76068420  0.46461089  0.40007202  1
  H+  H369  1  0.02369131  0.78156680  0.55169886  1
  H+  H370  1  0.70293853  0.86653546  0.87168534  1
  H+  H371  1  0.17553074  0.08335432  0.23867086  1
  H+  H372  1  0.83960056  0.92043867  0.42573994  1
  H+  H373  1  0.38229924  0.60705458  0.99685741  1
  H+  H374  1  0.83836473  0.65975354  0.10481457  1
  H+  H375  1  0.11752177  0.13948738  0.33843842  1
  H+  H376  1  0.15528226  0.83354931  0.93286168  1
  H+  H377  1  0.92106837  0.08797465  0.25327548  1
  H+  H378  1  0.97690878  0.06823684  0.91631149  1
  H+  H379  1  0.63100678  0.44014557  0.41302428  1
  H+  H380  1  0.66492005  0.82968644  0.24288849  1
  H+  H381  1  0.32070115  0.65656985  0.06723570  1
  H+  H382  1  0.67990850  0.57025537  0.92599119  1
  H+  H383  1  0.41643731  0.33276475  0.27200986  1
  O2-  O384  1  0.09313491  0.16381813  0.16140398  1
  O2-  O385  1  0.05499537  0.13658425  0.52150702  1
  O2-  O386  1  0.07495268  0.12772691  0.78912591  1
  O2-  O387  1  0.07611485  0.44951668  0.14161476  1
  O2-  O388  1  0.09295205  0.43477691  0.46915379  1
  O2-  O389  1  0.08342723  0.41386354  0.81322568  1
  O2-  O390  1  0.10234414  0.65949073  0.16385518  1
  O2-  O391  1  0.07813536  0.66114290  0.48195706  1
  O2-  O392  1  0.07692769  0.66477593  0.81493963  1
  O2-  O393  1  0.08452780  0.91271264  0.16227982  1
  O2-  O394  1  0.14081361  0.93761054  0.46064259  1
  O2-  O395  1  0.07924381  0.93435104  0.82220257  1
  O2-  O396  1  0.33819028  0.16992154  0.15086221  1
  O2-  O397  1  0.30863856  0.09776625  0.45846479  1
  O2-  O398  1  0.32992393  0.16102137  0.81272470  1
  O2-  O399  1  0.33979107  0.42127645  0.15337890  1
  O2-  O400  1  0.34574593  0.43492905  0.47397217  1
  O2-  O401  1  0.29866129  0.37635056  0.81472346  1
  O2-  O402  1  0.31985165  0.66550235  0.14662715  1
  O2-  O403  1  0.34573410  0.67004890  0.48488639  1
  O2-  O404  1  0.33067839  0.67822152  0.81320598  1
  O2-  O405  1  0.33218741  0.91572177  0.14706635  1
  O2-  O406  1  0.35351416  0.91481394  0.48308408  1
  O2-  O407  1  0.31445605  0.91192849  0.82960714  1
  O2-  O408  1  0.58739258  0.16654647  0.15149360  1
  O2-  O409  1  0.59143636  0.17290781  0.47884293  1
  O2-  O410  1  0.58064944  0.17499999  0.83286220  1
  O2-  O411  1  0.58379564  0.41580537  0.15420354  1
  O2-  O412  1  0.67214902  0.45797853  0.44779616  1
  O2-  O413  1  0.56703033  0.41240703  0.78915827  1
  O2-  O414  1  0.58356138  0.66612639  0.15942882  1
  O2-  O415  1  0.59098236  0.67192713  0.46820624  1
  O2-  O416  1  0.59377365  0.68225455  0.80993168  1
  O2-  O417  1  0.64132583  0.94910778  0.13042938  1
  O2-  O418  1  0.59764861  0.92513463  0.47948695  1
  O2-  O419  1  0.57854598  0.92837800  0.81664619  1
  O2-  O420  1  0.84048359  0.16334801  0.14052085  1
  O2-  O421  1  0.82460844  0.16892430  0.46939613  1
  O2-  O422  1  0.84139703  0.18635382  0.81129314  1
  O2-  O423  1  0.83876415  0.42421759  0.14840049  1
  O2-  O424  1  0.84834069  0.41420388  0.48472904  1
  O2-  O425  1  0.87097828  0.43795687  0.81328715  1
  O2-  O426  1  0.82007721  0.64472035  0.14748232  1
  O2-  O427  1  0.82833271  0.66650217  0.46498595  1
  O2-  O428  1  0.85181534  0.67640300  0.80049555  1
  O2-  O429  1  0.84793425  0.91696747  0.16753051  1
  O2-  O430  1  0.83781425  0.91646089  0.47071976  1
  O2-  O431  1  0.83623858  0.89196312  0.77899860  1
  O2-  O432  1  0.17509589  0.07920917  0.19314091  1
  O2-  O433  1  0.17836862  0.08515105  0.52028775  1
  O2-  O434  1  0.11143892  0.01713351  0.85314341  1
  O2-  O435  1  0.17445407  0.32165587  0.19771848  1
  O2-  O436  1  0.18884388  0.32597064  0.52819130  1
  O2-  O437  1  0.13248583  0.29042629  0.84299400  1
  O2-  O438  1  0.14282440  0.60835733  0.18053280  1
  O2-  O439  1  0.16826423  0.58494660  0.52068130  1
  O2-  O440  1  0.16903554  0.58209254  0.85475914  1
  O2-  O441  1  0.17288376  0.83259713  0.19380850  1
  O2-  O442  1  0.08683054  0.80721297  0.53664948  1
  O2-  O443  1  0.15663439  0.83654669  0.86283712  1
  O2-  O444  1  0.41419795  0.08143731  0.18850037  1
  O2-  O445  1  0.42964566  0.08247010  0.52289106  1
  O2-  O446  1  0.41245235  0.08059097  0.86131847  1
  O2-  O447  1  0.41908821  0.33276471  0.19429593  1
  O2-  O448  1  0.32452229  0.30045304  0.54262211  1
  O2-  O449  1  0.41510561  0.33514959  0.85898445  1
  O2-  O450  1  0.41934800  0.58929883  0.18577062  1
  O2-  O451  1  0.44219198  0.60438253  0.51683864  1
  O2-  O452  1  0.43406295  0.61204739  0.85930249  1
  O2-  O453  1  0.40998172  0.83322069  0.18632236  1
  O2-  O454  1  0.43219025  0.83685796  0.52569206  1
  O2-  O455  1  0.41256481  0.83593746  0.86508526  1
  O2-  O456  1  0.60959005  0.05812962  0.19933900  1
  O2-  O457  1  0.67003606  0.09093866  0.52802964  1
  O2-  O458  1  0.67662720  0.09474110  0.85259147  1
  O2-  O459  1  0.66719788  0.32749937  0.18667416  1
  O2-  O460  1  0.67874885  0.33955014  0.51792475  1
  O2-  O461  1  0.70764959  0.34691378  0.87709249  1
  O2-  O462  1  0.66127754  0.58533006  0.18162903  1
  O2-  O463  1  0.66882287  0.58908875  0.50924049  1
  O2-  O464  1  0.61556494  0.54995934  0.85974021  1
  O2-  O465  1  0.66817958  0.82453612  0.19656145  1
  O2-  O466  1  0.67837907  0.83726387  0.50945077  1
  O2-  O467  1  0.67507353  0.84963255  0.83223039  1
  O2-  O468  1  0.92630828  0.07951408  0.17191984  1
  O2-  O469  1  0.87808571  0.07083603  0.52430531  1
  O2-  O470  1  0.90315346  0.06264373  0.79633806  1
  O2-  O471  1  0.90748565  0.32640760  0.18390377  1
  O2-  O472  1  0.93118751  0.33131001  0.51405262  1
  O2-  O473  1  0.92537515  0.33587607  0.86433323  1
  O2-  O474  1  0.93476152  0.58598408  0.19312749  1
  O2-  O475  1  0.91436467  0.59663310  0.53117543  1
  O2-  O476  1  0.87438343  0.56160840  0.87688752  1
  O2-  O477  1  0.93868792  0.84695252  0.20037450  1
  O2-  O478  1  0.93068251  0.73815931  0.57527555  1
  O2-  O479  1  0.91873997  0.83452674  0.85757955  1
  O2-  O480  1  0.16997215  0.09075471  0.31492882  1
  O2-  O481  1  0.17274986  0.06659172  0.64571957  1
  O2-  O482  1  0.17557758  0.08685629  0.98703357  1
  O2-  O483  1  0.17016482  0.34154914  0.32093841  1
  O2-  O484  1  0.18033886  0.35576282  0.65395134  1
  O2-  O485  1  0.16545305  0.34562284  0.98129720  1
  O2-  O486  1  0.15737024  0.59281708  0.29462622  1
  O2-  O487  1  0.17512548  0.58616598  0.64357214  1
  O2-  O488  1  0.15846586  0.58273287  0.97899511  1
  O2-  O489  1  0.17675525  0.83775837  0.31444837  1
  O2-  O490  1  0.16003575  0.83476241  0.64866377  1
  O2-  O491  1  0.15112147  0.83088277  0.97964198  1
  O2-  O492  1  0.42148834  0.08637091  0.31263569  1
  O2-  O493  1  0.41263292  0.08100478  0.64632287  1
  O2-  O494  1  0.41012915  0.07868674  0.98851844  1
  O2-  O495  1  0.41787990  0.33334226  0.31752357  1
  O2-  O496  1  0.40371317  0.33464019  0.64462967  1
  O2-  O497  1  0.41732609  0.33370413  0.98158785  1
  O2-  O498  1  0.42119261  0.58908539  0.31306269  1
  O2-  O499  1  0.41300106  0.56912731  0.67350115  1
  O2-  O500  1  0.41007158  0.57582987  0.97848270  1
  O2-  O501  1  0.41918521  0.83746112  0.31394301  1
  O2-  O502  1  0.42371851  0.83317291  0.64583535  1
  O2-  O503  1  0.40272963  0.82023289  0.98646616  1
  O2-  O504  1  0.66019258  0.07946122  0.30870790  1
  O2-  O505  1  0.69901180  0.14703853  0.65050282  1
  O2-  O506  1  0.68268398  0.11054504  0.98090681  1
  O2-  O507  1  0.66409634  0.32935178  0.30914839  1
  O2-  O508  1  0.64154030  0.33863014  0.63662257  1
  O2-  O509  1  0.65766621  0.32355389  1.00196230  1
  O2-  O510  1  0.67006195  0.58801729  0.30729221  1
  O2-  O511  1  0.66874776  0.60107828  0.63548477  1
  O2-  O512  1  0.70023875  0.57198925  0.96841987  1
  O2-  O513  1  0.66800633  0.83460503  0.31414083  1
  O2-  O514  1  0.62034799  0.83061866  0.62952294  1
  O2-  O515  1  0.67647703  0.80496835  1.00354194  1
  O2-  O516  1  0.91740746  0.08660575  0.29821240  1
  O2-  O517  1  0.90321953  0.04911424  0.63946335  1
  O2-  O518  1  0.92645312  0.06745621  1.04094101  1
  O2-  O519  1  0.90914308  0.32876414  0.30206315  1
  O2-  O520  1  0.93725847  0.32221141  0.63642318  1
  O2-  O521  1  0.91722027  0.35525409  0.98358441  1
  O2-  O522  1  0.92025051  0.59369766  0.31587875  1
  O2-  O523  1  0.83811835  0.49810545  0.63320880  1
  O2-  O524  1  0.96570843  0.61696004  0.98571040  1
  O2-  O525  1  0.92759539  0.84227373  0.31613238  1
  O2-  O526  1  0.92485696  0.86403710  0.65086880  1
  O2-  O527  1  0.93527126  0.84432389  0.98116244  1
  O2-  O528  1  0.09910801  0.17471684  0.03537559  1
  O2-  O529  1  0.08394512  0.16877839  0.35033648  1
  O2-  O530  1  0.07498814  0.13983362  0.66382678  1
  O2-  O531  1  0.07756032  0.41809890  0.02006024  1
  O2-  O532  1  0.08089594  0.42947663  0.34264140  1
  O2-  O533  1  0.08642264  0.42880016  0.68826552  1
  O2-  O534  1  0.05503820  0.65609729  0.00762568  1
  O2-  O535  1  0.08547977  0.67422681  0.35689669  1
  O2-  O536  1  0.15258703  0.69593650  0.70253324  1
  O2-  O537  1  0.09821470  0.93309613  0.01060891  1
  O2-  O538  1  0.09633881  0.92602134  0.34708097  1
  O2-  O539  1  0.08179055  0.91849242  0.69640071  1
  O2-  O540  1  0.33759644  0.16879129  0.02792790  1
  O2-  O541  1  0.33645990  0.16601248  0.34913918  1
  O2-  O542  1  0.38655391  0.20393769  0.69842482  1
  O2-  O543  1  0.33253162  0.41400254  0.02915350  1
  O2-  O544  1  0.34044235  0.42261426  0.35249301  1
  O2-  O545  1  0.32776035  0.41047607  0.70395211  1
  O2-  O546  1  0.32306441  0.65382330  0.02193276  1
  O2-  O547  1  0.31434188  0.66068164  0.32790402  1
  O2-  O548  1  0.34001999  0.66832121  0.68779010  1
  O2-  O549  1  0.31799525  0.90835986  0.02250557  1
  O2-  O550  1  0.34320012  0.92550566  0.35586468  1
  O2-  O551  1  0.33124508  0.91972318  0.67283468  1
  O2-  O552  1  0.57628137  0.16314829  0.03360817  1
  O2-  O553  1  0.58684088  0.16569606  0.35381518  1
  O2-  O554  1  0.57310974  0.16671245  0.68035997  1
  O2-  O555  1  0.57306411  0.41402528  0.03053736  1
  O2-  O556  1  0.58802220  0.42008343  0.34195616  1
  O2-  O557  1  0.57005615  0.43183947  0.67278902  1
  O2-  O558  1  0.57008154  0.62456436  0.02008031  1
  O2-  O559  1  0.58909549  0.67092980  0.34957086  1
  O2-  O560  1  0.59015114  0.68380911  0.68179657  1
  O2-  O561  1  0.56314552  0.88239135  0.01938894  1
  O2-  O562  1  0.58506502  0.91459965  0.35727524  1
  O2-  O563  1  0.59451924  0.94752035  0.69339334  1
  O2-  O564  1  0.83912538  0.19237416  0.02843798  1
  O2-  O565  1  0.82474678  0.15972641  0.34474670  1
  O2-  O566  1  0.85603029  0.15298065  0.67653370  1
  O2-  O567  1  0.87373545  0.46967316  0.02891787  1
  O2-  O568  1  0.79843641  0.44910302  0.37693773  1
  O2-  O569  1  0.78833587  0.32249767  0.67766659  1
  O2-  O570  1  0.86962335  0.68540265  0.02361285  1
  O2-  O571  1  0.83820066  0.67885669  0.34663466  1
  O2-  O572  1  0.83596216  0.69473231  0.67896826  1
  O2-  O573  1  0.84466523  0.89831804  0.04896382  1
  O2-  O574  1  0.83928053  0.92179710  0.34422603  1
  O2-  O575  1  0.85257154  0.96639214  0.66996068  1
