# generated using pymatgen
data_H2O
_symmetry_space_group_name_H-M   'P 1'
_cell_length_a   17.99879477
_cell_length_b   17.99989930
_cell_length_c   22.01380113
_cell_angle_alpha   90.00414615
_cell_angle_beta   89.98268031
_cell_angle_gamma   119.99871893
_symmetry_Int_Tables_number   1
_chemical_formula_structural   H2O
_chemical_formula_sum   'H384 O192'
_cell_volume   6176.53284864
_cell_formula_units_Z   192
loop_
 _symmetry_equiv_pos_site_id
 _symmetry_equiv_pos_as_xyz
  1  'x, y, z'
loop_
 _atom_type_symbol
 _atom_type_oxidation_number
  H+  1.0
  O2-  -2.0
loop_
 _atom_site_type_symbol
 _atom_site_label
 _atom_site_symmetry_multiplicity
 _atom_site_fract_x
 _atom_site_fract_y
 _atom_site_fract_z
 _atom_site_occupancy
  H+  H0  1  0.11558139  0.22761771  0.49683956  1
  H+  H1  1  0.26932779  0.88100607  1.00521575  1
  H+  H2  1  0.95639826  0.82228556  0.60880631  1
  H+  H3  1  0.13188024  0.27717406  0.32503178  1
  H+  H4  1  0.23247117  0.11274587  0.17131351  1
  H+  H5  1  0.26371696  0.87198252  0.66726796  1
  H+  H6  1  0.61743909  0.71696241  0.86592797  1
  H+  H7  1  0.72012814  0.86238638  0.67326228  1
  H+  H8  1  0.64251850  0.59066452  0.66372431  1
  H+  H9  1  0.06277961  0.20866434  0.69601572  1
  H+  H10  1  0.71271856  0.86264024  0.49188765  1
  H+  H11  1  0.35443931  0.38388483  0.34247682  1
  H+  H12  1  0.88409058  0.11406360  0.34480756  1
  H+  H13  1  0.47938197  0.09554313  0.84888875  1
  H+  H14  1  0.87481373  0.14752515  0.48584742  1
  H+  H15  1  0.57989163  0.91670643  0.09117028  1
  H+  H16  1  0.02748250  0.89409700  0.00489384  1
  H+  H17  1  0.92166874  0.57658815  0.60672759  1
  H+  H18  1  0.89776959  0.52968359  0.33209410  1
  H+  H19  1  0.58288052  0.66306741  0.43294431  1
  H+  H20  1  0.40509328  0.12370052  0.65570788  1
  H+  H21  1  0.60951201  0.88268120  -0.00671284  1
  H+  H22  1  0.11511425  0.98329479  0.15593604  1
  H+  H23  1  0.97695114  0.59440661  0.66731012  1
  H+  H24  1  0.36303883  0.25797786  0.17786925  1
  H+  H25  1  0.89063935  0.78162426  1.00641436  1
  H+  H26  1  0.62990748  0.76939355  0.49816942  1
  H+  H27  1  0.72861419  0.10743784  0.65356349  1
  H+  H28  1  0.77047284  0.63800886  0.33233968  1
  H+  H29  1  0.39072951  0.09841201  0.84121275  1
  H+  H30  1  0.62745200  0.13976526  0.84373513  1
  H+  H31  1  0.35523175  0.12973185  0.33913095  1
  H+  H32  1  0.00271148  0.36791294  0.50725259  1
  H+  H33  1  0.38795469  0.02458752  0.17202776  1
  H+  H34  1  0.71527256  0.85858824  0.31725658  1
  H+  H35  1  0.61541634  0.13861758  0.16661421  1
  H+  H36  1  1.02494792  0.89607879  0.83385205  1
  H+  H37  1  0.82790936  0.37108211  0.69280771  1
  H+  H38  1  0.13803635  0.35851104  0.51587845  1
  H+  H39  1  0.16267122  0.08390215  0.26453351  1
  H+  H40  1  0.11070053  0.73112518  0.15443876  1
  H+  H41  1  0.62857630  1.02032932  0.16914512  1
  H+  H42  1  0.47323528  0.86055861  0.50650962  1
  H+  H43  1  0.35883177  0.37567331  0.49721626  1
  H+  H44  1  0.38694901  0.26535204  0.49894703  1
  H+  H45  1  0.39938934  0.77170210  0.30914199  1
  H+  H46  1  0.64898091  0.38309992  0.00068110  1
  H+  H47  1  0.63521007  0.11099179  0.32384923  1
  H+  H48  1  0.95307963  0.86008630  0.51074818  1
  H+  H49  1  0.92957578  0.38801790  0.64376355  1
  H+  H50  1  0.09609764  0.97606806  0.33360583  1
  H+  H51  1  0.97526936  0.09397224  0.83770418  1
  H+  H52  1  0.09052525  -0.03388839  0.51871839  1
  H+  H53  1  1.02887258  0.65150413  0.82759075  1
  H+  H54  1  0.33147274  0.91981451  0.09714497  1
  H+  H55  1  0.47750171  0.35890479  0.33372236  1
  H+  H56  1  0.11762013  0.12455123  0.82638615  1
  H+  H57  1  0.35250026  0.48521028  0.00237751  1
  H+  H58  1  0.38471506  0.10794187  0.50259178  1
  H+  H59  1  0.47043445  0.61263049  -0.00777959  1
  H+  H60  1  0.77762395  0.40165018  0.00380363  1
  H+  H61  1  0.86673786  0.49118834  0.00439430  1
  H+  H62  1  0.46455664  0.34314021  0.83649394  1
  H+  H63  1  0.09106790  0.92529650  0.06060485  1
  H+  H64  1  0.52456240  0.13721632  0.33528672  1
  H+  H65  1  0.26811339  0.38900702  0.33140576  1
  H+  H66  1  0.61585137  0.22857026  0.16692240  1
  H+  H67  1  0.36382660  0.97176044  0.82780655  1
  H+  H68  1  0.52866699  0.39600643  0.17185450  1
  H+  H69  1  0.26441027  0.12344998  0.49639803  1
  H+  H70  1  0.35708074  0.97079348  0.00471431  1
  H+  H71  1  0.61059713  0.73198135  0.33647364  1
  H+  H72  1  0.89239262  0.75584437  0.65841123  1
  H+  H73  1  0.38514477  0.45778047  0.67268748  1
  H+  H74  1  0.02292925  0.66814090  0.35144837  1
  H+  H75  1  0.27059427  0.64316444  0.14803861  1
  H+  H76  1  0.91191951  0.10491352  0.19220711  1
  H+  H77  1  0.88484968  0.36366605  0.31932131  1
  H+  H78  1  0.19955642  0.10138756  0.67038691  1
  H+  H79  1  -0.11709786  0.27521565  0.15983000  1
  H+  H80  1  0.35868923  0.46349451  0.50407627  1
  H+  H81  1  0.60341746  0.96010979  0.48628308  1
  H+  H82  1  0.85769996  0.88108854  0.67804094  1
  H+  H83  1  0.62611717  0.23058315  0.69167513  1
  H+  H84  1  0.95726724  0.09522822  0.66250533  1
  H+  H85  1  0.62719483  0.27181158  0.84864687  1
  H+  H86  1  0.70632914  0.36809547  0.84283111  1
  H+  H87  1  0.48376432  0.60763269  0.50899776  1
  H+  H88  1  0.84793390  0.89032785  0.48154056  1
  H+  H89  1  0.47570966  0.35329753  0.49506814  1
  H+  H90  1  0.13087592  0.79529166  0.32158523  1
  H+  H91  1  0.08857327  0.17291199  0.43443063  1
  H+  H92  1  0.86700387  0.47838024  0.15882364  1
  H+  H93  1  0.86928398  0.72725208  0.16624835  1
  H+  H94  1  0.22521842  0.86855898  0.16365026  1
  H+  H95  1  0.35126085  0.96054431  0.67078668  1
  H+  H96  1  0.61136701  0.87247266  0.67896285  1
  H+  H97  1  0.22736407  0.59407004  0.52611660  1
  H+  H98  1  0.28813965  0.12012493  0.82324788  1
  H+  H99  1  0.62548838  0.01565713  0.99494223  1
  H+  H100  1  0.39860080  0.61126611  0.52582689  1
  H+  H101  1  0.73021582  0.85826940  -0.01401527  1
  H+  H102  1  0.62614417  0.85974620  0.32093228  1
  H+  H103  1  0.35941233  0.39202206  0.15616235  1
  H+  H104  1  0.22464520  0.87550034  0.31421027  1
  H+  H105  1  0.38864189  0.85696214  0.66396753  1
  H+  H106  1  0.38696567  0.02193537  0.32600636  1
  H+  H107  1  0.22989212  0.37566668  0.17125728  1
  H+  H108  1  0.13086147  0.36621593  0.32251154  1
  H+  H109  1  0.61493620  0.73503116  0.15408528  1
  H+  H110  1  0.87051795  0.62214921  0.67423663  1
  H+  H111  1  0.01695778  0.39644138  0.00159905  1
  H+  H112  1  0.14047371  0.49795605  0.52135294  1
  H+  H113  1  0.72349026  0.01770310  0.52261345  1
  H+  H114  1  0.61006101  0.97623917  0.33603543  1
  H+  H115  1  0.86539396  0.64682359  0.01308530  1
  H+  H116  1  0.34219872  0.47247948  0.82682114  1
  H+  H117  1  0.13421014  0.86549382  0.98880558  1
  H+  H118  1  0.20730785  0.34520655  0.83321318  1
  H+  H119  1  0.59717602  0.37914807  0.82153703  1
  H+  H120  1  0.35760351  0.63811614  -0.00067831  1
  H+  H121  1  0.18037489  0.08902673  0.89330752  1
  H+  H122  1  -0.00168230  0.10738627  0.17893058  1
  H+  H123  1  0.37069036  0.13824409  0.16176216  1
  H+  H124  1  0.35591883  0.31627633  0.67500904  1
  H+  H125  1  0.41962064  0.83581066  0.89452932  1
  H+  H126  1  0.11006598  0.64066204  1.00329782  1
  H+  H127  1  0.84948036  0.72299196  0.48315596  1
  H+  H128  1  0.61531663  0.48692893  0.16931609  1
  H+  H129  1  0.13129979  0.11200451  0.50787284  1
  H+  H130  1  0.64100010  0.62341526  0.16655995  1
  H+  H131  1  0.86086109  0.22757199  0.32984388  1
  H+  H132  1  0.10619121  -0.03015414  0.67704720  1
  H+  H133  1  0.35752977  0.21917655  0.34550639  1
  H+  H134  1  0.70511510  0.71631596  0.72291516  1
  H+  H135  1  0.61347837  0.62916777  0.48971275  1
  H+  H136  1  0.63483987  0.51345722  0.49738358  1
  H+  H137  1  0.12720115  0.38518788  0.67570534  1
  H+  H138  1  0.40973899  0.07021360  0.93717892  1
  H+  H139  1  0.33369592  0.17967782  0.66897018  1
  H+  H140  1  0.85423386  -0.03276852  0.67618079  1
  H+  H141  1  0.64416188  0.27542773  0.32445493  1
  H+  H142  1  0.64100542  0.62946317  0.00327319  1
  H+  H143  1  0.38479887  0.86246111  0.98947691  1
  H+  H144  1  0.11313105  0.10708877  0.67061328  1
  H+  H145  1  0.36102732  0.12942638  0.00727432  1
  H+  H146  1  0.02466721  0.14153538  0.34659399  1
  H+  H147  1  0.21714855  0.10786330  0.32605030  1
  H+  H148  1  0.36113272  0.89106496  0.15643061  1
  H+  H149  1  -0.01308222  0.61425339  0.51748699  1
  H+  H150  1  0.38074589  0.61597897  0.84138553  1
  H+  H151  1  0.12181667  0.14479637  0.99973200  1
  H+  H152  1  0.38891856  0.53337459  0.15780185  1
  H+  H153  1  0.83816163  0.16426477  0.72755544  1
  H+  H154  1  0.11248459  0.64231880  0.15187564  1
  H+  H155  1  0.12714919  0.23467792  0.15436044  1
  H+  H156  1  0.80027960  1.03571817  0.13876885  1
  H+  H157  1  0.97827158  0.62653868  -0.00671381  1
  H+  H158  1  0.13416534  0.76532123  0.65289703  1
  H+  H159  1  0.36460972  -0.02387492  0.49503529  1
  H+  H160  1  0.63586177  0.61743984  0.32516191  1
  H+  H161  1  0.72447008  0.11138340  0.32385104  1
  H+  H162  1  0.97993651  0.11688523  0.50356573  1
  H+  H163  1  0.55254054  0.55100563  0.63457646  1
  H+  H164  1  1.14186673  0.76653561  0.84144313  1
  H+  H165  1  0.02431809  0.87805968  0.68163180  1
  H+  H166  1  0.44034370  0.31212268  0.66671045  1
  H+  H167  1  0.09676440  0.48183433  0.82532552  1
  H+  H168  1  0.61896283  0.38089203  0.48775130  1
  H+  H169  1  0.37661452  0.20528680  0.82989601  1
  H+  H170  1  0.51765613  0.88781519  0.81928397  1
  H+  H171  1  0.14386276  0.02302361  0.83767440  1
  H+  H172  1  0.42433772  0.36753593  0.97591288  1
  H+  H173  1  0.35897975  0.86262514  0.33584343  1
  H+  H174  1  0.88330423  0.86760051  0.85478011  1
  H+  H175  1  0.21999313  0.61604787  0.98990052  1
  H+  H176  1  0.29054965  0.09656410  0.62613575  1
  H+  H177  1  0.87520980  0.38443482  0.48923182  1
  H+  H178  1  0.88316208  0.36419173  0.16095721  1
  H+  H179  1  0.84669562  0.96356866  0.33032437  1
  H+  H180  1  0.64214838  1.01736117  0.65497519  1
  H+  H181  1  0.46224923  0.09838933  1.00120693  1
  H+  H182  1  0.32325087  0.41279720  0.76896389  1
  H+  H183  1  0.54995866  0.13749874  0.69242610  1
  H+  H184  1  0.76203017  0.63793371  0.84055732  1
  H+  H185  1  0.86619939  0.22628198  0.66876270  1
  H+  H186  1  0.36881406  0.72896592  0.51781947  1
  H+  H187  1  0.13124383  0.77342033  -0.00842549  1
  H+  H188  1  0.20432060  0.36850886  0.98786861  1
  H+  H189  1  0.77178381  0.11738170  1.00971210  1
  H+  H190  1  0.17108802  0.28145096  0.65653979  1
  H+  H191  1  0.87061252  0.11831062  0.81995471  1
  H+  H192  1  0.88832130  0.86553164  0.17051441  1
  H+  H193  1  0.78574908  0.14282521  0.48804369  1
  H+  H194  1  0.51747118  0.88878128  0.14923459  1
  H+  H195  1  0.88159680  0.55442736  0.83711896  1
  H+  H196  1  0.27293285  0.81797636  0.37227429  1
  H+  H197  1  0.86679173  0.63601239  0.16932620  1
  H+  H198  1  0.88928278  0.78233311  0.85669187  1
  H+  H199  1  0.87404799  0.20873446  0.82391428  1
  H+  H200  1  0.89814054  0.64882896  0.83850198  1
  H+  H201  1  0.13713775  0.85512974  0.65327354  1
  H+  H202  1  0.85263796  0.88009913  0.00977843  1
  H+  H203  1  0.36167020  0.64570432  0.14857476  1
  H+  H204  1  0.11609331  0.63167338  0.67562054  1
  H+  H205  1  0.90914144  0.33163946  0.25704054  1
  H+  H206  1  0.23852790  0.86227069  0.84192210  1
  H+  H207  1  0.60921876  0.72983714  -0.00189608  1
  H+  H208  1  0.23307026  0.60853812  0.29861608  1
  H+  H209  1  0.61933809  0.38708880  0.33176580  1
  H+  H210  1  0.46598932  0.60243423  0.66760388  1
  H+  H211  1  0.78422578  0.39096023  0.33807362  1
  H+  H212  1  0.37417642  0.22386468  0.00943564  1
  H+  H213  1  0.11328361  0.39055182  0.15618802  1
  H+  H214  1  0.88998021  0.37817368  0.98949620  1
  H+  H215  1  0.88558902  0.61176092  0.32762155  1
  H+  H216  1  0.51867650  0.88007326  0.99641832  1
  H+  H217  1  0.36035986  0.72508046  0.82637887  1
  H+  H218  1  0.81502830  0.90152086  0.78698149  1
  H+  H219  1  0.22169743  0.61608315  0.83854849  1
  H+  H220  1  0.60793999  0.12574964  0.48898828  1
  H+  H221  1  0.46849666  0.61243132  0.84568024  1
  H+  H222  1  0.40961450  0.58315220  0.93253970  1
  H+  H223  1  0.76882355  0.62946922  0.48625421  1
  H+  H224  1  0.87365954  0.10201434  0.65504805  1
  H+  H225  1  0.11428544  0.64153572  0.82942725  1
  H+  H226  1  0.11426026  0.36130130  -0.01364784  1
  H+  H227  1  0.84841517  0.42591869  0.83824633  1
  H+  H228  1  0.72860194  0.85785582  0.88561157  1
  H+  H229  1  0.32602496  0.38602465  -0.00258114  1
  H+  H230  1  0.14514672  0.31499883  0.89041475  1
  H+  H231  1  0.74543320  0.10195485  0.83218944  1
  H+  H232  1  0.86978910  0.97926821  0.17003933  1
  H+  H233  1  0.14339177  0.03039381  0.98825218  1
  H+  H234  1  -0.02365988  0.35407903  0.83738878  1
  H+  H235  1  0.22893131  0.35491732  0.51218202  1
  H+  H236  1  0.16412220  0.84176473  0.22188552  1
  H+  H237  1  0.02299847  0.38802631  0.15381890  1
  H+  H238  1  0.63775008  0.77323586  0.68493065  1
  H+  H239  1  -0.02165350  0.61455983  0.17458314  1
  H+  H240  1  0.13659693  0.52881877  0.15605217  1
  H+  H241  1  0.60515318  0.62373070  0.85863497  1
  H+  H242  1  0.62770227  0.86505650  0.16623974  1
  H+  H243  1  0.11392722  0.89351928  0.15337104  1
  H+  H244  1  0.62333608  0.49521866  0.02050885  1
  H+  H245  1  0.14766107  0.12060148  0.16757350  1
  H+  H246  1  0.73207419  0.36772098  0.16868374  1
  H+  H247  1  0.13846292  0.52974246  0.30412180  1
  H+  H248  1  0.23276910  0.11801650  0.99177242  1
  H+  H249  1  0.11109325  0.22889820  1.00026856  1
  H+  H250  1  0.85772564  0.97021476  0.84000915  1
  H+  H251  1  0.61610471  0.47515866  0.33312704  1
  H+  H252  1  0.87615889  0.32129545  0.83671777  1
  H+  H253  1  0.57159105  0.44297912  0.66007697  1
  H+  H254  1  0.52084344  0.12862852  0.48934248  1
  H+  H255  1  -0.00741478  0.86299720  0.32279861  1
  H+  H256  1  0.38626340  0.86184287  0.83522962  1
  H+  H257  1  0.52511792  0.64009046  0.34069998  1
  H+  H258  1  0.38295818  0.77263091  -0.01346479  1
  H+  H259  1  0.38369273  0.50154895  0.31440784  1
  H+  H260  1  0.61532053  0.34816932  0.65563576  1
  H+  H261  1  0.16728131  0.33932235  0.22948586  1
  H+  H262  1  0.01312595  0.39004530  0.32161558  1
  H+  H263  1  -0.01958532  0.87115910  0.16603542  1
  H+  H264  1  0.50479314  0.36758625  1.00278652  1
  H+  H265  1  0.06264273  0.14741493  0.74889188  1
  H+  H266  1  0.59113015  0.12138853  0.02098551  1
  H+  H267  1  0.28526672  0.38879547  0.67028748  1
  H+  H268  1  0.14212132  0.52112001  0.67168432  1
  H+  H269  1  0.51909931  0.87769897  0.67236748  1
  H+  H270  1  0.06640629  0.73786959  0.40368709  1
  H+  H271  1  0.76125230  0.09146882  0.16302224  1
  H+  H272  1  0.08696117  0.87673324  0.50641248  1
  H+  H273  1  0.41894976  0.83826841  0.22225686  1
  H+  H274  1  0.63930705  0.26744693  0.50421003  1
  H+  H275  1  0.27768978  0.63120722  0.67886415  1
  H+  H276  1  0.11340943  0.14251696  0.33650361  1
  H+  H277  1  0.52684066  0.64524565  0.15126982  1
  H+  H278  1  0.11031973  0.89556034  0.33061563  1
  H+  H279  1  0.38208710  0.62968920  0.30499941  1
  H+  H280  1  1.03676686  0.38016879  0.66962099  1
  H+  H281  1  0.88894619  0.09824240  0.98722180  1
  H+  H282  1  0.90582968  0.06809260  0.39606895  1
  H+  H283  1  0.72918148  0.61978973  0.17250828  1
  H+  H284  1  0.36702654  0.71763508  0.67735824  1
  H+  H285  1  0.78308421  0.37748724  0.48928318  1
  H+  H286  1  0.48131478  0.86585602  0.31832096  1
  H+  H287  1  0.77061706  0.89766972  0.16536312  1
  H+  H288  1  0.49485050  0.19181337  0.63012889  1
  H+  H289  1  0.70984579  0.36242005  0.66126096  1
  H+  H290  1  0.59031004  0.41075367  0.42744153  1
  H+  H291  1  0.59698787  0.16864165  0.78520818  1
  H+  H292  1  0.91405475  0.08239686  0.56022405  1
  H+  H293  1  0.32981507  0.67235987  0.05718189  1
  H+  H294  1  0.09732509  0.17424828  0.09478166  1
  H+  H295  1  0.33113254  0.66242702  0.76830994  1
  H+  H296  1  0.69944308  0.04827520  0.89024674  1
  H+  H297  1  0.47206803  0.55306827  0.27540946  1
  H+  H298  1  0.83731381  0.42584390  0.09551656  1
  H+  H299  1  0.87104342  0.82276816  0.55346702  1
  H+  H300  1  0.64375120  0.36846604  0.17526558  1
  H+  H301  1  0.55829872  0.39379676  0.72267726  1
  H+  H302  1  0.21330224  0.85746653  0.49063011  1
  H+  H303  1  0.59706878  0.86916046  0.48303228  1
  H+  H304  1  0.33876271  0.66292729  0.46453911  1
  H+  H305  1  0.92335968  0.58322312  0.23656060  1
  H+  H306  1  0.34029541  0.91466120  0.43681602  1
  H+  H307  1  0.57330373  0.91133768  0.39375125  1
  H+  H308  1  0.91620967  0.33364748  0.93649948  1
  H+  H309  1  0.16750876  0.57413862  0.61041832  1
  H+  H310  1  0.67698845  0.33559027  0.26559883  1
  H+  H311  1  0.42941001  0.09321906  0.56096578  1
  H+  H312  1  0.66301068  0.07603302  0.23098092  1
  H+  H313  1  0.08216584  0.91576455  0.77405636  1
  H+  H314  1  0.34084447  0.16684519  0.10065328  1
  H+  H315  1  0.59117973  0.46502559  0.81555299  1
  H+  H316  1  0.61432129  0.97415504  0.81718211  1
  H+  H317  1  0.41034405  0.32514805  0.27924646  1
  H+  H318  1  0.10910223  0.67487350  0.46867641  1
  H+  H319  1  0.06698472  0.44139458  0.37844413  1
  H+  H320  1  0.38439795  0.86201803  0.51153548  1
  H+  H321  1  0.62324955  0.67835801  0.76527693  1
  H+  H322  1  0.41394403  0.07873204  0.26568581  1
  H+  H323  1  0.91777859  0.83994033  0.94598771  1
  H+  H324  1  0.65068213  0.56716650  0.55790604  1
  H+  H325  1  0.79885125  0.71653684  0.79463111  1
  H+  H326  1  0.98368068  0.11164709  0.98448285  1
  H+  H327  1  0.58238810  0.67662313  0.06137868  1
  H+  H328  1  0.38407839  0.77883726  0.16256949  1
  H+  H329  1  0.73416859  0.63206302  0.01040160  1
  H+  H330  1  0.58401316  0.16434417  0.39408979  1
  H+  H331  1  0.10665895  0.59662147  0.50206688  1
  H+  H332  1  0.68433642  0.05973684  0.56581590  1
  H+  H333  1  0.66423419  0.34558847  0.93954224  1
  H+  H334  1  0.83804685  0.67126200  0.07664270  1
  H+  H335  1  0.41476361  0.58931336  0.21662635  1
  H+  H336  1  0.81124379  0.90266681  0.38524391  1
  H+  H337  1  0.84345132  0.41327473  0.39762640  1
  H+  H338  1  0.57656757  0.91207369  0.74268235  1
  H+  H339  1  0.14965780  0.81154040  0.54350081  1
  H+  H340  1  0.81540844  0.43524746  0.77307904  1
  H+  H341  1  0.08049623  0.42214756  0.05969907  1
  H+  H342  1  0.90641921  0.28181520  0.50175693  1
  H+  H343  1  0.67773579  0.58357246  0.92592730  1
  H+  H344  1  0.42113524  0.83313763  0.60357342  1
  H+  H345  1  0.47908561  0.11303038  0.17829698  1
  H+  H346  1  0.56014584  0.15293990  0.07730454  1
  H+  H347  1  0.91892290  0.07550846  0.89913310  1
  H+  H348  1  0.82734817  0.12459201  0.06687731  1
  H+  H349  1  0.15449734  0.08514763  0.57088480  1
  H+  H350  1  0.16802397  0.58895593  0.21477422  1
  H+  H351  1  0.83353056  0.17620597  0.39298397  1
  H+  H352  1  0.17210417  0.83096805  0.90662876  1
  H+  H353  1  0.08055355  0.67171445  0.06304582  1
  H+  H354  1  0.91857044  0.60486775  0.93467566  1
  H+  H355  1  0.12985869  0.52683333  0.99129603  1
  H+  H356  1  0.07629340  0.41889207  0.76800810  1
  H+  H357  1  0.93437688  0.33378849  0.58945456  1
  H+  H358  1  0.81284220  0.91038433  0.06300726  1
  H+  H359  1  0.16157194  0.58816001  0.89827027  1
  H+  H360  1  0.43244402  0.30462721  0.90165694  1
  H+  H361  1  0.59322401  0.43062500  0.07785539  1
  H+  H362  1  0.65295013  0.83244944  0.22722648  1
  H+  H363  1  0.10847738  0.21121271  0.82935467  1
  H+  H364  1  0.89077090  0.76030467  0.32023457  1
  H+  H365  1  0.30910138  0.28651700  0.21650607  1
  H+  H366  1  0.66360923  0.58951953  0.26372914  1
  H+  H367  1  0.82822454  0.66562201  0.39319314  1
  H+  H368  1  0.85456063  0.98169397  0.48506453  1
  H+  H369  1  0.31951069  0.14864463  0.43463927  1
  H+  H370  1  0.66467286  0.32545829  0.56364375  1
  H+  H371  1  0.33000859  0.42303249  0.09625078  1
  H+  H372  1  0.83715076  0.65272340  0.73010760  1
  H+  H373  1  0.17604295  0.33254943  0.59565327  1
  H+  H374  1  0.11274741  0.41586486  0.45362795  1
  H+  H375  1  0.90364596  0.62529093  0.51488093  1
  H+  H376  1  0.85627910  0.47096669  0.67736478  1
  H+  H377  1  0.68706152  0.51696551  0.88563311  1
  H+  H378  1  0.64745999  0.09085548  0.94717492  1
  H+  H379  1  0.44623166  0.56655684  0.59929952  1
  H+  H380  1  0.08757011  0.66854653  0.73157214  1
  H+  H381  1  0.32527688  0.91032210  0.76730275  1
  H+  H382  1  0.34360133  0.64488803  0.36300693  1
  H+  H383  1  0.92377449  0.82479991  0.25760391  1
  O2-  O384  1  0.10178814  0.17420941  0.14041142  1
  O2-  O385  1  0.08299593  0.16718996  0.47956805  1
  O2-  O386  1  0.07873607  0.14788644  0.81463007  1
  O2-  O387  1  0.08343128  0.42026525  0.13945268  1
  O2-  O388  1  0.09746697  0.40941456  0.49639157  1
  O2-  O389  1  0.05755223  0.42349069  0.80951455  1
  O2-  O390  1  0.07827485  0.67027642  0.13998873  1
  O2-  O391  1  0.07030606  0.61521427  0.47966769  1
  O2-  O392  1  0.08959506  0.67807092  0.81374333  1
  O2-  O393  1  0.08254989  0.92344425  0.13935050  1
  O2-  O394  1  0.05308715  0.90267045  0.52136393  1
  O2-  O395  1  0.08449251  0.92317553  0.81868289  1
  O2-  O396  1  0.33972041  0.16789077  0.14643658  1
  O2-  O397  1  0.32383857  0.14840787  0.47987263  1
  O2-  O398  1  0.35002890  0.14499253  0.81375272  1
  O2-  O399  1  0.33584650  0.42817483  0.14154354  1
  O2-  O400  1  0.32404410  0.40412819  0.48941525  1
  O2-  O401  1  0.30894776  0.41284831  0.81244363  1
  O2-  O402  1  0.33241675  0.67719483  0.13449901  1
  O2-  O403  1  0.34292401  0.66568815  0.50857169  1
  O2-  O404  1  0.32763006  0.66350827  0.81444913  1
  O2-  O405  1  0.33118027  0.92243348  0.14277149  1
  O2-  O406  1  0.33449208  0.91466517  0.48150950  1
  O2-  O407  1  0.32787769  0.90976770  0.81253162  1
  O2-  O408  1  0.58124557  0.16661645  0.15579307  1
  O2-  O409  1  0.58188220  0.15843894  0.47395581  1
  O2-  O410  1  0.59333032  0.16608556  0.83138725  1
  O2-  O411  1  0.58715396  0.42477899  0.15615301  1
  O2-  O412  1  0.58863491  0.41101216  0.47265810  1
  O2-  O413  1  0.56733163  0.40661638  0.80021886  1
  O2-  O414  1  0.58810223  0.67444470  0.13808463  1
  O2-  O415  1  0.58220053  0.66024238  0.47818311  1
  O2-  O416  1  0.58984493  0.66385157  0.84032123  1
  O2-  O417  1  0.57930094  0.91910308  0.13646534  1
  O2-  O418  1  0.56559363  0.90140141  0.46997558  1
  O2-  O419  1  0.57640976  0.91585116  0.79961911  1
  O2-  O420  1  0.81485138  0.09518150  0.14610179  1
  O2-  O421  1  0.84430685  0.17765540  0.47070183  1
  O2-  O422  1  0.84137676  0.15066180  0.80440926  1
  O2-  O423  1  0.83596682  0.41926574  0.14120237  1
  O2-  O424  1  0.84046236  0.40694734  0.47021050  1
  O2-  O425  1  0.81417921  0.44678557  0.81803014  1
  O2-  O426  1  0.83594251  0.66581865  0.15362839  1
  O2-  O427  1  0.82811284  0.66309234  0.46928658  1
  O2-  O428  1  0.81441268  0.67880280  0.81608153  1
  O2-  O429  1  0.82891532  0.92602754  0.14667486  1
  O2-  O430  1  0.82070227  0.92362611  0.46662347  1
  O2-  O431  1  0.82061959  0.90552676  0.83159584  1
  O2-  O432  1  0.17192220  0.08580218  0.18583628  1
  O2-  O433  1  0.15854037  0.08033671  0.52614767  1
  O2-  O434  1  0.17943578  0.08616701  0.84809412  1
  O2-  O435  1  0.16884397  0.34052878  0.18398733  1
  O2-  O436  1  0.16716814  0.32280096  0.52841958  1
  O2-  O437  1  0.14682406  0.30480551  0.84644951  1
  O2-  O438  1  0.16749661  0.59051023  0.16860306  1
  O2-  O439  1  0.16649826  0.56108304  0.53797345  1
  O2-  O440  1  0.16072322  0.58988040  0.85267389  1
  O2-  O441  1  0.16337807  0.83827182  0.17653743  1
  O2-  O442  1  0.15120109  0.82184033  0.49937068  1
  O2-  O443  1  0.17710785  0.82791146  0.85949359  1
  O2-  O444  1  0.41706787  0.08298435  0.19134087  1
  O2-  O445  1  0.42015636  0.08170019  0.51643503  1
  O2-  O446  1  0.41741019  0.06307353  0.85930702  1
  O2-  O447  1  0.36711135  0.30951845  0.20036380  1
  O2-  O448  1  0.41610051  0.32651212  0.51027606  1
  O2-  O449  1  0.41359451  0.30122901  0.85937622  1
  O2-  O450  1  0.41797570  0.59470360  0.17181175  1
  O2-  O451  1  0.42757128  0.57712985  0.53145456  1
  O2-  O452  1  0.40802943  0.58354818  0.85894098  1
  O2-  O453  1  0.41601163  0.83992814  0.17703600  1
  O2-  O454  1  0.41569751  0.83321519  0.52775336  1
  O2-  O455  1  0.42040960  0.83491828  0.84885763  1
  O2-  O456  1  0.66522943  0.07972546  0.18556167  1
  O2-  O457  1  0.69388429  0.05065910  0.52039942  1
  O2-  O458  1  0.68672159  0.06912727  0.85289716  1
  O2-  O459  1  0.67333221  0.33676033  0.18730965  1
  O2-  O460  1  0.67005827  0.32770320  0.51848991  1
  O2-  O461  1  0.64642401  0.33369494  0.85731139  1
  O2-  O462  1  0.66725530  0.59090649  0.18496103  1
  O2-  O463  1  0.66259416  0.57388066  0.51355378  1
  O2-  O464  1  0.67938912  0.56669510  0.88113147  1
  O2-  O465  1  0.65876994  0.83565491  0.18177050  1
  O2-  O466  1  0.65246069  0.83136793  0.50654335  1
  O2-  O467  1  0.66863295  0.81843694  0.89993963  1
  O2-  O468  1  0.94337612  0.07462215  0.20134243  1
  O2-  O469  1  0.91719223  0.08734468  0.51497989  1
  O2-  O470  1  0.91428188  0.06858818  0.85175254  1
  O2-  O471  1  0.91292555  0.33289765  0.17702169  1
  O2-  O472  1  0.93795865  0.33992567  0.52007078  1
  O2-  O473  1  0.91728471  0.30785725  0.85477314  1
  O2-  O474  1  0.91851267  0.58205983  0.19118934  1
  O2-  O475  1  0.94379893  0.62041070  0.54251498  1
  O2-  O476  1  0.92223268  0.61331146  0.85223878  1
  O2-  O477  1  0.92079249  0.83710030  0.18373151  1
  O2-  O478  1  0.88751701  0.82939610  0.51056262  1
  O2-  O479  1  0.91930586  0.84264216  0.86975574  1
  O2-  O480  1  0.15733994  0.08159424  0.30992580  1
  O2-  O481  1  0.14141670  0.07677642  0.65261558  1
  O2-  O482  1  0.17422180  0.09098538  0.97359032  1
  O2-  O483  1  0.16214744  0.33719048  0.30816186  1
  O2-  O484  1  0.18126204  0.33730897  0.64319311  1
  O2-  O485  1  0.14562167  0.33092945  0.97269395  1
  O2-  O486  1  0.17321234  0.58844127  0.28730057  1
  O2-  O487  1  0.16967961  0.58124748  0.65626365  1
  O2-  O488  1  0.15908465  0.58800438  0.97583739  1
  O2-  O489  1  0.16547340  0.85227120  0.29928903  1
  O2-  O490  1  0.16601593  0.82493390  0.63608926  1
  O2-  O491  1  0.16360739  0.83337288  0.97414160  1
  O2-  O492  1  0.41513483  0.08123425  0.31184807  1
  O2-  O493  1  0.45855010  0.12997319  0.63601183  1
  O2-  O494  1  0.40236581  0.06985008  0.98232672  1
  O2-  O495  1  0.41455177  0.32679491  0.32401956  1
  O2-  O496  1  0.37710691  0.27637809  0.66415693  1
  O2-  O497  1  0.44648370  0.32914451  0.98389063  1
  O2-  O498  1  0.42839755  0.56283843  0.29399461  1
  O2-  O499  1  0.46250228  0.55672945  0.64187487  1
  O2-  O500  1  0.40926450  0.58212977  0.97870918  1
  O2-  O501  1  0.42085064  0.83343857  0.30116939  1
  O2-  O502  1  0.42317770  0.83136263  0.64920202  1
  O2-  O503  1  0.41575800  0.83386661  0.97216462  1
  O2-  O504  1  0.66356444  0.07839699  0.30941719  1
  O2-  O505  1  0.67265693  0.07203532  0.63266574  1
  O2-  O506  1  0.65686004  0.07981008  0.98895619  1
  O2-  O507  1  0.67566861  0.33652667  0.31105890  1
  O2-  O508  1  0.65250522  0.32287279  0.64401304  1
  O2-  O509  1  0.67945614  0.35518794  0.98301156  1
  O2-  O510  1  0.66420640  0.58587838  0.30902206  1
  O2-  O511  1  0.60620073  0.54682528  0.63412888  1
  O2-  O512  1  0.67369520  0.59853116  0.99400178  1
  O2-  O513  1  0.65225841  0.82648137  0.30411525  1
  O2-  O514  1  0.65725293  0.82920091  0.66470961  1
  O2-  O515  1  0.66603210  0.82932669  0.96640265  1
  O2-  O516  1  0.91438909  0.08085355  0.35273028  1
  O2-  O517  1  0.90056302  0.06766899  0.64131924  1
  O2-  O518  1  0.92567303  0.07873393  0.96631572  1
  O2-  O519  1  0.91312053  0.33142062  0.30219443  1
  O2-  O520  1  0.93206395  0.33593179  0.63667832  1
  O2-  O521  1  0.92256095  0.34845129  0.98000264  1
  O2-  O522  1  0.92504846  0.58997495  0.31652488  1
  O2-  O523  1  0.91625594  0.56179447  0.65211613  1
  O2-  O524  1  0.91684812  0.59965355  0.97955859  1
  O2-  O525  1  0.92701784  0.82125992  0.30339732  1
  O2-  O526  1  0.91984718  0.81731069  0.64334816  1
  O2-  O527  1  0.91988031  0.84222427  0.99152312  1
  O2-  O528  1  0.08892544  0.17040168  0.01808015  1
  O2-  O529  1  0.08792398  0.17625251  0.35374083  1
  O2-  O530  1  0.05351678  0.15093513  0.70183376  1
  O2-  O531  1  0.08020700  0.42561987  0.01455812  1
  O2-  O532  1  0.07416954  0.42562005  0.33736996  1
  O2-  O533  1  0.09342337  0.41189300  0.69008589  1
  O2-  O534  1  0.08107495  0.67316062  0.01730965  1
  O2-  O535  1  0.07853563  0.71689789  0.36620427  1
  O2-  O536  1  0.08323619  0.66171190  0.68675464  1
  O2-  O537  1  0.09021403  0.92260326  0.01515753  1
  O2-  O538  1  0.06972046  0.91430508  0.34595639  1
  O2-  O539  1  0.08623474  0.91030312  0.69157383  1
  O2-  O540  1  0.33623398  0.16450720  0.02427446  1
  O2-  O541  1  0.32261672  0.15661051  0.35537263  1
  O2-  O542  1  0.30754626  0.11369317  0.66814262  1
  O2-  O543  1  0.31467794  0.42545215  0.02035821  1
  O2-  O544  1  0.33006913  0.42249638  0.34286566  1
  O2-  O545  1  0.34018612  0.40285413  0.69061507  1
  O2-  O546  1  0.32762640  0.66989804  0.01162088  1
  O2-  O547  1  0.35171480  0.65922546  0.31995181  1
  O2-  O548  1  0.33774469  0.65917730  0.69461947  1
  O2-  O549  1  0.32952456  0.90951198  0.02021745  1
  O2-  O550  1  0.31659223  0.87471269  0.35806560  1
  O2-  O551  1  0.32306171  0.90211990  0.68659622  1
  O2-  O552  1  0.55291732  0.14355216  0.03276333  1
  O2-  O553  1  0.58556093  0.16631229  0.34882986  1
  O2-  O554  1  0.60463919  0.17488763  0.71291571  1
  O2-  O555  1  0.59586764  0.43344493  0.03261159  1
  O2-  O556  1  0.58640238  0.41455015  0.34737086  1
  O2-  O557  1  0.55305708  0.38516873  0.67781939  1
  O2-  O558  1  0.57885885  0.67043519  0.01592187  1
  O2-  O559  1  0.58534206  0.67207618  0.35427928  1
  O2-  O560  1  0.64267088  0.68582918  0.72188194  1
  O2-  O561  1  0.57970988  0.91132360  0.01130590  1
  O2-  O562  1  0.57655564  0.91417318  0.34810811  1
  O2-  O563  1  0.57994588  0.90786047  0.68999405  1
  O2-  O564  1  0.83035813  0.13371541  0.02246235  1
  O2-  O565  1  0.82972824  0.16851907  0.34779222  1
  O2-  O566  1  0.83391953  0.16563476  0.68213610  1
  O2-  O567  1  0.83895899  0.43118114  0.01957343  1
  O2-  O568  1  0.84527986  0.41909659  0.35133641  1
  O2-  O569  1  0.81240633  0.41520927  0.69937061  1
  O2-  O570  1  0.83566928  0.67614164  0.03132501  1
  O2-  O571  1  0.83127976  0.66687189  0.34723456  1
  O2-  O572  1  0.84334534  0.65699643  0.68590107  1
  O2-  O573  1  0.80773359  0.89561256  0.01930904  1
  O2-  O574  1  0.81070602  0.90218633  0.34022254  1
  O2-  O575  1  0.82736113  0.90887586  0.69535208  1
