# generated using pymatgen
data_H2O
_symmetry_space_group_name_H-M   'P 1'
_cell_length_a   17.99200836
_cell_length_b   17.99135792
_cell_length_c   22.00594691
_cell_angle_alpha   89.99637207
_cell_angle_beta   89.99543256
_cell_angle_gamma   119.98804829
_symmetry_Int_Tables_number   1
_chemical_formula_structural   H2O
_chemical_formula_sum   'H384 O192'
_cell_volume   6169.73579499
_cell_formula_units_Z   192
loop_
 _symmetry_equiv_pos_site_id
 _symmetry_equiv_pos_as_xyz
  1  'x, y, z'
loop_
 _atom_type_symbol
 _atom_type_oxidation_number
  H+  1.0
  O2-  -2.0
loop_
 _atom_site_type_symbol
 _atom_site_label
 _atom_site_symmetry_multiplicity
 _atom_site_fract_x
 _atom_site_fract_y
 _atom_site_fract_z
 _atom_site_occupancy
  H+  H0  1  1.02484172  0.64562285  0.16778838  1
  H+  H1  1  0.50759898  0.16534636  0.97346654  1
  H+  H2  1  0.52672303  0.64708758  -0.00152281  1
  H+  H3  1  0.10515413  0.76686344  0.66317225  1
  H+  H4  1  0.34092258  0.93364140  0.01504491  1
  H+  H5  1  0.62885929  0.85413211  0.33518255  1
  H+  H6  1  0.82975072  0.33426137  0.87741781  1
  H+  H7  1  0.50548547  0.38318721  0.50144420  1
  H+  H8  1  0.29313497  0.39124701  0.82510099  1
  H+  H9  1  0.50417083  0.88598739  0.17531968  1
  H+  H10  1  0.38873085  0.17457024  0.99317943  1
  H+  H11  1  0.66253934  0.10855748  0.84074504  1
  H+  H12  1  0.53285862  0.38279579  0.82052061  1
  H+  H13  1  0.51160697  0.88183952  0.99898760  1
  H+  H14  1  0.14395247  0.11857983  0.66179656  1
  H+  H15  1  0.12193230  0.47325349  -0.03417591  1
  H+  H16  1  0.63070938  0.36455888  0.99191458  1
  H+  H17  1  0.74103738  0.60515765  0.84513149  1
  H+  H18  1  0.72904070  0.62113535  0.50581503  1
  H+  H19  1  0.68836058  0.80082298  0.82229224  1
  H+  H20  1  0.60564857  0.98183244  -0.00133116  1
  H+  H21  1  0.64060179  0.36729616  0.66394192  1
  H+  H22  1  0.03480892  0.89589174  0.34375772  1
  H+  H23  1  -0.01918291  0.61926151  0.85110652  1
  H+  H24  1  0.36339575  0.63708808  0.66952489  1
  H+  H25  1  0.59495885  0.89089401  0.18005888  1
  H+  H26  1  0.87454018  0.26092859  0.32447801  1
  H+  H27  1  0.38913250  0.76272126  0.99723263  1
  H+  H28  1  0.39458060  0.86229386  0.49385757  1
  H+  H29  1  0.00754853  0.37913549  0.48482314  1
  H+  H30  1  0.08197172  0.15549749  0.76463390  1
  H+  H31  1  0.88672206  0.88967337  0.34117984  1
  H+  H32  1  0.58624819  0.68052451  0.10938206  1
  H+  H33  1  0.88081079  0.52243700  0.50444393  1
  H+  H34  1  0.31667246  0.91012910  0.74033372  1
  H+  H35  1  0.34803934  0.85034504  0.00875578  1
  H+  H36  1  0.85924561  0.63628880  0.49353077  1
  H+  H37  1  0.34373204  0.85907330  0.31951069  1
  H+  H38  1  0.21528829  0.10830844  0.15315310  1
  H+  H39  1  0.14017050  0.60518755  0.98710243  1
  H+  H40  1  0.37597137  0.11667320  0.82805355  1
  H+  H41  1  0.40378087  1.04646316  0.02854058  1
  H+  H42  1  0.28395619  0.64550468  0.82358270  1
  H+  H43  1  0.22796155  0.02190158  -0.04357634  1
  H+  H44  1  0.15493616  0.97002052  0.16175117  1
  H+  H45  1  0.88919533  0.95428276  0.64311688  1
  H+  H46  1  0.23539796  0.12194057  0.66183427  1
  H+  H47  1  0.36600591  0.39249521  0.49586438  1
  H+  H48  1  0.33572734  0.17860957  0.73524755  1
  H+  H49  1  0.91787472  0.09906599  0.59741755  1
  H+  H50  1  0.72020272  0.10403482  -0.00217304  1
  H+  H51  1  0.48543714  0.61660621  0.17111327  1
  H+  H52  1  0.10819337  0.22154697  0.49043408  1
  H+  H53  1  0.38224490  0.01922001  0.17416655  1
  H+  H54  1  0.40037769  0.36932712  0.83909134  1
  H+  H55  1  0.63938922  0.52738451  0.66100942  1
  H+  H56  1  0.48984023  0.85183942  0.67455785  1
  H+  H57  1  0.77177688  0.38017071  0.49693444  1
  H+  H58  1  0.61495866  0.13147263  0.49994351  1
  H+  H59  1  0.14595704  0.26293106  0.83105227  1
  H+  H60  1  0.25459869  0.10937639  -0.01155805  1
  H+  H61  1  0.22501885  0.36790443  0.49277242  1
  H+  H62  1  0.52567087  0.13221580  0.49891301  1
  H+  H63  1  0.84914134  0.92111616  0.08274762  1
  H+  H64  1  0.55245145  0.39998486  0.33173499  1
  H+  H65  1  0.97294026  0.36684705  0.18818094  1
  H+  H66  1  0.40130689  0.62707288  0.83346213  1
  H+  H67  1  0.12176692  -0.03421550  1.01752020  1
  H+  H68  1  0.59072483  0.41896954  0.73095808  1
  H+  H69  1  0.46627678  0.11911632  0.32416868  1
  H+  H70  1  0.21103488  0.83721550  0.99548662  1
  H+  H71  1  0.38550288  0.86117171  0.84480059  1
  H+  H72  1  0.86188435  0.98020207  -0.00338883  1
  H+  H73  1  0.34488277  0.83976528  0.64772941  1
  H+  H74  1  0.62974271  -0.03658377  0.85421498  1
  H+  H75  1  0.69833564  0.86075379  0.17725745  1
  H+  H76  1  0.96912001  0.86769279  0.84121442  1
  H+  H77  1  0.78416498  0.64798422  0.33607258  1
  H+  H78  1  0.11671615  0.49274028  0.18455803  1
  H+  H79  1  0.81456221  0.86405890  0.14112963  1
  H+  H80  1  0.61998715  0.73142263  0.66401187  1
  H+  H81  1  0.10951215  -0.02997626  0.49638862  1
  H+  H82  1  -0.00699079  0.53456815  0.61332513  1
  H+  H83  1  0.11683122  0.64112438  0.83371233  1
  H+  H84  1  0.48192762  0.62185807  0.65561347  1
  H+  H85  1  0.88129628  0.54242157  0.84329674  1
  H+  H86  1  0.35929023  0.72011890  0.33220252  1
  H+  H87  1  0.42106854  0.38053171  0.32532945  1
  H+  H88  1  0.37231479  0.48008190  0.17413178  1
  H+  H89  1  0.61020663  0.89008633  -0.00688583  1
  H+  H90  1  0.35086288  0.23464976  0.15558231  1
  H+  H91  1  0.63050921  0.14641432  0.68377698  1
  H+  H92  1  0.08513011  0.40893909  0.87475033  1
  H+  H93  1  0.87324732  0.34179697  0.67012294  1
  H+  H94  1  0.10919587  0.88707240  0.83441247  1
  H+  H95  1  0.48023259  0.85235112  0.70796380  1
  H+  H96  1  0.34103428  0.67147873  0.06964641  1
  H+  H97  1  0.63299643  0.61685548  -0.00693543  1
  H+  H98  1  0.77181136  0.41055461  0.82922235  1
  H+  H99  1  0.84545230  0.13298395  0.16038688  1
  H+  H100  1  0.11297207  0.64002772  0.32160488  1
  H+  H101  1  0.13589876  0.11128196  0.84313271  1
  H+  H102  1  0.14359918  0.11584614  0.32884098  1
  H+  H103  1  0.67871325  0.60434401  0.26497721  1
  H+  H104  1  0.10434665  0.70891097  0.99703209  1
  H+  H105  1  0.87958654  0.61274072  0.17447500  1
  H+  H106  1  0.89415421  0.77694196  0.33159766  1
  H+  H107  1  0.64473320  0.53061076  0.51050191  1
  H+  H108  1  0.26381010  0.89857442  0.67924851  1
  H+  H109  1  0.76146125  0.47995170  0.79250659  1
  H+  H110  1  0.36937795  0.64341208  0.15720472  1
  H+  H111  1  0.12652035  0.77217591  0.84363103  1
  H+  H112  1  0.53267824  0.39067953  0.67004345  1
  H+  H113  1  0.01670284  0.37633457  0.68446469  1
  H+  H114  1  0.31532518  0.89320639  0.37594762  1
  H+  H115  1  0.56294583  0.15460899  0.84371588  1
  H+  H116  1  0.24793302  0.10085738  0.48022876  1
  H+  H117  1  0.28216148  0.88688638  0.48316741  1
  H+  H118  1  0.91892244  0.83501369  0.93607077  1
  H+  H119  1  0.12137279  0.72473173  0.50940775  1
  H+  H120  1  0.09727366  0.20003965  0.20004055  1
  H+  H121  1  0.66923394  0.32501851  0.57489749  1
  H+  H122  1  0.63567409  0.11352304  0.99235758  1
  H+  H123  1  0.36077851  0.63244102  0.33598984  1
  H+  H124  1  0.89591640  0.20138790  0.66092529  1
  H+  H125  1  0.72930708  0.11214371  0.50716998  1
  H+  H126  1  0.61087525  0.72621508  0.34223308  1
  H+  H127  1  0.61829245  0.64048124  0.33982877  1
  H+  H128  1  0.39017566  0.77510030  0.83944481  1
  H+  H129  1  0.63801955  0.26275206  0.51490767  1
  H+  H130  1  1.01880453  0.62094728  1.00510312  1
  H+  H131  1  0.14035441  0.00060590  0.68621576  1
  H+  H132  1  0.61321714  0.73491039  -0.00699837  1
  H+  H133  1  0.87855633  0.35955054  0.50589666  1
  H+  H134  1  0.87403952  0.49028940  0.15617505  1
  H+  H135  1  0.87169835  0.39873790  0.15125714  1
  H+  H136  1  0.64124750  0.86465794  0.50046951  1
  H+  H137  1  0.70667772  0.10954789  0.16751091  1
  H+  H138  1  0.37351725  0.73880577  0.16186747  1
  H+  H139  1  0.86101365  0.12939116  0.33542652  1
  H+  H140  1  0.02718757  0.64224041  0.50907453  1
  H+  H141  1  0.61412088  0.64023495  0.66950316  1
  H+  H142  1  0.55316151  0.67363684  0.82362905  1
  H+  H143  1  0.09533908  0.45990903  0.24918322  1
  H+  H144  1  0.36826614  0.64053443  0.00704343  1
  H+  H145  1  0.02127220  0.11807106  0.82364740  1
  H+  H146  1  0.65512669  0.53916568  0.32183351  1
  H+  H147  1  0.03401060  0.37938737  -0.03031389  1
  H+  H148  1  0.10014139  0.90626100  0.07580549  1
  H+  H149  1  -0.11732783  0.06879075  0.66493756  1
  H+  H150  1  0.85972954  0.38896481  0.34269003  1
  H+  H151  1  0.60263787  0.14300889  0.15490945  1
  H+  H152  1  0.12185423  0.23320381  0.67842832  1
  H+  H153  1  0.22142954  0.86197995  0.30271169  1
  H+  H154  1  0.15448950  0.35626123  0.83573714  1
  H+  H155  1  0.26927787  0.38952698  -0.00916666  1
  H+  H156  1  0.76860466  0.65003023  0.16006402  1
  H+  H157  1  0.10021003  0.74065747  0.16542328  1
  H+  H158  1  0.64230527  0.38506927  0.49846764  1
  H+  H159  1  0.13071676  0.85069795  0.23038789  1
  H+  H160  1  0.39383546  0.52235317  0.32410413  1
  H+  H161  1  0.15343762  0.53512386  0.83796513  1
  H+  H162  1  0.26563116  0.05325285  0.42733530  1
  H+  H163  1  0.88494768  0.27721265  0.17093633  1
  H+  H164  1  0.41937927  0.37300932  0.18299172  1
  H+  H165  1  0.05444995  0.40578602  0.39419326  1
  H+  H166  1  0.97529231  0.86393596  0.99824064  1
  H+  H167  1  0.37326111  0.09782070  0.48800985  1
  H+  H168  1  0.77529472  0.88526626  0.48640169  1
  H+  H169  1  0.11785228  0.50724238  0.52543639  1
  H+  H170  1  0.11365027  0.23134103  0.34578403  1
  H+  H171  1  0.46462013  0.85091020  0.31995414  1
  H+  H172  1  0.89006532  -0.01148417  0.34102931  1
  H+  H173  1  0.27298081  0.14555616  0.82786662  1
  H+  H174  1  0.70434822  0.20160082  0.29022613  1
  H+  H175  1  0.13627959  0.37259318  0.19687761  1
  H+  H176  1  0.67257430  0.87750602  0.65721402  1
  H+  H177  1  0.87269034  0.63206596  -0.00112407  1
  H+  H178  1  0.86003357  0.22299790  0.48994287  1
  H+  H179  1  0.68200181  0.05425932  0.67243568  1
  H+  H180  1  0.91737990  0.84789031  0.65317159  1
  H+  H181  1  -0.01752667  0.61898988  0.32147002  1
  H+  H182  1  0.77609424  0.14057432  0.33054173  1
  H+  H183  1  -0.00994576  0.11776564  0.32888501  1
  H+  H184  1  0.61316919  0.63924665  0.49244272  1
  H+  H185  1  0.97700533  0.12022899  0.99614017  1
  H+  H186  1  0.12699868  0.84777572  0.99932752  1
  H+  H187  1  0.87265861  0.64514243  0.33821543  1
  H+  H188  1  0.12476160  0.64755868  0.68853945  1
  H+  H189  1  0.37392513  0.84439480  0.18052949  1
  H+  H190  1  0.13182078  0.10866068  0.50931697  1
  H+  H191  1  0.90712282  0.32538889  0.56402324  1
  H+  H192  1  0.88337558  0.10991247  0.50346044  1
  H+  H193  1  0.65546129  0.82414776  0.27596333  1
  H+  H194  1  0.09092121  0.37246194  0.33587716  1
  H+  H195  1  0.12482581  0.07403051  0.18532159  1
  H+  H196  1  0.36569442  0.23480927  0.83006215  1
  H+  H197  1  0.69060974  0.46761864  0.45916615  1
  H+  H198  1  0.22178301  0.60114789  0.67985518  1
  H+  H199  1  0.09712604  0.38152938  0.47293671  1
  H+  H200  1  0.12031056  0.89597338  0.68459605  1
  H+  H201  1  0.14887903  0.63450522  0.16375678  1
  H+  H202  1  0.28912020  0.39393409  0.68560362  1
  H+  H203  1  0.36410440  0.03850942  1.01119966  1
  H+  H204  1  0.23337785  0.12017176  0.32031016  1
  H+  H205  1  0.77399550  0.63867726  0.67811380  1
  H+  H206  1  0.85335726  0.41663047  0.00084231  1
  H+  H207  1  0.63988754  0.77464747  0.49955383  1
  H+  H208  1  0.46712485  0.11010171  0.16824080  1
  H+  H209  1  0.86300245  0.00415626  0.16762431  1
  H+  H210  1  0.86838002  0.53299332  0.99844475  1
  H+  H211  1  0.39322992  0.38208473  0.99166638  1
  H+  H212  1  0.64195954  0.27818149  0.67047437  1
  H+  H213  1  0.66715163  0.31634978  0.25272598  1
  H+  H214  1  0.37183810  0.64393391  0.48809438  1
  H+  H215  1  0.22176164  0.36487085  0.19065886  1
  H+  H216  1  1.02228866  0.12108371  0.16914564  1
  H+  H217  1  0.79957454  0.15430038  0.82112829  1
  H+  H218  1  0.36969528  0.14397539  0.68184544  1
  H+  H219  1  0.75226767  0.15137171  0.65770704  1
  H+  H220  1  0.37072677  -0.02852088  0.46923807  1
  H+  H221  1  0.86652254  0.72879053  0.16231655  1
  H+  H222  1  0.23722844  0.62906235  0.15903260  1
  H+  H223  1  0.63751584  0.26481530  0.31550415  1
  H+  H224  1  0.29930720  0.33717356  0.35618174  1
  H+  H225  1  1.00284592  0.83970278  0.19053036  1
  H+  H226  1  0.62540929  0.46565847  0.82431628  1
  H+  H227  1  0.40801310  0.54173343  0.83649864  1
  H+  H228  1  0.59794556  0.92211495  0.72017023  1
  H+  H229  1  0.72042183  0.61614946  0.00006348  1
  H+  H230  1  0.36351811  0.24535234  0.99943711  1
  H+  H231  1  0.64078681  0.55271276  0.17385236  1
  H+  H232  1  0.37329858  0.15172596  0.32376176  1
  H+  H233  1  0.14596437  0.86710984  0.50296072  1
  H+  H234  1  0.60310110  0.13790299  0.34173648  1
  H+  H235  1  0.87697235  -0.00753494  0.83591919  1
  H+  H236  1  0.67152781  0.11398380  0.25527835  1
  H+  H237  1  0.60473673  0.97160985  0.34154466  1
  H+  H238  1  0.87044373  0.71524655  0.67130108  1
  H+  H239  1  0.14971709  0.56298589  0.62781305  1
  H+  H240  1  0.94084560  0.87627512  0.17088937  1
  H+  H241  1  0.77441558  0.38394783  0.67365962  1
  H+  H242  1  0.13526788  0.36914707  0.68690432  1
  H+  H243  1  0.91692975  0.34795432  1.01416628  1
  H+  H244  1  0.10965284  0.72680194  0.31841239  1
  H+  H245  1  0.21187850  0.37380584  0.33706546  1
  H+  H246  1  0.42474241  0.29285153  0.49435507  1
  H+  H247  1  0.88449009  0.77114754  0.49735093  1
  H+  H248  1  0.14438798  0.35912226  -0.03274954  1
  H+  H249  1  0.40494507  0.28289558  0.32636561  1
  H+  H250  1  0.68896636  0.27556915  0.85473954  1
  H+  H251  1  0.33915071  0.71269431  0.66348210  1
  H+  H252  1  0.34756069  -0.03087747  0.82856216  1
  H+  H253  1  0.88449402  1.02105193  0.50646357  1
  H+  H254  1  0.71801436  0.87772070  0.97092611  1
  H+  H255  1  0.61579084  0.01947576  0.17938742  1
  H+  H256  1  0.62760138  0.23511718  0.00581004  1
  H+  H257  1  0.03212001  0.14788394  0.66890422  1
  H+  H258  1  0.11493688  -0.01871527  0.83528362  1
  H+  H259  1  0.39049577  0.53467319  -0.01932498  1
  H+  H260  1  0.85825445  0.21235741  1.00617800  1
  H+  H261  1  0.38929157  1.02275571  0.67984072  1
  H+  H262  1  0.22313191  0.60957970  0.31686290  1
  H+  H263  1  0.67955832  0.56743592  0.90325573  1
  H+  H264  1  0.25669255  0.90618851  0.15316388  1
  H+  H265  1  0.63269951  0.64141541  0.17135869  1
  H+  H266  1  0.85688935  0.88862087  -0.00572839  1
  H+  H267  1  0.13943390  0.87309703  0.31885790  1
  H+  H268  1  0.87584266  0.65682739  0.82669706  1
  H+  H269  1  0.39391576  0.27687544  0.65672033  1
  H+  H270  1  0.61820710  0.76136494  0.17818414  1
  H+  H271  1  0.23329654  0.61207509  -0.00690818  1
  H+  H272  1  0.72371447  0.37899317  0.00321991  1
  H+  H273  1  0.61285001  0.47927049  1.01589317  1
  H+  H274  1  0.88403149  0.77549884  0.84040883  1
  H+  H275  1  0.44159115  0.09540727  0.79779293  1
  H+  H276  1  0.64830727  0.86245793  0.91840759  1
  H+  H277  1  0.98854643  0.36350520  0.33025922  1
  H+  H278  1  -0.02399471  0.85907146  0.49799687  1
  H+  H279  1  0.61568230  0.97538859  0.49788145  1
  H+  H280  1  0.53794094  0.13852922  0.69319184  1
  H+  H281  1  0.83909564  0.86444428  0.82434995  1
  H+  H282  1  0.52581198  0.88585003  0.49582641  1
  H+  H283  1  0.12413363  0.98641692  0.34315338  1
  H+  H284  1  0.11292330  0.23243101  1.00723635  1
  H+  H285  1  0.25963487  0.87924818  0.83301714  1
  H+  H286  1  0.39638487  0.53060788  0.65898405  1
  H+  H287  1  0.85376281  0.12294703  0.00785206  1
  H+  H288  1  0.83037233  0.16166797  0.43104898  1
  H+  H289  1  0.17769095  0.59938469  0.25326096  1
  H+  H290  1  0.94953227  0.00590702  0.87938757  1
  H+  H291  1  0.32252413  0.19005681  0.09114366  1
  H+  H292  1  0.18046342  0.31767244  0.92242230  1
  H+  H293  1  0.85237417  0.20982312  0.76379323  1
  H+  H294  1  0.42663781  0.60127423  0.92552901  1
  H+  H295  1  0.87766960  0.28729633  0.85067691  1
  H+  H296  1  0.84017994  0.43955793  0.07289109  1
  H+  H297  1  0.01897555  0.13209048  0.49556585  1
  H+  H298  1  0.37609373  0.39219670  0.67158764  1
  H+  H299  1  0.42876961  0.33643131  0.59706056  1
  H+  H300  1  0.53713471  0.88069532  0.85621613  1
  H+  H301  1  0.10197565  0.46748665  0.69500979  1
  H+  H302  1  0.93020157  0.08071277  0.26957632  1
  H+  H303  1  0.68881375  0.08328556  0.90127303  1
  H+  H304  1  0.15481912  0.83008258  0.90358700  1
  H+  H305  1  0.58267337  0.66547340  0.43123711  1
  H+  H306  1  0.92822386  0.83791907  0.27215761  1
  H+  H307  1  0.59602296  0.23023080  0.14950145  1
  H+  H308  1  0.32865927  0.40972434  0.40593676  1
  H+  H309  1  0.67690420  0.08841098  0.56964913  1
  H+  H310  1  0.57950665  0.91834042  0.40324434  1
  H+  H311  1  0.08487944  0.16546976  0.40222166  1
  H+  H312  1  0.41320806  0.82298378  0.93565303  1
  H+  H313  1  0.88981614  0.53100327  0.32809362  1
  H+  H314  1  0.82445351  0.16551315  0.09939046  1
  H+  H315  1  0.44346277  0.33423504  0.23738891  1
  H+  H316  1  0.11336764  0.59208749  0.53766829  1
  H+  H317  1  0.33590265  0.17534128  0.38355590  1
  H+  H318  1  0.92069479  0.08465073  0.93465197  1
  H+  H319  1  0.10590108  0.93564631  0.75638828  1
  H+  H320  1  0.33716901  0.39613830  0.13089513  1
  H+  H321  1  0.82627638  0.41287090  0.43453989  1
  H+  H322  1  0.85077307  0.92302304  0.40440073  1
  H+  H323  1  0.39557662  0.77395847  0.49803577  1
  H+  H324  1  0.92929522  0.81630820  0.59028438  1
  H+  H325  1  0.60965536  0.17584528  0.77874420  1
  H+  H326  1  0.40972097  0.81669753  0.25492986  1
  H+  H327  1  0.91110354  0.58455702  0.23406307  1
  H+  H328  1  0.83901807  0.67718700  0.76554196  1
  H+  H329  1  0.60809499  0.42782501  0.39057375  1
  H+  H330  1  0.06267630  0.39793210  0.80180803  1
  H+  H331  1  0.37313454  0.81109595  0.58714866  1
  H+  H332  1  0.57635299  0.16212132  0.40433172  1
  H+  H333  1  0.70423771  0.33600014  0.91283860  1
  H+  H334  1  0.15828004  0.33554398  0.27524410  1
  H+  H335  1  0.86551243  0.88513335  0.49040161  1
  H+  H336  1  0.08916108  0.91690302  0.43409178  1
  H+  H337  1  0.79753107  0.87731189  0.65750770  1
  H+  H338  1  0.47841235  0.61034048  0.50282190  1
  H+  H339  1  0.35788647  0.42811232  0.76934387  1
  H+  H340  1  0.44554256  0.13256343  0.91576161  1
  H+  H341  1  0.54289650  0.35746762  0.16984669  1
  H+  H342  1  0.47905184  0.37542935  0.99805733  1
  H+  H343  1  0.59066164  0.40971287  0.06987909  1
  H+  H344  1  0.42664661  0.33904730  0.89917941  1
  H+  H345  1  0.17421147  0.84174625  0.56351214  1
  H+  H346  1  0.34103873  0.67219799  0.42899404  1
  H+  H347  1  0.89849217  0.32338000  0.26449386  1
  H+  H348  1  0.42407351  0.58606078  0.22973653  1
  H+  H349  1  0.03290783  0.63233685  0.67981742  1
  H+  H350  1  0.16786576  0.08191642  0.56758505  1
  H+  H351  1  0.08923424  0.44236381  0.07846157  1
  H+  H352  1  0.41129988  0.09103577  0.26158193  1
  H+  H353  1  0.31290764  0.89139478  0.10644675  1
  H+  H354  1  0.18732871  0.36863655  0.63007593  1
  H+  H355  1  0.66961067  0.58945611  0.60297351  1
  H+  H356  1  0.15048714  0.34135234  0.54049808  1
  H+  H357  1  0.83388274  0.66661613  0.43141789  1
  H+  H358  1  0.36591665  0.48201464  0.49581049  1
  H+  H359  1  0.18232368  0.59449271  0.89626972  1
  H+  H360  1  0.90609782  0.32360123  0.94015609  1
  H+  H361  1  0.68787710  0.95771184  0.74893995  1
  H+  H362  1  0.82945343  0.42532799  0.73270899  1
  H+  H363  1  0.08770585  0.39983264  0.07812461  1
  H+  H364  1  0.90991572  0.50024594  0.65478703  1
  H+  H365  1  0.32043155  0.44367425  0.04858557  1
  H+  H366  1  0.67990121  0.83916075  0.59253242  1
  H+  H367  1  0.80701587  0.01814473  0.21553630  1
  H+  H368  1  0.41948827  0.58300483  0.56310584  1
  H+  H369  1  0.10347563  0.15167801  0.04276707  1
  H+  H370  1  0.86360210  0.73600809  0.00974094  1
  H+  H371  1  0.04981372  0.80329803  0.63164332  1
  H+  H372  1  0.34222130  0.67428269  0.76358352  1
  H+  H373  1  0.17496797  0.08122267  0.90027546  1
  H+  H374  1  0.91461430  0.57611874  0.56487026  1
  H+  H375  1  0.44148149  0.08987602  0.62783261  1
  H+  H376  1  0.48208763  0.61107935  0.32794624  1
  H+  H377  1  0.08204733  0.66941408  0.77647736  1
  H+  H378  1  0.77193230  0.38341726  0.33427438  1
  H+  H379  1  0.37846343  0.05040627  0.54580002  1
  H+  H380  1  0.58362952  0.16876081  0.06050781  1
  H+  H381  1  0.83358002  0.67478955  0.07092016  1
  H+  H382  1  0.90622471  0.59505003  0.93320752  1
  H+  H383  1  0.59910869  0.69037008  0.76010191  1
  O2-  O384  1  0.06173862  0.13726940  0.20335185  1
  O2-  O385  1  0.07974300  0.15941632  0.48062602  1
  O2-  O386  1  0.08195820  0.15472116  0.81002454  1
  O2-  O387  1  0.08623078  0.43658743  0.20762577  1
  O2-  O388  1  0.06380424  0.41009051  0.46266136  1
  O2-  O389  1  0.10838950  0.42044592  0.83234098  1
  O2-  O390  1  0.08586211  0.68152070  0.15613018  1
  O2-  O391  1  0.08889280  0.66168602  0.51183137  1
  O2-  O392  1  0.08179651  0.66836925  0.82202628  1
  O2-  O393  1  0.15410364  0.91336211  0.14729947  1
  O2-  O394  1  0.08441466  0.91082662  0.47985065  1
  O2-  O395  1  0.08345660  0.92159003  0.81673134  1
  O2-  O396  1  0.30037733  0.19745697  0.13044573  1
  O2-  O397  1  0.29474726  0.10447798  0.45284717  1
  O2-  O398  1  0.33280513  0.17487271  0.81155272  1
  O2-  O399  1  0.33718297  0.41392100  0.17265466  1
  O2-  O400  1  0.33293189  0.41909414  0.48108844  1
  O2-  O401  1  0.35508380  0.42737352  0.81470894  1
  O2-  O402  1  0.34244681  0.67530248  0.14026771  1
  O2-  O403  1  0.34719731  0.67908570  0.47407883  1
  O2-  O404  1  0.34492985  0.67627134  0.80928557  1
  O2-  O405  1  0.31279039  0.90961288  0.14871661  1
  O2-  O406  1  0.33768483  0.90956655  0.46094624  1
  O2-  O407  1  0.31920544  0.90800509  0.81554670  1
  O2-  O408  1  0.57211859  0.16928242  0.13411335  1
  O2-  O409  1  0.58613482  0.16374408  0.48529263  1
  O2-  O410  1  0.61846728  0.17561808  0.82400510  1
  O2-  O411  1  0.60176668  0.38017806  0.15171239  1
  O2-  O412  1  0.63359984  0.43034863  0.47638947  1
  O2-  O413  1  0.59056828  0.41043353  0.80172893  1
  O2-  O414  1  0.58390894  0.67630006  0.15386189  1
  O2-  O415  1  0.58202349  0.66832875  0.47723049  1
  O2-  O416  1  0.61012118  0.70341192  0.80414510  1
  O2-  O417  1  0.56887828  0.92515475  0.16673903  1
  O2-  O418  1  0.58716832  0.91656268  0.48027203  1
  O2-  O419  1  0.59899834  0.89994023  0.85590396  1
  O2-  O420  1  0.82486656  0.17116065  0.14476866  1
  O2-  O421  1  0.83180401  0.16176110  0.47643361  1
  O2-  O422  1  0.85604450  0.20193929  0.80767465  1
  O2-  O423  1  0.84968422  0.43442080  0.13319189  1
  O2-  O424  1  0.83118015  0.41367445  0.48004910  1
  O2-  O425  1  0.80332507  0.46169720  0.80096618  1
  O2-  O426  1  0.82917882  0.67139269  0.14403042  1
  O2-  O427  1  0.82947188  0.66656821  0.47694781  1
  O2-  O428  1  0.84236444  0.68315272  0.81207162  1
  O2-  O429  1  0.86105769  0.91961803  0.12764463  1
  O2-  O430  1  0.83772210  0.91779450  0.47365998  1
  O2-  O431  1  0.80861344  0.89298177  0.80612106  1
  O2-  O432  1  0.15909457  0.05483047  0.16240988  1
  O2-  O433  1  0.16244054  0.07773194  0.52250421  1
  O2-  O434  1  0.16912143  0.08220526  0.85513942  1
  O2-  O435  1  0.16088545  0.33436941  0.20433315  1
  O2-  O436  1  0.16054407  0.33569323  0.49771094  1
  O2-  O437  1  0.18368633  0.32275727  0.84576966  1
  O2-  O438  1  0.17597730  0.59915294  0.17340602  1
  O2-  O439  1  0.11386459  0.54218709  0.55796173  1
  O2-  O440  1  0.17932747  0.59628778  0.85052918  1
  O2-  O441  1  0.09652993  0.84321158  0.18843549  1
  O2-  O442  1  0.18239045  0.84391543  0.51924581  1
  O2-  O443  1  0.15525839  0.83370715  0.85767698  1
  O2-  O444  1  0.41043049  0.07939616  0.18851027  1
  O2-  O445  1  0.41220016  0.08207089  0.51061308  1
  O2-  O446  1  0.40715557  0.08311720  0.83454204  1
  O2-  O447  1  0.44234689  0.33461219  0.19182090  1
  O2-  O448  1  0.44501367  0.34856549  0.51370854  1
  O2-  O449  1  0.42431446  0.33276350  0.85402850  1
  O2-  O450  1  0.42215079  0.58080664  0.18464508  1
  O2-  O451  1  0.41743288  0.57751390  0.51762407  1
  O2-  O452  1  0.43549469  0.60211057  0.85075519  1
  O2-  O453  1  0.40945623  0.81885532  0.19014282  1
  O2-  O454  1  0.42354240  0.83506866  0.51532966  1
  O2-  O455  1  0.41640579  0.83251050  0.86045246  1
  O2-  O456  1  0.64969517  0.08591795  0.18680599  1
  O2-  O457  1  0.67002571  0.08297123  0.52477495  1
  O2-  O458  1  0.69386972  0.08016741  0.85632975  1
  O2-  O459  1  0.63465725  0.32919539  0.17641437  1
  O2-  O460  1  0.67073707  0.32404562  0.52915105  1
  O2-  O461  1  0.73121743  0.33052700  0.87427735  1
  O2-  O462  1  0.67205647  0.61247423  0.18697512  1
  O2-  O463  1  0.66906935  0.59106962  0.52294433  1
  O2-  O464  1  0.69414935  0.55229280  0.86362306  1
  O2-  O465  1  0.64465990  0.82443982  0.19813579  1
  O2-  O466  1  0.67424572  0.83588810  0.51356024  1
  O2-  O467  1  0.73023091  0.85740517  0.84249334  1
  O2-  O468  1  0.86152326  0.04889435  0.19393829  1
  O2-  O469  1  0.91413953  0.08158489  0.52178027  1
  O2-  O470  1  0.92730069  0.03904099  0.85904377  1
  O2-  O471  1  0.90913268  0.33497779  0.19058784  1
  O2-  O472  1  0.90837506  0.32724859  0.51912273  1
  O2-  O473  1  0.88567108  0.33551698  0.87824476  1
  O2-  O474  1  0.91192995  0.58451348  0.18837151  1
  O2-  O475  1  0.90644581  0.58190691  0.52084364  1
  O2-  O476  1  0.92043777  0.59639805  0.86630149  1
  O2-  O477  1  0.94329897  0.83179418  0.19509159  1
  O2-  O478  1  0.91522562  0.83203209  0.51248097  1
  O2-  O479  1  0.91043689  0.83619129  0.85824884  1
  O2-  O480  1  0.17039444  0.08171604  0.31682513  1
  O2-  O481  1  0.17364135  0.08643382  0.64887890  1
  O2-  O482  1  0.20247646  0.05566946  0.97046783  1
  O2-  O483  1  0.15254104  0.33775331  0.32165580  1
  O2-  O484  1  0.17361890  0.34598719  0.67120036  1
  O2-  O485  1  0.17591292  0.32580871  0.96728902  1
  O2-  O486  1  0.16558523  0.58370674  0.29702203  1
  O2-  O487  1  0.15807456  0.57257349  0.67297785  1
  O2-  O488  1  0.17666868  0.58112633  0.97171649  1
  O2-  O489  1  0.15912932  0.84335230  0.29038364  1
  O2-  O490  1  0.10924196  0.81928015  0.64285455  1
  O2-  O491  1  0.15272952  0.81731289  0.97757714  1
  O2-  O492  1  0.40866844  0.09954970  0.30691789  1
  O2-  O493  1  0.42852381  0.08625216  0.67113672  1
  O2-  O494  1  0.46473212  0.17310460  0.94973030  1
  O2-  O495  1  0.44545839  0.34518467  0.31243947  1
  O2-  O496  1  0.42495792  0.33744118  0.64183960  1
  O2-  O497  1  0.42138205  0.34952631  0.97822275  1
  O2-  O498  1  0.42219026  0.58194248  0.31040398  1
  O2-  O499  1  0.42076266  0.58884836  0.64080412  1
  O2-  O500  1  0.42258407  0.59696037  0.97136756  1
  O2-  O501  1  0.40618306  0.81580457  0.30377343  1
  O2-  O502  1  0.33672546  0.78985713  0.62441231  1
  O2-  O503  1  0.41780553  0.82490174  0.98143167  1
  O2-  O504  1  0.69073658  0.14166888  0.29736006  1
  O2-  O505  1  0.69126522  0.10680017  0.65079596  1
  O2-  O506  1  0.66102428  0.07664019  0.97959597  1
  O2-  O507  1  0.68836482  0.30221950  0.29040679  1
  O2-  O508  1  0.67102216  0.33531008  0.65036098  1
  O2-  O509  1  0.66880838  0.34049500  0.98187029  1
  O2-  O510  1  0.68281038  0.60152335  0.31031461  1
  O2-  O511  1  0.66774515  0.58893653  0.64819447  1
  O2-  O512  1  0.66108469  0.58156355  0.98478210  1
  O2-  O513  1  0.65834665  0.82326247  0.32122695  1
  O2-  O514  1  0.68788531  0.83769163  0.63753057  1
  O2-  O515  1  0.65578776  0.85063373  0.96164545  1
  O2-  O516  1  0.92841393  0.08191133  0.31444912  1
  O2-  O517  1  0.92570480  0.11748756  0.64149143  1
  O2-  O518  1  0.91691316  0.08582157  0.97940609  1
  O2-  O519  1  0.90216819  0.32245916  0.31052820  1
  O2-  O520  1  0.90468250  0.31402042  0.65072084  1
  O2-  O521  1  0.92598588  0.31424705  0.98363726  1
  O2-  O522  1  0.91804423  0.58976514  0.31097103  1
  O2-  O523  1  0.95571976  0.55235287  0.63339203  1
  O2-  O524  1  0.90044283  0.59506595  0.98066269  1
  O2-  O525  1  0.92467746  0.83928193  0.31756163  1
  O2-  O526  1  0.94237715  0.81491706  0.63418181  1
  O2-  O527  1  0.91598314  0.83517939  0.98170597  1
  O2-  O528  1  0.07168876  0.17971302  0.03017424  1
  O2-  O529  1  0.08690949  0.16958116  0.35689841  1
  O2-  O530  1  0.09074552  0.16997535  0.68582689  1
  O2-  O531  1  0.09315108  0.41148442  -0.04737910  1
  O2-  O532  1  0.05268127  0.39784566  0.34733773  1
  O2-  O533  1  0.07266211  0.40458385  0.70544992  1
  O2-  O534  1  0.08106833  0.64717358  0.00627361  1
  O2-  O535  1  0.08057125  0.66849368  0.33581978  1
  O2-  O536  1  0.08939865  0.67533307  0.69780296  1
  O2-  O537  1  0.08359425  0.90659583  0.03250204  1
  O2-  O538  1  0.09458173  0.92495000  0.35935608  1
  O2-  O539  1  0.13087697  0.94766805  0.71023995  1
  O2-  O540  1  0.34291269  0.18434067  0.01150297  1
  O2-  O541  1  0.34436336  0.18786609  0.33978570  1
  O2-  O542  1  0.33773504  0.17469920  0.68956564  1
  O2-  O543  1  0.32957026  0.42915549  0.00772537  1
  O2-  O544  1  0.32130896  0.39870691  0.36062819  1
  O2-  O545  1  0.35216985  0.42612299  0.69090038  1
  O2-  O546  1  0.33702203  0.66951163  0.02276516  1
  O2-  O547  1  0.32820603  0.66005878  0.35029315  1
  O2-  O548  1  0.32950523  0.66128091  0.68821526  1
  O2-  O549  1  0.30969039  0.87221050  0.02451187  1
  O2-  O550  1  0.30884685  0.88608968  0.33161066  1
  O2-  O551  1  0.32186923  0.92074060  0.69480616  1
  O2-  O552  1  0.59388767  0.17238375  0.01493788  1
  O2-  O553  1  0.56888316  0.16176473  0.35960583  1
  O2-  O554  1  0.59980218  0.17376626  0.70349885  1
  O2-  O555  1  0.58228900  0.41648927  0.02618734  1
  O2-  O556  1  0.61223053  0.43668700  0.34651665  1
  O2-  O557  1  0.59318049  0.42107181  0.68427969  1
  O2-  O558  1  0.58790005  0.67789863  0.01220514  1
  O2-  O559  1  0.58200857  0.66353291  0.35631859  1
  O2-  O560  1  0.58405669  0.67259084  0.68084469  1
  O2-  O561  1  0.57595977  0.91773133  0.01121785  1
  O2-  O562  1  0.57569126  0.91349985  0.35769895  1
  O2-  O563  1  0.65929183  0.95527817  0.71053181  1
  O2-  O564  1  0.82245429  0.15262356  0.02233657  1
  O2-  O565  1  0.83288898  0.16096478  0.35130338  1
  O2-  O566  1  0.86126550  0.22662595  0.67690657  1
  O2-  O567  1  0.82831875  0.44476643  0.02404623  1
  O2-  O568  1  0.82769636  0.41744694  0.35625974  1
  O2-  O569  1  0.83412850  0.40804498  0.69042696  1
  O2-  O570  1  0.83410193  0.67462493  0.02445309  1
  O2-  O571  1  0.84382318  0.67717294  0.35400915  1
  O2-  O572  1  0.83285458  0.66260357  0.69496336  1
  O2-  O573  1  0.82591272  0.91833671  0.00864517  1
  O2-  O574  1  0.86104266  0.92695422  0.35781165  1
  O2-  O575  1  0.85927373  0.90449197  0.66929117  1
