# generated using pymatgen
data_H2O
_symmetry_space_group_name_H-M   'P 1'
_cell_length_a   17.99350169
_cell_length_b   18.00030812
_cell_length_c   22.00998268
_cell_angle_alpha   89.99905423
_cell_angle_beta   90.01033187
_cell_angle_gamma   120.00094498
_symmetry_Int_Tables_number   1
_chemical_formula_structural   H2O
_chemical_formula_sum   'H384 O192'
_cell_volume   6173.64732891
_cell_formula_units_Z   192
loop_
 _symmetry_equiv_pos_site_id
 _symmetry_equiv_pos_as_xyz
  1  'x, y, z'
loop_
 _atom_type_symbol
 _atom_type_oxidation_number
  H+  1.0
  O2-  -2.0
loop_
 _atom_site_type_symbol
 _atom_site_label
 _atom_site_symmetry_multiplicity
 _atom_site_fract_x
 _atom_site_fract_y
 _atom_site_fract_z
 _atom_site_occupancy
  H+  H0  1  0.88285523  0.86810089  0.50708530  1
  H+  H1  1  0.27814156  0.13352996  0.16644964  1
  H+  H2  1  0.11558215  0.72723091  0.82715950  1
  H+  H3  1  0.28733849  0.64788584  0.16014464  1
  H+  H4  1  0.15171276  0.24284625  0.35667076  1
  H+  H5  1  0.22258928  0.85289163  0.84217331  1
  H+  H6  1  0.13437669  0.36159632  0.99651500  1
  H+  H7  1  0.98487845  0.62762280  0.65674511  1
  H+  H8  1  0.63582949  0.11006844  0.50407894  1
  H+  H9  1  0.64388579  0.85698494  0.16680373  1
  H+  H10  1  0.52080941  0.13162420  0.48550878  1
  H+  H11  1  0.83754877  0.41481696  0.89542733  1
  H+  H12  1  0.64582280  0.86299214  0.85101964  1
  H+  H13  1  0.62499634  0.22142459  0.15894463  1
  H+  H14  1  0.88822119  0.35140318  0.99838492  1
  H+  H15  1  0.39729313  0.77380969  0.99428944  1
  H+  H16  1  0.85437830  0.12211931  0.47300807  1
  H+  H17  1  0.90686877  0.86127173  0.32723278  1
  H+  H18  1  0.44321519  0.60843598  0.85684246  1
  H+  H19  1  0.62233334  0.84717027  0.00444128  1
  H+  H20  1  0.12869630  0.10078879  0.84807184  1
  H+  H21  1  0.35914510  0.39061381  0.01382934  1
  H+  H22  1  0.69622775  0.53475284  0.18616997  1
  H+  H23  1  0.37349091  0.35814825  0.84545977  1
  H+  H24  1  0.12761242  0.73644648  0.15961355  1
  H+  H25  1  0.85630785  0.14981546  0.68174899  1
  H+  H26  1  0.89801537  0.28335639  0.66095649  1
  H+  H27  1  0.11269726  1.00166171  0.50643186  1
  H+  H28  1  0.92495894  0.55121567  0.49023725  1
  H+  H29  1  0.59257941  0.22091026  -0.01427092  1
  H+  H30  1  0.39114743  0.28997165  1.00559440  1
  H+  H31  1  0.12846660  0.76127721  -0.00634260  1
  H+  H32  1  0.11323532  0.88943422  0.15828157  1
  H+  H33  1  0.09849736  0.96342371  0.67280671  1
  H+  H34  1  0.85734970  0.47109601  0.14974884  1
  H+  H35  1  0.09828916  0.48053620  0.68527032  1
  H+  H36  1  0.46529042  0.87380707  0.49902180  1
  H+  H37  1  0.38214420  0.49044858  0.67982974  1
  H+  H38  1  0.71868026  0.09712274  0.84307392  1
  H+  H39  1  0.28518545  0.41823500  0.67734909  1
  H+  H40  1  0.56441778  0.61934007  0.87519530  1
  H+  H41  1  0.86505417  0.38116917  0.83861508  1
  H+  H42  1  0.35665411  0.58333982  0.49845868  1
  H+  H43  1  0.60374059  0.98257990  0.67701682  1
  H+  H44  1  0.76367005  0.11777182  0.48139314  1
  H+  H45  1  0.38026017  1.02982931  0.49643179  1
  H+  H46  1  0.58310483  0.75190676  0.62847456  1
  H+  H47  1  0.26673768  0.86684967  0.00429693  1
  H+  H48  1  0.64525493  0.52363677  0.48391687  1
  H+  H49  1  0.63092667  0.36308805  -0.00324087  1
  H+  H50  1  0.87299405  0.98083908  0.17237277  1
  H+  H51  1  0.46670309  0.35707352  0.17661148  1
  H+  H52  1  0.60383178  0.36990950  0.84264059  1
  H+  H53  1  0.60015496  0.60047156  0.64512561  1
  H+  H54  1  0.13279128  0.85248240  -0.00596151  1
  H+  H55  1  0.38579844  0.29942075  0.33450773  1
  H+  H56  1  0.62871387  0.76235337  0.62276525  1
  H+  H57  1  0.85004826  0.66841853  0.42082228  1
  H+  H58  1  0.97399476  0.10650824  0.84932312  1
  H+  H59  1  0.15245991  0.41269255  0.66861391  1
  H+  H60  1  0.52490538  0.38918521  0.48870051  1
  H+  H61  1  0.13585051  0.51773142  0.50721285  1
  H+  H62  1  0.17456400  0.25220554  0.62129353  1
  H+  H63  1  0.15213485  0.02595045  0.33081890  1
  H+  H64  1  0.12003141  0.51201942  0.99442991  1
  H+  H65  1  0.47217034  0.84865216  0.84052154  1
  H+  H66  1  0.63387821  0.35963850  0.16791835  1
  H+  H67  1  0.36476810  0.96496098  0.33425502  1
  H+  H68  1  0.61062553  0.21804994  0.48435890  1
  H+  H69  1  0.38366288  0.27854799  0.50857751  1
  H+  H70  1  0.41179684  0.82050254  0.89859466  1
  H+  H71  1  0.29494775  0.62054502  0.50081380  1
  H+  H72  1  0.59890117  0.36469452  0.62748396  1
  H+  H73  1  0.52884054  0.88231338  0.16468856  1
  H+  H74  1  0.23187746  0.87296347  0.16717225  1
  H+  H75  1  0.01678161  0.63273252  0.01006922  1
  H+  H76  1  0.88802275  1.02061356  0.00090106  1
  H+  H77  1  -0.01302896  0.61902001  0.83496559  1
  H+  H78  1  0.62711780  0.63768197  0.99955228  1
  H+  H79  1  0.41488724  0.08879922  0.55548603  1
  H+  H80  1  0.60975003  0.38171974  0.48437244  1
  H+  H81  1  0.85794771  0.12110918  0.84042040  1
  H+  H82  1  0.63479516  0.10964079  0.65693081  1
  H+  H83  1  0.97574380  0.88062901  0.49082862  1
  H+  H84  1  0.36312885  0.72834587  0.32943723  1
  H+  H85  1  0.39345460  0.39157014  0.33157516  1
  H+  H86  1  0.85644228  0.11659714  0.15832856  1
  H+  H87  1  0.89353423  0.76222776  0.98782119  1
  H+  H88  1  0.10658763  0.96337638  0.00671391  1
  H+  H89  1  0.96186234  0.16399870  0.30449629  1
  H+  H90  1  0.86002805  0.62599370  0.00506958  1
  H+  H91  1  0.39186134  0.86578087  0.17129331  1
  H+  H92  1  0.08145637  0.10964291  0.68540990  1
  H+  H93  1  0.52537765  0.40015194  0.33368463  1
  H+  H94  1  0.17638545  0.57677073  0.11085722  1
  H+  H95  1  0.71974520  0.35119757  0.84556336  1
  H+  H96  1  0.58778846  0.46980053  0.15537976  1
  H+  H97  1  0.35044068  0.95861638  0.00068164  1
  H+  H98  1  -0.02222701  0.59933738  0.30968157  1
  H+  H99  1  0.16124427  0.82416059  0.90142436  1
  H+  H100  1  0.31879418  0.91428069  0.66608825  1
  H+  H101  1  0.38295180  0.74998199  0.64969965  1
  H+  H102  1  0.59943555  0.71543429  0.46089541  1
  H+  H103  1  0.38350133  0.18093398  0.35794767  1
  H+  H104  1  0.21482686  0.60873467  0.83322824  1
  H+  H105  1  0.89372379  0.85443930  0.67616700  1
  H+  H106  1  0.34367691  0.84163907  0.66908836  1
  H+  H107  1  0.12367583  0.87863444  0.33507676  1
  H+  H108  1  0.97762178  0.37679797  0.50409659  1
  H+  H109  1  0.87074854  0.25938977  0.32784570  1
  H+  H110  1  0.11389288  0.63595388  0.82129741  1
  H+  H111  1  0.13190668  0.24755639  0.61226505  1
  H+  H112  1  0.34329702  0.15562756  0.66067117  1
  H+  H113  1  0.89335297  0.89047458  0.41687595  1
  H+  H114  1  0.61194476  0.96401900  0.83731401  1
  H+  H115  1  0.36178077  0.38700127  0.49666870  1
  H+  H116  1  0.39601403  0.86549967  0.32872875  1
  H+  H117  1  0.79818285  0.13456592  0.38904018  1
  H+  H118  1  0.14870304  0.61662873  0.51103883  1
  H+  H119  1  0.34168503  0.62371016  0.82566842  1
  H+  H120  1  0.64052816  0.77300071  0.85830820  1
  H+  H121  1  0.36702741  0.64246022  0.33554463  1
  H+  H122  1  -0.00653726  0.36573377  0.66147945  1
  H+  H123  1  0.76832562  0.88691862  0.01573193  1
  H+  H124  1  0.21426504  0.35540284  0.83964981  1
  H+  H125  1  0.15873887  0.33074520  0.90020227  1
  H+  H126  1  0.98174908  0.10458340  0.50911312  1
  H+  H127  1  0.85651998  0.37864799  0.34224958  1
  H+  H128  1  0.08719968  0.42584443  0.43231941  1
  H+  H129  1  0.10637578  0.21993045  0.83688557  1
  H+  H130  1  0.73809112  0.61569907  0.32267089  1
  H+  H131  1  0.23738991  0.61362468  0.65236823  1
  H+  H132  1  0.36797681  1.00454337  0.82818755  1
  H+  H133  1  0.89137601  0.76506875  0.82996590  1
  H+  H134  1  0.37830810  0.64540954  1.01523095  1
  H+  H135  1  0.11381374  0.87978151  0.82564401  1
  H+  H136  1  0.37798599  0.08185666  0.29963288  1
  H+  H137  1  0.36444004  0.22422525  0.17224297  1
  H+  H138  1  0.84987097  0.97610123  0.51408049  1
  H+  H139  1  0.72064854  0.34989154  0.49033218  1
  H+  H140  1  0.99108263  0.85766436  0.31416269  1
  H+  H141  1  0.02681406  0.38376613  0.16838243  1
  H+  H142  1  0.46167200  0.35696311  0.85272279  1
  H+  H143  1  0.34573093  0.13940251  0.49822575  1
  H+  H144  1  0.63776948  0.26440638  0.64778264  1
  H+  H145  1  0.35045302  0.04418114  0.70028202  1
  H+  H146  1  0.08711676  0.68794509  0.73502134  1
  H+  H147  1  0.60783503  0.63248822  0.46434031  1
  H+  H148  1  0.45463668  0.62246980  0.59932816  1
  H+  H149  1  0.78170484  0.62532901  0.82097796  1
  H+  H150  1  0.83350559  0.41922395  0.72085172  1
  H+  H151  1  0.81988285  0.91120540  0.68077492  1
  H+  H152  1  -0.02110577  0.36469687  0.81983786  1
  H+  H153  1  0.86742567  0.62975610  0.66405513  1
  H+  H154  1  0.72172764  0.36313869  0.32398999  1
  H+  H155  1  0.82883923  0.90606992  0.37740446  1
  H+  H156  1  0.63024516  0.63223099  0.14974356  1
  H+  H157  1  0.63588294  0.36921951  0.32084074  1
  H+  H158  1  0.86366500  0.12710125  1.01046460  1
  H+  H159  1  0.57364006  0.73593694  0.30948087  1
  H+  H160  1  0.87194580  0.88140721  0.16957474  1
  H+  H161  1  0.61600269  0.85950350  0.48935510  1
  H+  H162  1  0.58790114  0.90777544  0.77710106  1
  H+  H163  1  0.15350048  0.89228872  0.53629011  1
  H+  H164  1  0.60729702  0.97710011  0.49424503  1
  H+  H165  1  0.38292271  0.56853537  0.91176837  1
  H+  H166  1  0.87181662  0.73196697  0.47668759  1
  H+  H167  1  0.35631464  0.38237655  0.16746243  1
  H+  H168  1  0.39636558  0.11154150  0.16565672  1
  H+  H169  1  0.30795769  0.02267148  0.63650766  1
  H+  H170  1  0.26792564  0.38734828  0.01210759  1
  H+  H171  1  0.08217738  0.40580605  0.07030223  1
  H+  H172  1  0.47320665  0.60106435  0.99524417  1
  H+  H173  1  0.50794777  0.12478587  0.65987590  1
  H+  H174  1  0.61303023  0.47763364  0.00723116  1
  H+  H175  1  0.91666432  0.07672902  0.23238687  1
  H+  H176  1  0.63669499  0.62327972  0.66751450  1
  H+  H177  1  0.06543770  0.15654440  0.36794235  1
  H+  H178  1  0.11845555  0.46737721  0.16204874  1
  H+  H179  1  1.01929094  0.87141276  1.00260841  1
  H+  H180  1  0.13668243  0.02079833  0.17332358  1
  H+  H181  1  0.21173709  0.13760856  0.51134874  1
  H+  H182  1  0.22369406  0.35414335  0.18191493  1
  H+  H183  1  0.53504917  0.90424634  0.33857512  1
  H+  H184  1  0.01941406  0.37457340  0.01204395  1
  H+  H185  1  0.61914583  0.96885249  0.16585493  1
  H+  H186  1  0.88359082  0.51594370  0.98972821  1
  H+  H187  1  0.78110720  0.65224851  0.15882549  1
  H+  H188  1  0.36631098  0.13957604  0.81084296  1
  H+  H189  1  0.11689313  0.38365112  0.34283484  1
  H+  H190  1  0.75805176  0.88637207  0.50427469  1
  H+  H191  1  0.32558268  0.41430647  0.10968493  1
  H+  H192  1  0.32975774  0.64584926  0.72335633  1
  H+  H193  1  0.73708613  0.61340647  0.48112589  1
  H+  H194  1  0.98329254  0.87281228  0.16840431  1
  H+  H195  1  0.85826999  0.21093757  0.83676914  1
  H+  H196  1  0.87818037  0.60813900  0.16369534  1
  H+  H197  1  0.62925516  0.72068121  0.14917638  1
  H+  H198  1  0.10305062  0.62818785  0.00815484  1
  H+  H199  1  0.11389179  0.13443155  0.16389972  1
  H+  H200  1  0.10368005  0.38737083  0.82554861  1
  H+  H201  1  0.88942464  0.26359846  0.00432680  1
  H+  H202  1  0.86398803  0.10581689  0.31382742  1
  H+  H203  1  0.35814072  0.87006960  0.82713358  1
  H+  H204  1  0.74789517  0.13472849  0.99445966  1
  H+  H205  1  0.35437492  0.71695429  0.81780770  1
  H+  H206  1  0.05532953  0.66761218  0.50408744  1
  H+  H207  1  0.36275118  0.90268831  0.49112652  1
  H+  H208  1  0.47533692  0.10744786  0.31796783  1
  H+  H209  1  0.89667326  0.37341441  0.17326777  1
  H+  H210  1  0.11324880  0.38998501  0.48951392  1
  H+  H211  1  0.92417654  0.34505210  0.56582441  1
  H+  H212  1  0.59905796  0.66372694  0.06474184  1
  H+  H213  1  0.38222390  0.53132081  0.58233000  1
  H+  H214  1  0.11152095  0.96825234  0.82554478  1
  H+  H215  1  0.16229759  0.81079234  0.54728885  1
  H+  H216  1  0.11027637  0.22142494  0.16871259  1
  H+  H217  1  0.13709956  0.27418956  0.99533253  1
  H+  H218  1  1.02358614  0.13458279  1.00958369  1
  H+  H219  1  0.88927420  0.75854354  0.66428601  1
  H+  H220  1  0.38064784  0.50346798  0.34543234  1
  H+  H221  1  0.68072559  0.08585418  0.23669332  1
  H+  H222  1  0.37226279  0.64115768  0.17317542  1
  H+  H223  1  0.55185003  0.79663458  0.27362289  1
  H+  H224  1  0.36687021  0.97388692  0.14938336  1
  H+  H225  1  0.51969162  0.39200881  0.00543886  1
  H+  H226  1  0.52416394  0.87581886  0.00680424  1
  H+  H227  1  0.17691609  0.07387152  1.05188273  1
  H+  H228  1  0.51878160  0.38443044  0.63328845  1
  H+  H229  1  0.89963212  0.31640236  0.77586997  1
  H+  H230  1  0.46549274  0.84471934  0.65236261  1
  H+  H231  1  0.91063813  0.63166693  0.49428089  1
  H+  H232  1  0.57060999  0.40387006  0.78917394  1
  H+  H233  1  0.29394142  0.15862543  0.01388518  1
  H+  H234  1  0.76886108  0.11862607  0.16065681  1
  H+  H235  1  0.39462162  0.77788712  0.17750279  1
  H+  H236  1  0.67708563  1.04031722  0.33685986  1
  H+  H237  1  0.38699950  0.37971128  0.65999954  1
  H+  H238  1  0.87009255  0.87812819  0.83588344  1
  H+  H239  1  0.70745166  0.93078106  0.63301589  1
  H+  H240  1  0.64307391  0.10856293  0.17722257  1
  H+  H241  1  0.37644161  0.52229475  0.18619184  1
  H+  H242  1  0.50211235  0.67395696  0.72304316  1
  H+  H243  1  0.72492674  0.11453205  0.66781171  1
  H+  H244  1  0.14225845  0.76652660  0.31627274  1
  H+  H245  1  0.87174354  0.73854972  0.15511632  1
  H+  H246  1  0.65296405  0.59842857  0.83211076  1
  H+  H247  1  0.28327227  0.14844076  0.34407289  1
  H+  H248  1  0.31969834  0.17826693  0.44289480  1
  H+  H249  1  0.64494893  0.53153044  0.32352771  1
  H+  H250  1  0.17691098  0.57251214  0.25342388  1
  H+  H251  1  0.33056165  0.41866359  0.77167477  1
  H+  H252  1  0.87348632  0.63354187  0.81722663  1
  H+  H253  1  0.86070899  0.48510278  0.66640274  1
  H+  H254  1  0.20381620  0.11230926  0.66549497  1
  H+  H255  1  0.45542184  0.09249071  0.84112511  1
  H+  H256  1  0.87772504  0.72390412  0.32912290  1
  H+  H257  1  0.15698942  0.11756897  0.33472976  1
  H+  H258  1  0.36868537  0.23003915  0.81956124  1
  H+  H259  1  0.16458989  0.64389877  0.64521318  1
  H+  H260  1  0.64848621  0.48807360  0.61584573  1
  H+  H261  1  0.19927466  0.77731684  0.67104237  1
  H+  H262  1  0.98116885  0.85420044  0.83247487  1
  H+  H263  1  0.87307366  0.39309507  0.50076205  1
  H+  H264  1  0.37393169  0.28549503  0.65680345  1
  H+  H265  1  0.82647350  0.44862440  0.51920368  1
  H+  H266  1  0.35429905  0.61358650  0.65927118  1
  H+  H267  1  0.63923710  0.50633625  0.84762178  1
  H+  H268  1  0.56221580  0.15211076  0.90044456  1
  H+  H269  1  0.12247734  0.62540254  0.31476559  1
  H+  H270  1  0.12405594  0.15944145  0.45703259  1
  H+  H271  1  0.34584995  0.46844881  0.83466121  1
  H+  H272  1  0.41405058  0.58435395  0.24448341  1
  H+  H273  1  -0.02101488  0.10014176  0.17257026  1
  H+  H274  1  -0.03570408  0.34437279  0.33392674  1
  H+  H275  1  0.78128729  0.88002555  0.83802277  1
  H+  H276  1  0.95187704  0.10647430  0.66489514  1
  H+  H277  1  0.62488349  0.73983531  0.00187061  1
  H+  H278  1  0.22024676  0.36214379  0.49726583  1
  H+  H279  1  0.62893865  0.25932046  0.84936690  1
  H+  H280  1  0.13447657  0.35295139  0.18390610  1
  H+  H281  1  0.11301125  0.46864549  0.33277019  1
  H+  H282  1  0.87386057  0.63219494  0.32984149  1
  H+  H283  1  0.27705580  0.90876011  0.49847773  1
  H+  H284  1  0.24283896  0.37850277  0.33446075  1
  H+  H285  1  0.89781376  0.52921168  0.84120385  1
  H+  H286  1  0.77331757  0.87968367  0.17070037  1
  H+  H287  1  0.76984945  0.38126878  0.00374063  1
  H+  H288  1  0.17012534  0.07990974  0.23349231  1
  H+  H289  1  0.85429871  0.04275622  0.64334996  1
  H+  H290  1  0.17357734  0.58454287  0.58375629  1
  H+  H291  1  0.57065357  0.41226898  0.09671797  1
  H+  H292  1  0.14363564  0.30161162  0.54025273  1
  H+  H293  1  0.21200982  0.43297409  0.60744685  1
  H+  H294  1  0.83192366  0.91671489  0.07135637  1
  H+  H295  1  0.13607769  0.11489766  1.01115076  1
  H+  H296  1  0.14735977  0.57283870  0.93620741  1
  H+  H297  1  0.66560657  0.32240014  0.55133794  1
  H+  H298  1  0.66735342  0.07897770  0.90337067  1
  H+  H299  1  0.91911370  0.34262034  0.23562134  1
  H+  H300  1  0.65981430  0.33434368  0.93643096  1
  H+  H301  1  0.14008319  0.95934098  0.45724051  1
  H+  H302  1  0.72964040  0.19490088  0.95436508  1
  H+  H303  1  0.07891213  0.91290896  0.09787979  1
  H+  H304  1  0.66977043  0.08408174  0.56411144  1
  H+  H305  1  0.72212652  0.35908407  0.64963467  1
  H+  H306  1  0.40182490  0.83318111  0.55473861  1
  H+  H307  1  0.82614493  0.64872503  0.72282430  1
  H+  H308  1  0.17407265  0.84305119  0.22774217  1
  H+  H309  1  0.44390168  0.09145492  0.98052839  1
  H+  H310  1  0.66724172  0.33600485  0.22783424  1
  H+  H311  1  0.82229272  0.16081151  0.74633408  1
  H+  H312  1  0.91819926  0.07747723  0.94015994  1
  H+  H313  1  0.74474447  0.58784437  0.63578120  1
  H+  H314  1  0.08121267  0.19623805  0.68897797  1
  H+  H315  1  0.57027199  0.16639114  0.39111450  1
  H+  H316  1  0.64245905  0.45950684  0.72399211  1
  H+  H317  1  0.61331008  0.88972136  0.34309490  1
  H+  H318  1  0.23119095  0.85599667  0.32485799  1
  H+  H319  1  0.38960277  0.85836876  0.98903025  1
  H+  H320  1  0.33057170  0.90581885  0.09467674  1
  H+  H321  1  0.57876900  0.92479723  0.43160510  1
  H+  H322  1  0.17787541  0.33253169  0.27802409  1
  H+  H323  1  0.67952436  0.58556536  0.23970056  1
  H+  H324  1  0.38042773  0.51651025  1.00433501  1
  H+  H325  1  0.14527259  0.62525925  0.15488549  1
  H+  H326  1  0.53873248  0.13324205  0.15232222  1
  H+  H327  1  0.36148032  0.68510647  0.07488105  1
  H+  H328  1  0.14227269  0.08510149  0.60813557  1
  H+  H329  1  0.92710084  0.82036185  0.92819698  1
  H+  H330  1  0.88767338  1.01407265  0.84751389  1
  H+  H331  1  0.12573826  0.52021296  0.83409224  1
  H+  H332  1  0.62348129  0.79839979  0.53757862  1
  H+  H333  1  0.92532459  0.83831647  0.23025723  1
  H+  H334  1  0.88602534  0.51443132  0.31995973  1
  H+  H335  1  0.52108795  0.94549027  0.71651355  1
  H+  H336  1  0.52434223  0.63339770  0.37900345  1
  H+  H337  1  0.93420441  0.59406851  0.59351147  1
  H+  H338  1  0.91995188  0.10138641  0.56150568  1
  H+  H339  1  0.69670796  0.57046652  0.56298885  1
  H+  H340  1  0.91928700  0.58294626  0.93316669  1
  H+  H341  1  0.31801735  0.88299848  0.76602610  1
  H+  H342  1  0.42869913  0.84501273  0.26661080  1
  H+  H343  1  0.54951182  0.64527680  0.80715884  1
  H+  H344  1  0.41352259  0.33952992  0.23904798  1
  H+  H345  1  0.83120619  0.41806852  0.39792303  1
  H+  H346  1  0.83360652  0.41210600  0.06030063  1
  H+  H347  1  0.85319243  0.90596966  0.74778234  1
  H+  H348  1  0.58153200  0.90197294  0.06814929  1
  H+  H349  1  0.32800133  0.18089181  0.72700426  1
  H+  H350  1  0.59716075  0.23037359  0.33341140  1
  H+  H351  1  0.23697871  0.61241386  0.31260181  1
  H+  H352  1  0.34586211  0.18623703  0.07590005  1
  H+  H353  1  0.73377860  0.61227001  0.99600003  1
  H+  H354  1  0.82940351  0.15063374  0.07223640  1
  H+  H355  1  0.65743569  0.81407032  0.22508119  1
  H+  H356  1  0.08452139  0.64330809  0.37367525  1
  H+  H357  1  0.60035140  0.11990692  0.84889675  1
  H+  H358  1  0.07987438  0.90541755  0.73225849  1
  H+  H359  1  0.83497667  0.66499730  0.06301235  1
  H+  H360  1  0.33050041  0.91577826  0.39798570  1
  H+  H361  1  0.42875072  0.07213782  0.21713877  1
  H+  H362  1  0.41703200  0.34455331  0.56352544  1
  H+  H363  1  0.54608067  0.62119190  0.70575251  1
  H+  H364  1  0.55821576  0.15605847  0.72104785  1
  H+  H365  1  0.08713688  0.67313835  0.10316468  1
  H+  H366  1  0.08145738  0.42042724  0.75977872  1
  H+  H367  1  0.34489707  0.43848697  0.40431177  1
  H+  H368  1  0.66506624  0.82614914  0.94325091  1
  H+  H369  1  0.77325013  0.37957806  0.15135264  1
  H+  H370  1  0.07246307  0.89146733  0.38970173  1
  H+  H371  1  0.67551343  0.58148750  0.93549036  1
  H+  H372  1  0.06964822  0.15193791  0.78188543  1
  H+  H373  1  0.90218329  0.57076232  0.22137456  1
  H+  H374  1  0.37764838  0.05375069  0.92755313  1
  H+  H375  1  0.16769810  0.06912275  0.89930305  1
  H+  H376  1  0.08150198  0.16906390  0.06973802  1
  H+  H377  1  0.60065726  0.13772502  -0.01279218  1
  H+  H378  1  0.61050262  0.47506813  0.72461778  1
  H+  H379  1  0.99006361  0.85465127  0.66960753  1
  H+  H380  1  0.40876956  0.33954364  0.94177585  1
  H+  H381  1  0.58435224  0.42091027  0.39208195  1
  H+  H382  1  0.77776736  0.92518236  0.59004098  1
  H+  H383  1  0.14077867  0.72661897  0.46657780  1
  O2-  O384  1  0.08008723  0.16183903  0.15062749  1
  O2-  O385  1  0.10236813  0.14232276  0.49956547  1
  O2-  O386  1  0.07629445  0.15688352  0.82679476  1
  O2-  O387  1  0.08767190  0.40555061  0.15236613  1
  O2-  O388  1  0.08768739  0.42688673  0.47773600  1
  O2-  O389  1  0.07547202  0.41872555  0.80968098  1
  O2-  O390  1  0.09998679  0.67530182  0.14739665  1
  O2-  O391  1  0.11966552  0.69623356  0.50494929  1
  O2-  O392  1  0.08547806  0.66929370  0.80643202  1
  O2-  O393  1  0.08107147  0.91864693  0.14367261  1
  O2-  O394  1  0.09936030  0.94358370  0.49072796  1
  O2-  O395  1  0.08326624  0.90845589  0.80797620  1
  O2-  O396  1  0.33949450  0.16545073  0.15393864  1
  O2-  O397  1  0.31478763  0.17097277  0.48802967  1
  O2-  O398  1  0.36347569  0.18672282  0.78939944  1
  O2-  O399  1  0.32412226  0.41178740  0.15504630  1
  O2-  O400  1  0.32701190  0.41474292  0.48489963  1
  O2-  O401  1  0.32326773  0.41018676  0.81681248  1
  O2-  O402  1  0.35063924  0.67911559  0.15473593  1
  O2-  O403  1  0.35535382  0.63734244  0.50454913  1
  O2-  O404  1  0.32265652  0.65755656  0.80059017  1
  O2-  O405  1  0.33251098  0.91093132  0.14040667  1
  O2-  O406  1  0.33206308  0.93409384  0.47491764  1
  O2-  O407  1  0.32538424  0.89707645  0.81003279  1
  O2-  O408  1  0.60151784  0.16128335  0.14560330  1
  O2-  O409  1  0.58114227  0.15621687  0.47183545  1
  O2-  O410  1  0.56840006  0.15170905  0.85460907  1
  O2-  O411  1  0.56772066  0.41048486  0.14260370  1
  O2-  O412  1  0.58348557  0.41597166  0.47030180  1
  O2-  O413  1  0.57397914  0.40393863  0.83354912  1
  O2-  O414  1  0.60572913  0.66377515  0.12926111  1
  O2-  O415  1  0.57104644  0.65444823  0.44939831  1
  O2-  O416  1  0.56215939  0.66350578  0.85102448  1
  O2-  O417  1  0.58975268  0.90844347  0.15015577  1
  O2-  O418  1  0.57322728  0.91781400  0.47688361  1
  O2-  O419  1  0.58606914  0.90320290  0.82185509  1
  O2-  O420  1  0.82743433  0.14635710  0.14231244  1
  O2-  O421  1  0.81474835  0.13854629  0.45448741  1
  O2-  O422  1  0.82468729  0.14938050  0.82577927  1
  O2-  O423  1  0.83276361  0.40986579  0.13491103  1
  O2-  O424  1  0.83931798  0.42446293  0.48377967  1
  O2-  O425  1  0.83319443  0.41229592  0.85113042  1
  O2-  O426  1  0.83861134  0.67875782  0.13938805  1
  O2-  O427  1  0.84862192  0.67029065  0.46687272  1
  O2-  O428  1  0.83771760  0.65751701  0.80006456  1
  O2-  O429  1  0.83734517  0.91304663  0.15772583  1
  O2-  O430  1  0.81535168  0.91370341  0.52465307  1
  O2-  O431  1  0.84101440  0.91066116  0.82206662  1
  O2-  O432  1  0.16829938  0.08158260  0.18837901  1
  O2-  O433  1  0.15010647  0.10298406  0.52605601  1
  O2-  O434  1  0.15727701  0.06644175  0.85573946  1
  O2-  O435  1  0.16388381  0.32157555  0.19936966  1
  O2-  O436  1  0.15621439  0.32972635  0.50070927  1
  O2-  O437  1  0.15395238  0.32606654  0.85487905  1
  O2-  O438  1  0.17461401  0.58746438  0.15423872  1
  O2-  O439  1  0.16989218  0.57823986  0.52603535  1
  O2-  O440  1  0.15526990  0.58150198  0.84913296  1
  O2-  O441  1  0.17108873  0.84572777  0.18277792  1
  O2-  O442  1  0.19408988  0.87381467  0.54954380  1
  O2-  O443  1  0.16145295  0.82483831  0.85546134  1
  O2-  O444  1  0.42630802  0.07807477  0.17240489  1
  O2-  O445  1  0.41036662  0.09240028  0.51159612  1
  O2-  O446  1  0.39186589  0.06533500  0.84142636  1
  O2-  O447  1  0.40769072  0.32811686  0.19413250  1
  O2-  O448  1  0.41908922  0.34080146  0.51816254  1
  O2-  O449  1  0.40016402  0.32595311  0.86389714  1
  O2-  O450  1  0.40697310  0.58293524  0.19919694  1
  O2-  O451  1  0.37316322  0.49693540  0.51697851  1
  O2-  O452  1  0.38184710  0.57064263  0.86600413  1
  O2-  O453  1  0.42483435  0.84045410  0.19012341  1
  O2-  O454  1  0.40489234  0.85117348  0.51212994  1
  O2-  O455  1  0.41067909  0.81907981  0.85240209  1
  O2-  O456  1  0.66951303  0.07372562  0.19288936  1
  O2-  O457  1  0.66645554  0.07992845  0.51912252  1
  O2-  O458  1  0.65806209  0.06610927  0.85869203  1
  O2-  O459  1  0.66821479  0.33422182  0.18238533  1
  O2-  O460  1  0.66098643  0.32248897  0.50591101  1
  O2-  O461  1  0.65774753  0.32304734  0.85645755  1
  O2-  O462  1  0.68076235  0.57915770  0.19167778  1
  O2-  O463  1  0.67821333  0.58442695  0.49925575  1
  O2-  O464  1  0.67661622  0.56984888  0.85639003  1
  O2-  O465  1  0.67542386  0.82675550  0.18133833  1
  O2-  O466  1  0.64542177  0.82466458  0.49792049  1
  O2-  O467  1  0.67664298  0.83447236  0.86901739  1
  O2-  O468  1  0.91752571  0.06461414  0.18734649  1
  O2-  O469  1  0.92114466  0.08632439  0.51790806  1
  O2-  O470  1  0.91221770  0.07432988  0.86275283  1
  O2-  O471  1  0.93477077  0.35495660  0.19245042  1
  O2-  O472  1  0.91872486  0.35180938  0.52075750  1
  O2-  O473  1  0.91185241  0.32791159  0.81914007  1
  O2-  O474  1  0.89481775  0.56607326  0.17676812  1
  O2-  O475  1  0.94625622  0.60700445  0.51070158  1
  O2-  O476  1  0.92625857  0.59107984  0.85114482  1
  O2-  O477  1  0.92193918  0.84216235  0.18435797  1
  O2-  O478  1  0.91388685  0.84673306  0.48151899  1
  O2-  O479  1  0.92061265  0.82326386  0.84842787  1
  O2-  O480  1  0.18374756  0.08596350  0.31569678  1
  O2-  O481  1  0.14272720  0.07465439  0.65231049  1
  O2-  O482  1  0.16899113  0.08269043  1.00919317  1
  O2-  O483  1  0.18129970  0.33689255  0.32352417  1
  O2-  O484  1  0.20095291  0.40505534  0.64684160  1
  O2-  O485  1  0.16738433  0.33425337  0.97979045  1
  O2-  O486  1  0.17396927  0.57671151  0.29756367  1
  O2-  O487  1  0.17743976  0.59592308  0.63545601  1
  O2-  O488  1  0.14362457  0.57243233  0.98094207  1
  O2-  O489  1  0.17094371  0.82933256  0.30815207  1
  O2-  O490  1  0.15017152  0.72288001  0.65427812  1
  O2-  O491  1  0.16107678  0.82143674  0.97684719  1
  O2-  O492  1  0.41864743  0.06134532  0.29717758  1
  O2-  O493  1  0.36328079  0.04441678  0.65700475  1
  O2-  O494  1  0.38252444  0.05217630  0.97211982  1
  O2-  O495  1  0.41917874  0.35629916  0.31519187  1
  O2-  O496  1  0.41065098  0.34484308  0.64114909  1
  O2-  O497  1  0.41862674  0.34978667  0.98649031  1
  O2-  O498  1  0.42520888  0.59304627  0.32133835  1
  O2-  O499  1  0.40719787  0.57246821  0.61874671  1
  O2-  O500  1  0.41204452  0.57537954  0.98484152  1
  O2-  O501  1  0.43335510  0.84399465  0.31217616  1
  O2-  O502  1  0.40600479  0.81108412  0.63714938  1
  O2-  O503  1  0.42351278  0.83210344  0.97319194  1
  O2-  O504  1  0.70748717  0.10043845  0.32087036  1
  O2-  O505  1  0.66728148  0.08034286  0.64682941  1
  O2-  O506  1  0.69994961  0.13596964  0.96933275  1
  O2-  O507  1  0.66281080  0.33527535  0.30648960  1
  O2-  O508  1  0.66567550  0.32158299  0.62878849  1
  O2-  O509  1  0.66028655  0.33176558  0.98155511  1
  O2-  O510  1  0.67897674  0.59043355  0.30614886  1
  O2-  O511  1  0.70577525  0.54607894  0.60372190  1
  O2-  O512  1  0.67184755  0.58446482  0.98035690  1
  O2-  O513  1  0.60115031  0.79621545  0.29180019  1
  O2-  O514  1  0.76585639  0.94111764  0.63159760  1
  O2-  O515  1  0.65656685  0.81625320  0.98864344  1
  O2-  O516  1  0.91717576  0.10394462  0.30228925  1
  O2-  O517  1  0.90308872  0.10267387  0.64084330  1
  O2-  O518  1  0.92195386  0.08141651  0.98554635  1
  O2-  O519  1  0.90473296  0.32158330  0.31903036  1
  O2-  O520  1  0.93639129  0.33626496  0.63916156  1
  O2-  O521  1  0.92086489  0.32273278  0.98711542  1
  O2-  O522  1  0.91528319  0.57359264  0.30224827  1
  O2-  O523  1  0.92684326  0.58953837  0.63825183  1
  O2-  O524  1  0.91301152  0.57827866  0.97812320  1
  O2-  O525  1  0.92942962  0.82935334  0.30235149  1
  O2-  O526  1  0.92253213  0.82189772  0.65467669  1
  O2-  O527  1  0.92981044  0.82189426  0.97323462  1
  O2-  O528  1  0.08482593  0.16765992  0.02456338  1
  O2-  O529  1  0.12718061  0.18257353  0.37412221  1
  O2-  O530  1  0.04913474  0.13692993  0.70313590  1
  O2-  O531  1  0.08190116  0.40792009  0.02507900  1
  O2-  O532  1  0.08257886  0.41175823  0.35306788  1
  O2-  O533  1  0.08460381  0.42281286  0.69710321  1
  O2-  O534  1  0.07746649  0.66356294  0.02402401  1
  O2-  O535  1  0.08922150  0.65408106  0.33009902  1
  O2-  O536  1  0.07548599  0.70291501  0.69226979  1
  O2-  O537  1  0.07939051  0.90396746  0.02222763  1
  O2-  O538  1  0.09330574  0.91087184  0.34857091  1
  O2-  O539  1  0.07407341  0.90311927  0.68659413  1
  O2-  O540  1  0.35063317  0.19748946  0.03138474  1
  O2-  O541  1  0.33658307  0.19172115  0.36645663  1
  O2-  O542  1  0.31099391  0.17838216  0.68148711  1
  O2-  O543  1  0.32702503  0.41864378  0.03035901  1
  O2-  O544  1  0.34586343  0.43909812  0.35921665  1
  O2-  O545  1  0.34364369  0.43204909  0.69505292  1
  O2-  O546  1  0.36026089  0.68594206  0.02977030  1
  O2-  O547  1  0.32769308  0.66664299  0.33907135  1
  O2-  O548  1  0.32905227  0.64713519  0.67764711  1
  O2-  O549  1  0.32757118  0.89895586  0.01843177  1
  O2-  O550  1  0.33088900  0.90676865  0.35305556  1
  O2-  O551  1  0.30316388  0.86002361  0.68649184  1
  O2-  O552  1  0.56061762  0.15819009  -0.02378860  1
  O2-  O553  1  0.55637859  0.17145342  0.34829467  1
  O2-  O554  1  0.56575237  0.15365332  0.67727813  1
  O2-  O555  1  0.58050932  0.41694515  0.02136798  1
  O2-  O556  1  0.58663162  0.42476121  0.34676755  1
  O2-  O557  1  0.57792830  0.40487956  0.61744480  1
  O2-  O558  1  0.59442233  0.66613342  0.01648994  1
  O2-  O559  1  0.51812690  0.63610694  0.33377011  1
  O2-  O560  1  0.51151372  0.62806047  0.73740655  1
  O2-  O561  1  0.58324492  0.89603795  0.02329650  1
  O2-  O562  1  0.59501857  0.93078601  0.35584136  1
  O2-  O563  1  0.55928476  0.92821262  0.69777272  1
  O2-  O564  1  0.83238470  0.15620591  0.02580927  1
  O2-  O565  1  0.79784941  0.13869358  0.34082849  1
  O2-  O566  1  0.82054830  0.17104673  0.70184075  1
  O2-  O567  1  0.83208003  0.41193934  0.01409273  1
  O2-  O568  1  0.82929748  0.41372410  0.35323919  1
  O2-  O569  1  0.81469852  0.42883361  0.68176887  1
  O2-  O570  1  0.82971364  0.65761188  0.01782364  1
  O2-  O571  1  0.84684564  0.66501995  0.34686843  1
  O2-  O572  1  0.82918786  0.65305721  0.67715517  1
  O2-  O573  1  0.82907848  0.92242918  0.02730640  1
  O2-  O574  1  0.88689822  0.91514025  0.37792724  1
  O2-  O575  1  0.86595368  0.90813679  0.70316965  1
