# generated using pymatgen
data_H2O
_symmetry_space_group_name_H-M   'P 1'
_cell_length_a   17.95155966
_cell_length_b   17.94343202
_cell_length_c   21.98164787
_cell_angle_alpha   90.01756975
_cell_angle_beta   89.98978986
_cell_angle_gamma   120.04733093
_symmetry_Int_Tables_number   1
_chemical_formula_structural   H2O
_chemical_formula_sum   'H384 O192'
_cell_volume   6129.02268773
_cell_formula_units_Z   192
loop_
 _symmetry_equiv_pos_site_id
 _symmetry_equiv_pos_as_xyz
  1  'x, y, z'
loop_
 _atom_type_symbol
 _atom_type_oxidation_number
  H+  1.0
  O2-  -2.0
loop_
 _atom_site_type_symbol
 _atom_site_label
 _atom_site_symmetry_multiplicity
 _atom_site_fract_x
 _atom_site_fract_y
 _atom_site_fract_z
 _atom_site_occupancy
  H+  H0  1  0.37425046  0.10686202  0.83289382  1
  H+  H1  1  0.37657711  0.36624521  0.18789117  1
  H+  H2  1  0.14063707  0.61040500  0.50080876  1
  H+  H3  1  0.95045995  0.66637333  0.51803364  1
  H+  H4  1  0.00632840  0.79857055  0.78473108  1
  H+  H5  1  0.61574268  0.01745967  0.83631536  1
  H+  H6  1  0.76203308  0.89307548  0.48729364  1
  H+  H7  1  0.11117250  0.88813192  0.01198266  1
  H+  H8  1  0.12152861  0.42602758  0.16096981  1
  H+  H9  1  0.23729526  0.62425230  0.65842394  1
  H+  H10  1  0.12020858  0.29980834  0.17036326  1
  H+  H11  1  0.93131814  0.13882760  0.65221383  1
  H+  H12  1  0.90355741  0.79866771  0.83999926  1
  H+  H13  1  0.81916168  0.40587307  0.06585925  1
  H+  H14  1  0.60670728  0.62020532  1.01430350  1
  H+  H15  1  0.36864167  0.88476118  0.67160676  1
  H+  H16  1  0.72372652  0.85958394  0.99783961  1
  H+  H17  1  0.85336240  -0.02473338  0.33501871  1
  H+  H18  1  0.34843352  0.89738199  0.33389245  1
  H+  H19  1  0.17603861  0.30819153  0.84293306  1
  H+  H20  1  0.14232929  0.25772373  0.33895696  1
  H+  H21  1  0.70111078  0.55288436  0.99571042  1
  H+  H22  1  0.87581650  0.61721359  0.32622204  1
  H+  H23  1  0.40330166  0.34094534  0.77126648  1
  H+  H24  1  0.40388194  0.16087183  0.49747913  1
  H+  H25  1  0.50530126  0.63254196  0.33914230  1
  H+  H26  1  0.08680041  0.98192333  0.35478660  1
  H+  H27  1  0.78018400  0.08543792  0.04860015  1
  H+  H28  1  0.46773470  0.61958063  0.50849253  1
  H+  H29  1  0.37079877  0.24243835  1.01900185  1
  H+  H30  1  0.38135826  0.49046786  0.00523523  1
  H+  H31  1  0.22254061  0.36738217  0.65770391  1
  H+  H32  1  0.11321424  0.63547482  0.67205979  1
  H+  H33  1  0.41007187  0.56985375  0.23115860  1
  H+  H34  1  0.63128273  0.90325792  1.01535384  1
  H+  H35  1  0.46750176  0.36814270  0.18786074  1
  H+  H36  1  0.61918325  0.36174724  0.18353345  1
  H+  H37  1  0.62110066  0.76827124  0.32756313  1
  H+  H38  1  0.10949374  0.63554793  0.82565735  1
  H+  H39  1  0.22434441  0.35173915  0.34591621  1
  H+  H40  1  0.38485958  0.58607421  0.98676495  1
  H+  H41  1  0.97523812  0.38274073  0.83959537  1
  H+  H42  1  0.89880419  0.11417379  0.33149927  1
  H+  H43  1  0.72125119  0.35746397  0.65686046  1
  H+  H44  1  -0.01925299  0.87817613  -0.00081849  1
  H+  H45  1  0.55254141  0.58387848  0.69572589  1
  H+  H46  1  0.70196889  0.62121918  0.51679148  1
  H+  H47  1  0.60625789  0.38696967  0.35264472  1
  H+  H48  1  -0.03162997  0.61629034  0.66049217  1
  H+  H49  1  0.88052513  0.03491328  0.49591966  1
  H+  H50  1  0.14120249  0.75783438  0.66390169  1
  H+  H51  1  0.12759616  0.22748181  0.66095247  1
  H+  H52  1  0.77718629  0.15778711  0.16818245  1
  H+  H53  1  0.19449435  1.03822605  0.49294120  1
  H+  H54  1  0.23207663  0.10852422  1.03140336  1
  H+  H55  1  0.35581787  0.46885958  0.16170445  1
  H+  H56  1  0.44452319  0.12243033  0.32749089  1
  H+  H57  1  0.60176079  0.73269598  0.49283368  1
  H+  H58  1  0.85581248  0.47841911  0.83254376  1
  H+  H59  1  0.10157696  0.62618145  0.00629068  1
  H+  H60  1  0.63320153  0.12097328  0.17544010  1
  H+  H61  1  1.04256321  0.13625686  0.65284725  1
  H+  H62  1  0.59004693  0.12836284  0.82462438  1
  H+  H63  1  0.47464739  0.85585971  0.50879262  1
  H+  H64  1  0.36111100  0.39092003  0.35307651  1
  H+  H65  1  1.02278889  0.26021914  0.69193458  1
  H+  H66  1  0.13316456  0.52951906  0.83834095  1
  H+  H67  1  0.61279083  -0.01019528  0.16553310  1
  H+  H68  1  0.64518836  0.86972750  0.65942942  1
  H+  H69  1  0.60868307  0.63917353  0.16503398  1
  H+  H70  1  0.39153099  0.78332530  0.17442390  1
  H+  H71  1  0.48261151  0.86480662  0.66152607  1
  H+  H72  1  1.03328356  0.41053477  0.66696969  1
  H+  H73  1  0.65356141  0.56171436  0.93466699  1
  H+  H74  1  0.14467706  0.01814708  0.64546588  1
  H+  H75  1  0.87476204  0.74828110  0.00783758  1
  H+  H76  1  0.52112908  0.38263014  0.82090520  1
  H+  H77  1  0.21366356  0.37958356  0.17254982  1
  H+  H78  1  0.85481443  0.35280609  0.34802218  1
  H+  H79  1  0.20896064  0.11800067  0.19777050  1
  H+  H80  1  0.99093071  0.84906507  0.18510650  1
  H+  H81  1  0.34760740  0.14753571  0.18617546  1
  H+  H82  1  0.72704919  0.12780788  0.98074827  1
  H+  H83  1  0.26581801  0.36841764  0.00763531  1
  H+  H84  1  0.46066715  0.11616943  0.14235763  1
  H+  H85  1  0.02487597  0.12059611  0.01219005  1
  H+  H86  1  -0.04035180  0.86315440  0.34183362  1
  H+  H87  1  0.19748096  0.57159223  0.16489455  1
  H+  H88  1  0.72424032  0.11369689  0.32401406  1
  H+  H89  1  0.58667484  0.45447165  0.00817438  1
  H+  H90  1  0.33219134  0.64356794  -0.07387368  1
  H+  H91  1  0.08043001  0.90057795  0.70622033  1
  H+  H92  1  0.60308674  0.72658220  0.16111831  1
  H+  H93  1  0.86715208  0.15410696  0.48244834  1
  H+  H94  1  0.62447769  0.41892402  0.51415245  1
  H+  H95  1  0.76662235  0.86087185  0.82769283  1
  H+  H96  1  0.72420883  0.36050974  0.50413125  1
  H+  H97  1  0.87589386  0.60170306  0.16106134  1
  H+  H98  1  0.85305847  0.73235218  0.66279431  1
  H+  H99  1  0.76478089  0.64468985  0.67685178  1
  H+  H100  1  0.65866920  0.78851853  0.66257193  1
  H+  H101  1  0.12758746  0.77130230  0.99197254  1
  H+  H102  1  0.36659508  0.72882297  0.50227203  1
  H+  H103  1  0.82809151  0.62992099  0.49649721  1
  H+  H104  1  0.11697850  0.78165919  0.32734095  1
  H+  H105  1  0.51952312  0.38426364  0.67531142  1
  H+  H106  1  0.81252637  0.02919424  0.86861402  1
  H+  H107  1  0.66590756  0.09162524  0.23433272  1
  H+  H108  1  0.35159006  0.36198439  1.01291858  1
  H+  H109  1  1.01523373  0.64480208  0.33727867  1
  H+  H110  1  0.87319833  0.52533881  0.99717140  1
  H+  H111  1  0.10686325  0.15042288  0.17327522  1
  H+  H112  1  0.19750065  0.12009336  0.33629723  1
  H+  H113  1  0.12623343  0.49714306  0.67003056  1
  H+  H114  1  0.38546440  0.85682093  0.51485349  1
  H+  H115  1  0.10743362  0.22250348  0.48633023  1
  H+  H116  1  0.00290406  0.60803650  0.15270359  1
  H+  H117  1  0.38472707  0.11008456  0.66504960  1
  H+  H118  1  0.83162415  0.72097527  0.49032666  1
  H+  H119  1  0.10871342  0.39808516  0.81406886  1
  H+  H120  1  0.63247988  0.77188510  0.00248034  1
  H+  H121  1  0.68267397  0.92371613  0.80217556  1
  H+  H122  1  0.60669469  0.23522549  0.67370146  1
  H+  H123  1  0.91159391  0.82626801  0.27900851  1
  H+  H124  1  0.77396030  0.15256508  0.82108521  1
  H+  H125  1  0.61308037  0.14493621  1.00335097  1
  H+  H126  1  0.59506137  0.84180069  0.92465540  1
  H+  H127  1  1.01087274  0.62757800  1.00780795  1
  H+  H128  1  0.11305164  0.21227491  0.01220626  1
  H+  H129  1  0.11619867  0.37557720  0.34483335  1
  H+  H130  1  0.28001794  0.88067766  0.50571522  1
  H+  H131  1  0.72054809  0.36425049  1.00099656  1
  H+  H132  1  0.37050972  0.72962119  0.67346701  1
  H+  H133  1  0.77464087  0.14387782  0.48488146  1
  H+  H134  1  0.14134061  0.52185432  0.50463343  1
  H+  H135  1  0.63227530  0.11120868  0.32632820  1
  H+  H136  1  0.26026660  0.88260629  -0.00138185  1
  H+  H137  1  0.59422132  0.63254638  0.34158824  1
  H+  H138  1  0.36724777  0.88585102  0.82056848  1
  H+  H139  1  0.41143129  0.08114908  0.89037144  1
  H+  H140  1  0.13322700  0.34456210  0.99109049  1
  H+  H141  1  0.32383041  0.22017910  0.34441752  1
  H+  H142  1  0.70919906  0.61221582  0.32993294  1
  H+  H143  1  0.02494899  0.39112042  0.49165008  1
  H+  H144  1  0.85616141  0.38521635  0.66187461  1
  H+  H145  1  0.62789394  0.86439349  0.50461482  1
  H+  H146  1  0.22691682  0.86006415  0.84033763  1
  H+  H147  1  0.70677179  0.35909030  0.18342298  1
  H+  H148  1  0.67255290  0.78721706  0.81240602  1
  H+  H149  1  0.47943870  0.37660931  0.52200752  1
  H+  H150  1  0.88460411  -0.00158169  0.66165199  1
  H+  H151  1  0.88618004  0.01620323  1.00251551  1
  H+  H152  1  0.85632756  0.48693595  0.48861341  1
  H+  H153  1  0.85439801  0.38572129  0.83023588  1
  H+  H154  1  0.10373814  0.64336778  0.33409317  1
  H+  H155  1  0.61020065  0.97726526  0.33895690  1
  H+  H156  1  0.37112257  0.64221206  0.68104832  1
  H+  H157  1  0.13876949  0.84928241  0.51202090  1
  H+  H158  1  0.13574232  0.75808374  0.50818859  1
  H+  H159  1  0.25871103  0.89489943  0.33454748  1
  H+  H160  1  0.78131011  0.66960973  0.00517314  1
  H+  H161  1  0.90636220  0.29792734  0.17574675  1
  H+  H162  1  0.71769055  0.61061490  0.17859354  1
  H+  H163  1  0.61240123  0.62005076  0.51530399  1
  H+  H164  1  0.35246039  0.23956601  0.19349727  1
  H+  H165  1  0.38248697  1.02044703  -0.01244956  1
  H+  H166  1  0.27245271  0.12633516  0.66749643  1
  H+  H167  1  0.86638741  0.22397620  0.33052874  1
  H+  H168  1  0.34940292  0.88374321  -0.00343566  1
  H+  H169  1  0.50281281  0.35936938  1.01402959  1
  H+  H170  1  0.37173885  0.51790905  0.32902142  1
  H+  H171  1  0.08011580  0.39909699  0.93323030  1
  H+  H172  1  0.85835741  0.37457162  0.16053383  1
  H+  H173  1  0.89496449  0.66257170  0.81616389  1
  H+  H174  1  0.86726920  0.12270065  1.01432398  1
  H+  H175  1  0.94187324  0.84976702  0.48364687  1
  H+  H176  1  0.22445097  0.86084219  0.16960803  1
  H+  H177  1  0.59756217  0.22593577  0.16505583  1
  H+  H178  1  0.58487817  0.41824577  0.76471654  1
  H+  H179  1  0.35938157  0.73493661  0.30035902  1
  H+  H180  1  0.98560952  0.36164129  0.32849474  1
  H+  H181  1  0.32051692  0.13047816  0.33347234  1
  H+  H182  1  0.93711419  0.25732762  0.83713311  1
  H+  H183  1  0.79544103  0.91234567  0.67651664  1
  H+  H184  1  1.07410192  0.93404964  0.51246678  1
  H+  H185  1  0.87049312  0.51053119  0.17046853  1
  H+  H186  1  0.62196863  0.35941934  0.00411694  1
  H+  H187  1  0.31579779  0.17373053  0.10607107  1
  H+  H188  1  0.13487744  0.77275696  0.17062453  1
  H+  H189  1  0.34770778  0.60783400  0.83835950  1
  H+  H190  1  0.61135375  0.97149469  0.49104376  1
  H+  H191  1  0.36200700  0.70976982  0.84453656  1
  H+  H192  1  0.35543748  0.12444383  0.07945171  1
  H+  H193  1  0.15731226  0.83072896  0.93202189  1
  H+  H194  1  0.71136314  0.85804730  0.32426204  1
  H+  H195  1  0.63697598  0.36609989  0.83018023  1
  H+  H196  1  0.36867636  0.62869243  0.50432370  1
  H+  H197  1  0.62355336  0.31117740  0.48751019  1
  H+  H198  1  0.51288649  0.14574833  0.82137681  1
  H+  H199  1  0.13419446  0.56102330  0.26188697  1
  H+  H200  1  0.31607709  0.15861951  0.48858178  1
  H+  H201  1  0.02042999  0.88861010  0.65047305  1
  H+  H202  1  0.86543107  0.71360777  0.16600763  1
  H+  H203  1  0.51045701  0.13694731  0.67632410  1
  H+  H204  1  0.09272999  0.59913375  0.15081416  1
  H+  H205  1  0.40106816  0.28114678  0.51536891  1
  H+  H206  1  0.75976366  0.89398362  0.15816858  1
  H+  H207  1  0.49788242  0.77918886  0.92767621  1
  H+  H208  1  0.09444339  0.89629093  0.34553470  1
  H+  H209  1  0.61411593  0.97365499  0.65774024  1
  H+  H210  1  0.37088571  0.60528043  0.30932234  1
  H+  H211  1  0.13979598  0.01686550  1.01428049  1
  H+  H212  1  0.62624523  0.26619218  1.00012081  1
  H+  H213  1  0.11085473  0.72424799  0.82598066  1
  H+  H214  1  0.60413303  0.88502953  0.33794896  1
  H+  H215  1  0.10894381  0.98179918  0.16994978  1
  H+  H216  1  0.86108778  0.86417248  0.49047915  1
  H+  H217  1  0.13399023  0.08152411  0.24714427  1
  H+  H218  1  0.36387543  -0.02604760  0.82265382  1
  H+  H219  1  0.31463722  0.36462537  0.82361567  1
  H+  H220  1  0.35974392  0.21884614  0.67546404  1
  H+  H221  1  0.47249076  0.60632583  0.17189678  1
  H+  H222  1  0.36488882  0.39196693  0.50690217  1
  H+  H223  1  0.58298109  0.17454493  0.10189408  1
  H+  H224  1  0.37219489  0.02621897  0.14047182  1
  H+  H225  1  0.99462365  1.03026930  0.79137106  1
  H+  H226  1  0.87995517  0.61939669  0.65999617  1
  H+  H227  1  0.76936371  0.31044055  0.13274655  1
  H+  H228  1  0.47820299  0.87498882  0.16972301  1
  H+  H229  1  0.97288607  0.12051415  0.17713619  1
  H+  H230  1  0.37896450  0.52715437  0.51228847  1
  H+  H231  1  0.88168221  0.61932860  0.99600281  1
  H+  H232  1  0.12068096  0.89792225  0.16363583  1
  H+  H233  1  0.15294456  0.11167768  0.64416135  1
  H+  H234  1  0.02271216  0.62113480  0.48742752  1
  H+  H235  1  0.92627366  0.16299544  0.84123236  1
  H+  H236  1  0.56168976  0.67700277  0.85112466  1
  H+  H237  1  0.13906988  0.11310410  1.01609857  1
  H+  H238  1  0.47047150  0.87079383  0.32790142  1
  H+  H239  1  0.55096628  0.90795074  -0.00226539  1
  H+  H240  1  0.62200014  0.52180734  0.33238877  1
  H+  H241  1  0.11777727  0.46683395  0.33647260  1
  H+  H242  1  0.10600365  0.16546607  0.81736591  1
  H+  H243  1  0.07104617  0.25660649  0.85243404  1
  H+  H244  1  0.84944873  0.47023739  0.66305406  1
  H+  H245  1  0.85021963  0.38449800  0.00421658  1
  H+  H246  1  0.33080673  0.67275993  0.24334690  1
  H+  H247  1  0.74883992  0.37848068  0.83033018  1
  H+  H248  1  0.64160797  0.60904037  0.85172529  1
  H+  H249  1  0.60321988  0.47705714  0.16735435  1
  H+  H250  1  0.64932514  0.82739185  0.23328655  1
  H+  H251  1  0.40794846  0.56585278  0.75781995  1
  H+  H252  1  0.65196045  0.32928028  0.27833830  1
  H+  H253  1  0.35286163  0.61290554  0.16382628  1
  H+  H254  1  0.38379292  0.10880457  0.98469178  1
  H+  H255  1  0.78070636  0.14954005  0.78752111  1
  H+  H256  1  0.46552524  0.35912069  0.34517108  1
  H+  H257  1  1.10340456  0.14140503  0.74705668  1
  H+  H258  1  0.63864967  0.27592060  0.83015152  1
  H+  H259  1  0.89395160  0.02736379  0.84018826  1
  H+  H260  1  0.63123349  0.51512053  0.84608255  1
  H+  H261  1  0.69901615  0.10881846  0.64771435  1
  H+  H262  1  0.30391495  0.44731072  0.81692516  1
  H+  H263  1  0.72312088  0.03558704  0.51938555  1
  H+  H264  1  0.35957056  0.89013230  0.15555911  1
  H+  H265  1  0.63170676  0.19832095  0.49895446  1
  H+  H266  1  0.60717446  0.49684740  0.50779409  1
  H+  H267  1  0.44496626  0.82251419  0.78248794  1
  H+  H268  1  0.19417076  0.11352100  0.81154141  1
  H+  H269  1  0.52077446  0.13991047  1.00305916  1
  H+  H270  1  0.37797249  0.35488484  0.66698863  1
  H+  H271  1  0.88690262  0.12475245  0.18311100  1
  H+  H272  1  0.07934105  0.66155372  0.42741330  1
  H+  H273  1  0.85930325  0.88926631  1.01096577  1
  H+  H274  1  0.59916951  0.21618068  0.34450234  1
  H+  H275  1  0.84000742  0.18269209  0.11111669  1
  H+  H276  1  1.03976208  0.88760322  0.81255221  1
  H+  H277  1  0.97549278  0.77223815  0.22674777  1
  H+  H278  1  0.71252523  0.34611190  0.33624947  1
  H+  H279  1  0.21296244  0.59818232  0.98758420  1
  H+  H280  1  0.47682301  0.84269234  0.85036061  1
  H+  H281  1  0.10518055  0.46563932  -0.01465782  1
  H+  H282  1  0.88821294  0.37198441  0.50789421  1
  H+  H283  1  0.96506146  0.35474919  0.98860399  1
  H+  H284  1  0.62742018  0.10919079  0.48985318  1
  H+  H285  1  -0.02551156  0.60849908  0.84001382  1
  H+  H286  1  0.60937458  0.38515532  0.67221045  1
  H+  H287  1  0.22384470  0.61417687  0.85322732  1
  H+  H288  1  0.41930876  0.85634748  0.26610699  1
  H+  H289  1  0.64339691  0.03903867  0.99345040  1
  H+  H290  1  0.13877636  0.37666234  0.65738430  1
  H+  H291  1  0.91304814  0.58493124  0.89857340  1
  H+  H292  1  0.88877389  0.87492395  0.64945062  1
  H+  H293  1  0.32398906  0.66055708  0.11560531  1
  H+  H294  1  0.15371568  0.29555548  0.93932435  1
  H+  H295  1  0.08168777  0.17197003  0.10968272  1
  H+  H296  1  0.80600932  0.65710573  0.40064137  1
  H+  H297  1  0.58145627  0.42339069  0.41114747  1
  H+  H298  1  0.33213550  0.91090946  0.73049226  1
  H+  H299  1  0.82799489  0.41258580  0.43737865  1
  H+  H300  1  0.36091432  1.03339385  0.32097083  1
  H+  H301  1  1.03166691  0.10943007  0.33566884  1
  H+  H302  1  0.08430177  0.91893501  0.07447659  1
  H+  H303  1  0.56907330  0.64449972  0.78568567  1
  H+  H304  1  0.62195986  0.86202253  0.17520226  1
  H+  H305  1  0.62888083  0.52572042  0.66793522  1
  H+  H306  1  0.31540707  0.14934729  0.76152389  1
  H+  H307  1  0.92717561  0.09763377  0.58512966  1
  H+  H308  1  0.43190295  0.08397095  0.56995965  1
  H+  H309  1  0.58552317  0.93341532  0.10463170  1
  H+  H310  1  0.66649670  0.06556016  0.58141292  1
  H+  H311  1  0.81832132  0.92111623  0.42540968  1
  H+  H312  1  0.62334577  0.06814946  0.89710249  1
  H+  H313  1  0.84618854  0.88287790  0.33768680  1
  H+  H314  1  0.42063663  0.83133363  0.60321994  1
  H+  H315  1  0.92495243  0.34110637  0.59678120  1
  H+  H316  1  0.82869378  0.66987511  0.10113557  1
  H+  H317  1  0.32073388  0.39960908  0.10774124  1
  H+  H318  1  0.36406559  0.46766770  0.69271078  1
  H+  H319  1  0.92291477  0.29693079  0.66091369  1
  H+  H320  1  0.06753056  0.64257201  0.08751526  1
  H+  H321  1  0.97315442  0.12172257  0.49394980  1
  H+  H322  1  0.64536853  0.59152333  0.61436032  1
  H+  H323  1  0.15017548  0.57998896  0.93248558  1
  H+  H324  1  0.57563287  0.17369816  0.73961443  1
  H+  H325  1  0.36083457  0.69153787  -0.00757004  1
  H+  H326  1  0.41377921  0.32995210  0.60851654  1
  H+  H327  1  0.08491116  0.15203847  0.43452330  1
  H+  H328  1  0.16085686  0.33113209  0.56126823  1
  H+  H329  1  0.49195749  0.09950611  0.51194864  1
  H+  H330  1  0.08099048  0.66431251  0.73194176  1
  H+  H331  1  0.92278727  0.85041095  0.93825952  1
  H+  H332  1  0.83243411  0.16988214  0.39151651  1
  H+  H333  1  0.14779783  0.84107484  0.26825241  1
  H+  H334  1  0.82241992  0.91883755  0.06860927  1
  H+  H335  1  0.88494157  0.28139359  0.50053386  1
  H+  H336  1  0.95799665  0.22211108  0.74614461  1
  H+  H337  1  0.17315914  0.81716028  0.59790666  1
  H+  H338  1  0.84958751  0.98330865  0.15841325  1
  H+  H339  1  0.24118807  0.85424561  0.66087626  1
  H+  H340  1  0.38666469  0.28104657  0.95160437  1
  H+  H341  1  0.91254891  0.34128617  0.89851837  1
  H+  H342  1  0.89953756  0.83512765  0.58701088  1
  H+  H343  1  0.92855907  0.34603660  0.26830903  1
  H+  H344  1  0.87462578  0.26900555  0.99503417  1
  H+  H345  1  0.86744200  0.69536518  0.75656195  1
  H+  H346  1  0.60560524  0.92972355  0.72267917  1
  H+  H347  1  0.20276998  0.09030323  0.55252859  1
  H+  H348  1  0.21324415  0.61204965  0.30481262  1
  H+  H349  1  0.36981261  0.96979059  0.50527584  1
  H+  H350  1  0.57699865  0.65487479  0.07274782  1
  H+  H351  1  0.13207334  0.84727895  0.83156867  1
  H+  H352  1  0.33487650  0.42533614  0.41160724  1
  H+  H353  1  0.27318590  0.63605622  0.49819834  1
  H+  H354  1  0.57656766  0.15007656  0.39924542  1
  H+  H355  1  0.92187367  0.08351532  0.27072995  1
  H+  H356  1  0.57346013  0.91039846  0.43184206  1
  H+  H357  1  0.91265917  0.07508789  0.94347814  1
  H+  H358  1  0.84348973  0.72346798  0.34534425  1
  H+  H359  1  0.40953297  0.33802727  0.28498307  1
  H+  H360  1  0.91159116  0.59697311  0.57051458  1
  H+  H361  1  0.66712973  0.83970981  0.56301112  1
  H+  H362  1  0.90529750  0.96935762  0.75504406  1
  H+  H363  1  0.65592754  0.58225613  0.23785935  1
  H+  H364  1  0.98924359  0.39549561  0.17310847  1
  H+  H365  1  0.90776983  0.59013475  0.26688688  1
  H+  H366  1  0.56700494  0.66880864  0.43462787  1
  H+  H367  1  0.29935319  0.39044937  0.73420046  1
  H+  H368  1  0.71650450  1.01900654  0.77848489  1
  H+  H369  1  0.08199325  0.43462436  0.75846631  1
  H+  H370  1  0.27366756  0.38841420  0.50136683  1
  H+  H371  1  0.48149350  0.59159760  1.00759330  1
  H+  H372  1  0.77768255  0.29169073  0.38935512  1
  H+  H373  1  0.32221692  0.90759878  0.09432970  1
  H+  H374  1  0.13597187  0.36307223  0.50133951  1
  H+  H375  1  0.08557555  0.41767106  0.43239960  1
  H+  H376  1  0.65334742  0.32114593  0.60140479  1
  H+  H377  1  0.38918922  0.02210608  0.66483020  1
  H+  H378  1  0.17603035  0.59325142  0.59843152  1
  H+  H379  1  0.56824293  0.41132453  0.11043835  1
  H+  H380  1  0.92276774  0.89699510  0.83818425  1
  H+  H381  1  0.08461371  0.91765772  0.44095419  1
  H+  H382  1  0.36807015  0.26658199  0.81831128  1
  H+  H383  1  0.41370924  0.55260501  0.84332247  1
  O2-  O384  1  0.07829562  0.18000905  0.15392710  1
  O2-  O385  1  0.06972918  0.16094851  0.47580958  1
  O2-  O386  1  0.09909776  0.11905338  0.78952485  1
  O2-  O387  1  0.09140761  0.46005896  0.14594558  1
  O2-  O388  1  0.08625304  0.42048687  0.47814642  1
  O2-  O389  1  0.07903971  0.42988715  0.80499622  1
  O2-  O390  1  0.06550702  0.63528708  0.13705595  1
  O2-  O391  1  0.08241392  0.65647673  0.47320919  1
  O2-  O392  1  0.07778780  0.66414908  0.80961046  1
  O2-  O393  1  0.08490524  0.92335386  0.15044110  1
  O2-  O394  1  0.09848570  0.91018561  0.48434120  1
  O2-  O395  1  0.06002025  0.85638761  0.78684411  1
  O2-  O396  1  0.31506755  0.17767428  0.17950345  1
  O2-  O397  1  0.37977524  0.19664739  0.48311992  1
  O2-  O398  1  0.32047090  0.15756455  0.80806296  1
  O2-  O399  1  0.32066595  0.40573313  0.15247924  1
  O2-  O400  1  0.33636731  0.42377093  0.49085650  1
  O2-  O401  1  0.27203365  0.38174757  0.81188976  1
  O2-  O402  1  0.31518815  0.64025956  0.15753954  1
  O2-  O403  1  0.33626980  0.66637052  0.48645983  1
  O2-  O404  1  0.32796848  0.65034684  0.86067258  1
  O2-  O405  1  0.32302105  0.91327966  0.13928356  1
  O2-  O406  1  0.34136985  0.90742566  0.49524360  1
  O2-  O407  1  0.33273495  0.91257354  0.80855935  1
  O2-  O408  1  0.57451746  0.16756542  0.14653902  1
  O2-  O409  1  0.59683793  0.14107827  0.48047618  1
  O2-  O410  1  0.57463946  0.17199283  0.80778847  1
  O2-  O411  1  0.57074845  0.41450961  0.15544796  1
  O2-  O412  1  0.58771285  0.43612616  0.49287286  1
  O2-  O413  1  0.58320404  0.41414658  0.81067651  1
  O2-  O414  1  0.57611255  0.66512743  0.14609048  1
  O2-  O415  1  0.56744272  0.67066473  0.48028054  1
  O2-  O416  1  0.60388435  0.67966032  0.82206498  1
  O2-  O417  1  0.58009472  0.92904181  0.14955277  1
  O2-  O418  1  0.57387799  0.90900335  0.47750611  1
  O2-  O419  1  0.66465875  0.96737462  0.79235737  1
  O2-  O420  1  0.83934710  0.19046721  0.15555250  1
  O2-  O421  1  0.83504789  0.18338064  0.46805774  1
  O2-  O422  1  0.96370060  0.22243160  0.82490706  1
  O2-  O423  1  0.80574336  0.37239073  0.13988944  1
  O2-  O424  1  0.82772428  0.42446357  0.48182572  1
  O2-  O425  1  0.82262873  0.41633839  0.81820600  1
  O2-  O426  1  0.82699284  0.65738913  0.14547399  1
  O2-  O427  1  0.79738482  0.65805574  0.47957679  1
  O2-  O428  1  0.90008309  0.71410732  0.79571759  1
  O2-  O429  1  0.81761423  0.92541983  0.13931411  1
  O2-  O430  1  0.82258236  0.92301751  0.47123585  1
  O2-  O431  1  0.93256621  0.98486473  0.79645762  1
  O2-  O432  1  0.14502944  0.08261029  0.20234967  1
  O2-  O433  1  0.21236866  0.09608206  0.50786403  1
  O2-  O434  1  0.23463040  0.10054509  0.83420752  1
  O2-  O435  1  0.15223876  0.36268477  0.17716191  1
  O2-  O436  1  0.16531797  0.33164883  0.51623851  1
  O2-  O437  1  0.12627337  0.26195188  0.86639959  1
  O2-  O438  1  0.13502624  0.54546671  0.17610306  1
  O2-  O439  1  0.17226060  0.58348656  0.51932631  1
  O2-  O440  1  0.15949418  0.58697807  0.85860956  1
  O2-  O441  1  0.16302570  0.83253906  0.18457115  1
  O2-  O442  1  0.16464310  0.81549266  0.52870849  1
  O2-  O443  1  0.16674847  0.82823967  0.85630319  1
  O2-  O444  1  0.39826144  0.08903528  0.13291450  1
  O2-  O445  1  0.43205975  0.08051915  0.52503055  1
  O2-  O446  1  0.41040475  0.08118856  0.84524887  1
  O2-  O447  1  0.40927143  0.34022078  0.20680189  1
  O2-  O448  1  0.41877534  0.34012867  0.53508097  1
  O2-  O449  1  0.39963263  0.33106840  0.81520663  1
  O2-  O450  1  0.41069586  0.57211691  0.18507307  1
  O2-  O451  1  0.40667445  0.58988626  0.52393511  1
  O2-  O452  1  0.36964082  0.54980231  0.81592588  1
  O2-  O453  1  0.41624628  0.84454599  0.18397655  1
  O2-  O454  1  0.41582882  0.82337964  0.52770215  1
  O2-  O455  1  0.42562820  0.82307120  0.82392887  1
  O2-  O456  1  0.66868970  0.09508028  0.18830122  1
  O2-  O457  1  0.68860926  0.06361990  0.51577890  1
  O2-  O458  1  0.59210668  0.04915144  0.85809453  1
  O2-  O459  1  0.64708872  0.32857988  0.19859837  1
  O2-  O460  1  0.66457711  0.31910286  0.51950879  1
  O2-  O461  1  0.67067775  0.33761560  0.84373973  1
  O2-  O462  1  0.65665656  0.58216929  0.19186822  1
  O2-  O463  1  0.64296129  0.59207660  0.53489303  1
  O2-  O464  1  0.66041694  0.57028903  0.86931503  1
  O2-  O465  1  0.64931482  0.82793000  0.18743452  1
  O2-  O466  1  0.66221013  0.83633773  0.51794740  1
  O2-  O467  1  0.71233966  0.85083194  0.81091548  1
  O2-  O468  1  0.91239428  0.08846707  0.19319031  1
  O2-  O469  1  0.91163882  0.09560748  0.51034920  1
  O2-  O470  1  0.87525540  0.06003913  0.86871038  1
  O2-  O471  1  0.92892737  0.35880930  0.18920074  1
  O2-  O472  1  0.91833916  0.34049321  0.51938985  1
  O2-  O473  1  0.91517839  0.34258486  0.85331489  1
  O2-  O474  1  0.90847661  0.57243169  0.17600693  1
  O2-  O475  1  0.91348779  0.60444550  0.52418123  1
  O2-  O476  1  0.91285989  0.57990829  0.85362484  1
  O2-  O477  1  0.94469234  0.79845594  0.20815793  1
  O2-  O478  1  0.88689284  0.82724209  0.50469939  1
  O2-  O479  1  0.92770058  0.85354465  0.86319634  1
  O2-  O480  1  0.12747082  0.08390765  0.32597616  1
  O2-  O481  1  0.18354568  0.08024202  0.63284868  1
  O2-  O482  1  0.17616129  0.08314730  1.00709485  1
  O2-  O483  1  0.16333739  0.31923066  0.33224363  1
  O2-  O484  1  0.16108579  0.33830768  0.64370193  1
  O2-  O485  1  0.16333753  0.31154279  0.98382246  1
  O2-  O486  1  0.14922300  0.57582847  0.30508267  1
  O2-  O487  1  0.17558942  0.59598175  0.64389167  1
  O2-  O488  1  0.15106491  0.57481959  0.97862899  1
  O2-  O489  1  0.13976788  0.84188574  0.31265454  1
  O2-  O490  1  0.17848796  0.81852271  0.64488463  1
  O2-  O491  1  0.15733616  0.83191130  0.97816272  1
  O2-  O492  1  0.38644544  0.09589928  0.31013981  1
  O2-  O493  1  0.42100387  0.08403973  0.65249368  1
  O2-  O494  1  0.41682367  0.08142568  0.97275513  1
  O2-  O495  1  0.40529368  0.33310478  0.33015599  1
  O2-  O496  1  0.41178279  0.32673280  0.65488814  1
  O2-  O497  1  0.39615802  0.29741112  0.99452573  1
  O2-  O498  1  0.40367324  0.57421653  0.30629007  1
  O2-  O499  1  0.43726835  0.57255244  0.71261409  1
  O2-  O500  1  0.41858745  0.55414076  0.99007669  1
  O2-  O501  1  0.41114016  0.84314251  0.31014012  1
  O2-  O502  1  0.42048584  0.83490774  0.64915320  1
  O2-  O503  1  0.53936344  0.83656884  0.91298803  1
  O2-  O504  1  0.66332924  0.08222495  0.30918330  1
  O2-  O505  1  0.64897433  0.06335775  0.62707610  1
  O2-  O506  1  0.66433133  0.09696799  0.97436296  1
  O2-  O507  1  0.65274722  0.32793469  0.32367850  1
  O2-  O508  1  0.65618864  0.32511201  0.64638418  1
  O2-  O509  1  0.65672888  0.33145413  0.98854225  1
  O2-  O510  1  0.64829816  0.58090361  0.31447169  1
  O2-  O511  1  0.64826369  0.58746663  0.65952389  1
  O2-  O512  1  0.65089263  0.55683194  0.98335689  1
  O2-  O513  1  0.65020295  0.82774847  0.30994128  1
  O2-  O514  1  0.68361209  0.84640139  0.64565636  1
  O2-  O515  1  0.66061962  0.83160409  0.98725749  1
  O2-  O516  1  0.92532257  0.08047643  0.31616520  1
  O2-  O517  1  0.93839042  0.09462174  0.62994002  1
  O2-  O518  1  0.92195998  0.07867188  0.98837145  1
  O2-  O519  1  0.92460505  0.33409911  0.31272364  1
  O2-  O520  1  0.93008722  0.35009870  0.64202233  1
  O2-  O521  1  0.90187618  0.32887962  0.98088978  1
  O2-  O522  1  0.91462863  0.59659763  0.31118898  1
  O2-  O523  1  0.90932044  0.58863157  0.64326363  1
  O2-  O524  1  0.90933824  0.58567219  0.98272896  1
  O2-  O525  1  0.90088985  0.82993188  0.32286976  1
  O2-  O526  1  0.90726452  0.83533385  0.63169032  1
  O2-  O527  1  0.92034008  0.84652612  0.98414579  1
  O2-  O528  1  0.08571282  0.15155753  0.02817381  1
  O2-  O529  1  0.09267443  0.13689745  0.35113613  1
  O2-  O530  1  0.10138574  0.16562534  0.67174121  1
  O2-  O531  1  0.07612373  0.40177219  -0.02254809  1
  O2-  O532  1  0.08604162  0.40900614  0.35543289  1
  O2-  O533  1  0.09204484  0.43603504  0.68592888  1
  O2-  O534  1  0.07128763  0.65534977  0.02504360  1
  O2-  O535  1  0.07655734  0.67448036  0.35264919  1
  O2-  O536  1  0.08218213  0.66608535  0.68613951  1
  O2-  O537  1  0.08599961  0.92274734  0.02853190  1
  O2-  O538  1  0.06282403  0.92052605  0.36828821  1
  O2-  O539  1  0.08157219  0.91635221  0.66309931  1
  O2-  O540  1  0.32501869  0.15536356  0.06393884  1
  O2-  O541  1  0.28472978  0.15706961  0.34598670  1
  O2-  O542  1  0.33075343  0.15725168  0.68927079  1
  O2-  O543  1  0.32639241  0.39865044  0.02425847  1
  O2-  O544  1  0.33125544  0.42311190  0.36618710  1
  O2-  O545  1  0.32079793  0.40424899  0.69140103  1
  O2-  O546  1  0.33146280  0.63419479  -0.02568201  1
  O2-  O547  1  0.32708091  0.67226995  0.28786018  1
  O2-  O548  1  0.33595965  0.66889134  0.68810651  1
  O2-  O549  1  0.32240048  0.91512487  0.01277359  1
  O2-  O550  1  0.32036743  0.93123681  0.34335606  1
  O2-  O551  1  0.33321598  0.91172221  0.68473086  1
  O2-  O552  1  0.58106292  0.17393598  0.01897886  1
  O2-  O553  1  0.57270056  0.15397340  0.35447285  1
  O2-  O554  1  0.57356075  0.17365357  0.69224080  1
  O2-  O555  1  0.56427315  0.39589753  0.02694773  1
  O2-  O556  1  0.57709224  0.41911636  0.36609716  1
  O2-  O557  1  0.58116397  0.41655946  0.68898888  1
  O2-  O558  1  0.57288220  0.64790483  0.02661298  1
  O2-  O559  1  0.56502837  0.66429323  0.35623040  1
  O2-  O560  1  0.51675968  0.57389434  0.73295700  1
  O2-  O561  1  0.60233586  0.93797198  0.02349925  1
  O2-  O562  1  0.57596079  0.91692510  0.35438975  1
  O2-  O563  1  0.58892053  0.91503355  0.67940468  1
  O2-  O564  1  0.82460403  0.13957005  0.03074319  1
  O2-  O565  1  0.83250296  0.16372675  0.34605302  1
  O2-  O566  1  0.96114595  0.22928345  0.70084542  1
  O2-  O567  1  0.81880357  0.41322269  0.02059624  1
  O2-  O568  1  0.80532888  0.34980277  0.37238079  1
  O2-  O569  1  0.81782335  0.40821691  0.67279756  1
  O2-  O570  1  0.83830156  0.68551043  0.02112658  1
  O2-  O571  1  0.81169786  0.66065368  0.35545569  1
  O2-  O572  1  0.82834097  0.67467967  0.68291638  1
  O2-  O573  1  0.82518868  0.91746856  0.02191827  1
  O2-  O574  1  0.81590420  0.91465698  0.34980291  1
  O2-  O575  1  0.85828335  0.94211087  0.68446611  1
