# generated using pymatgen
data_H2O
_symmetry_space_group_name_H-M   'P 1'
_cell_length_a   17.99140033
_cell_length_b   17.98717347
_cell_length_c   21.99761987
_cell_angle_alpha   89.99821411
_cell_angle_beta   89.99138721
_cell_angle_gamma   120.02002824
_symmetry_Int_Tables_number   1
_chemical_formula_structural   H2O
_chemical_formula_sum   'H384 O192'
_cell_volume   6163.77139440
_cell_formula_units_Z   192
loop_
 _symmetry_equiv_pos_site_id
 _symmetry_equiv_pos_as_xyz
  1  'x, y, z'
loop_
 _atom_type_symbol
 _atom_type_oxidation_number
  H+  1.0
  O2-  -2.0
loop_
 _atom_site_type_symbol
 _atom_site_label
 _atom_site_symmetry_multiplicity
 _atom_site_fract_x
 _atom_site_fract_y
 _atom_site_fract_z
 _atom_site_occupancy
  H+  H0  1  0.17301972  0.78844528  0.96093808  1
  H+  H1  1  0.92466022  0.34838756  0.27056850  1
  H+  H2  1  0.24232001  0.86364229  0.91496752  1
  H+  H3  1  0.35765306  0.37987384  0.82546525  1
  H+  H4  1  0.38834173  0.61194793  0.33255355  1
  H+  H5  1  0.20691206  0.10365319  0.83414931  1
  H+  H6  1  -0.00276670  0.08441846  0.52207882  1
  H+  H7  1  0.89541586  0.20043182  0.75838136  1
  H+  H8  1  0.88292530  0.85440516  0.66454797  1
  H+  H9  1  0.42683341  0.05854233  0.57752528  1
  H+  H10  1  0.27431509  0.38989296  0.33975806  1
  H+  H11  1  0.67745891  0.59351706  0.25869594  1
  H+  H12  1  1.12247553  0.70889801  1.05106816  1
  H+  H13  1  0.36781457  0.64286923  0.01285388  1
  H+  H14  1  0.59501733  0.43746131  0.80518743  1
  H+  H15  1  0.62026754  0.64349774  0.01184980  1
  H+  H16  1  0.78319261  0.37900832  0.67614857  1
  H+  H17  1  0.11283405  0.32800867  0.67369595  1
  H+  H18  1  0.45564163  0.18467081  0.62111330  1
  H+  H19  1  0.64791317  0.53610349  0.31916563  1
  H+  H20  1  0.61485092  0.72809852  0.16702785  1
  H+  H21  1  0.12128800  0.63424915  0.49814451  1
  H+  H22  1  0.63980912  0.38857536  0.32055769  1
  H+  H23  1  0.27677081  0.63739449  0.00893281  1
  H+  H24  1  0.90307531  0.36676704  0.66501642  1
  H+  H25  1  0.10873008  0.37825301  0.16727209  1
  H+  H26  1  0.87480016  0.72735563  0.15590663  1
  H+  H27  1  0.25563582  0.88095511  0.68774497  1
  H+  H28  1  0.32563031  0.64312098  0.41049502  1
  H+  H29  1  0.05756825  0.87636752  0.84176399  1
  H+  H30  1  0.38211049  0.40696630  0.61782909  1
  H+  H31  1  0.85843786  0.71902031  0.67227494  1
  H+  H32  1  0.78006186  0.39061232  0.49013684  1
  H+  H33  1  0.83387799  0.09096590  -0.02925605  1
  H+  H34  1  0.13142088  0.85272072  0.32123024  1
  H+  H35  1  0.91064767  0.15320004  0.32972185  1
  H+  H36  1  0.62891277  0.77132882  0.99254614  1
  H+  H37  1  0.33186411  0.85122231  0.17386499  1
  H+  H38  1  0.40876076  0.57370381  0.56511316  1
  H+  H39  1  0.58852693  0.98237477  -0.01442330  1
  H+  H40  1  0.62597561  0.40018798  0.15529167  1
  H+  H41  1  0.57178292  0.93501572  0.32283345  1
  H+  H42  1  0.77753300  0.39670220  0.33872836  1
  H+  H43  1  0.74723430  0.86311595  0.84261046  1
  H+  H44  1  0.52225496  0.63201959  0.67491779  1
  H+  H45  1  0.10978648  -0.03422828  0.49200049  1
  H+  H46  1  0.88963494  0.10449890  0.18041435  1
  H+  H47  1  0.01596533  0.82583059  0.01503148  1
  H+  H48  1  0.86138811  0.51076846  -0.02021930  1
  H+  H49  1  0.14674624  0.52013990  0.82982338  1
  H+  H50  1  0.65640986  0.02409473  0.35275262  1
  H+  H51  1  0.88289927  0.29502752  0.50901921  1
  H+  H52  1  0.35624356  0.14045051  0.01003282  1
  H+  H53  1  0.81434101  0.06358970  0.49042630  1
  H+  H54  1  0.78365899  0.63800423  0.15401518  1
  H+  H55  1  0.59496122  0.19731836  0.36233934  1
  H+  H56  1  0.34202678  0.96710927  0.69885848  1
  H+  H57  1  0.11413816  0.87091797  0.99779215  1
  H+  H58  1  0.97298627  0.85220016  0.50845289  1
  H+  H59  1  0.52603886  0.63425352  0.34154097  1
  H+  H60  1  0.17156611  0.32977624  0.93951691  1
  H+  H61  1  0.01154021  0.86776592  0.67479023  1
  H+  H62  1  0.58612039  0.38398263  0.71967854  1
  H+  H63  1  0.36402721  0.39197392  0.01623914  1
  H+  H64  1  0.32700452  0.66259505  0.11137234  1
  H+  H65  1  0.66009980  0.31197630  0.90479838  1
  H+  H66  1  0.45419567  0.42560983  0.94768251  1
  H+  H67  1  0.11268077  0.71842055  0.34365762  1
  H+  H68  1  0.63004703  0.13419531  0.98753546  1
  H+  H69  1  0.39252287  0.37978469  0.32756091  1
  H+  H70  1  0.75879563  0.88287761  0.34807984  1
  H+  H71  1  0.38983096  0.29033003  0.32936760  1
  H+  H72  1  0.72401341  0.35478743  0.84661263  1
  H+  H73  1  0.67132912  0.30860913  0.16758681  1
  H+  H74  1  0.37954139  0.52039389  0.84224404  1
  H+  H75  1  0.02541292  0.38874598  0.49942431  1
  H+  H76  1  0.77859903  0.88527074  0.49860866  1
  H+  H77  1  0.12367513  0.38688014  1.01395862  1
  H+  H78  1  0.12613854  0.85046136  0.65890460  1
  H+  H79  1  0.61625272  0.39139967  0.47987073  1
  H+  H80  1  0.13629572  0.60442648  0.33641493  1
  H+  H81  1  0.90943552  0.62837552  0.17330712  1
  H+  H82  1  0.36252835  0.63171061  0.82378132  1
  H+  H83  1  0.28093743  0.38460427  0.49172407  1
  H+  H84  1  0.69824928  0.09841365  0.97501202  1
  H+  H85  1  0.37060970  0.76745687  0.99635077  1
  H+  H86  1  0.01562820  0.62461860  0.67352441  1
  H+  H87  1  0.39814325  0.28044358  0.18277823  1
  H+  H88  1  0.34942694  0.95218789  0.49413007  1
  H+  H89  1  0.22509585  0.35989250  0.17670209  1
  H+  H90  1  0.37880558  0.53279068  0.66808528  1
  H+  H91  1  0.60940333  0.62709351  0.67245282  1
  H+  H92  1  0.08137924  0.90763367  0.39664786  1
  H+  H93  1  0.52971516  0.63701644  0.16207153  1
  H+  H94  1  0.26663839  0.62781832  0.17148992  1
  H+  H95  1  0.02745547  0.38621774  0.34519370  1
  H+  H96  1  0.11690424  0.22523770  0.01103468  1
  H+  H97  1  0.61883776  -0.02894182  0.68012124  1
  H+  H98  1  0.50456247  0.88537753  0.18722677  1
  H+  H99  1  0.39112443  0.52565222  0.32824707  1
  H+  H100  1  1.02413702  0.42050793  0.98020679  1
  H+  H101  1  0.38036144  0.10568709  0.83437693  1
  H+  H102  1  0.86293372  -0.03320499  0.68473804  1
  H+  H103  1  0.76036654  0.16551607  0.49409563  1
  H+  H104  1  0.87829765  -0.03317100  0.83992521  1
  H+  H105  1  0.98243511  0.60983288  0.51282870  1
  H+  H106  1  0.64241908  0.10433237  0.35412510  1
  H+  H107  1  0.13956748  0.26727797  0.17445669  1
  H+  H108  1  0.49369601  0.32343726  0.64093538  1
  H+  H109  1  0.28968182  0.13691275  0.17885243  1
  H+  H110  1  0.51481123  0.10416790  0.35173965  1
  H+  H111  1  0.25889660  0.39647856  0.68760247  1
  H+  H112  1  0.87088886  0.28435069  1.00041279  1
  H+  H113  1  0.64658237  0.24907288  0.66485436  1
  H+  H114  1  0.62333029  0.85774405  -0.01861023  1
  H+  H115  1  0.36010590  0.69971903  0.49202749  1
  H+  H116  1  0.33349380  0.41902643  0.07661913  1
  H+  H117  1  0.25955289  0.11332671  0.67288753  1
  H+  H118  1  0.09101974  0.16268751  0.10105725  1
  H+  H119  1  0.34991807  0.88113755  0.01627821  1
  H+  H120  1  0.50845639  0.88555816  0.83224134  1
  H+  H121  1  0.14198762  0.38289765  0.51695616  1
  H+  H122  1  0.78837090  0.14971443  0.34731092  1
  H+  H123  1  0.89115165  0.52915845  0.32305737  1
  H+  H124  1  0.12828807  0.11910144  0.83532617  1
  H+  H125  1  0.38343717  0.86146587  0.51819667  1
  H+  H126  1  0.48192905  0.36382287  0.49352799  1
  H+  H127  1  0.14727920  0.08008459  0.92922881  1
  H+  H128  1  0.41538997  0.31992966  0.89174543  1
  H+  H129  1  1.00836806  0.62421407  0.82011942  1
  H+  H130  1  0.90014846  0.03298388  1.00448993  1
  H+  H131  1  0.36691412  0.16464150  0.33936825  1
  H+  H132  1  0.89766943  0.38267624  0.17703401  1
  H+  H133  1  0.87238497  0.39701766  0.49414836  1
  H+  H134  1  0.46550071  0.33276906  0.82987030  1
  H+  H135  1  0.13139518  0.42940994  0.64366365  1
  H+  H136  1  0.12501484  -0.03578690  0.15679252  1
  H+  H137  1  0.13805756  0.36090999  0.33047932  1
  H+  H138  1  0.60441080  0.21900077  0.82855881  1
  H+  H139  1  0.51682673  0.61781617  0.49529350  1
  H+  H140  1  0.39264714  0.36211973  0.50160342  1
  H+  H141  1  0.88293717  0.84837537  0.85621644  1
  H+  H142  1  0.53153373  0.13890231  0.67430314  1
  H+  H143  1  0.34619182  0.20594669  0.82566085  1
  H+  H144  1  0.61809108  0.64029658  0.33764646  1
  H+  H145  1  0.13235331  0.76548495  0.65936925  1
  H+  H146  1  0.62250608  0.46552236  0.00604199  1
  H+  H147  1  0.14340324  0.10396971  0.51184087  1
  H+  H148  1  0.38808003  0.52789687  1.00220685  1
  H+  H149  1  0.74938176  0.62678745  0.84373400  1
  H+  H150  1  0.63965927  0.02682901  0.51037440  1
  H+  H151  1  0.22502362  0.60206675  0.33775142  1
  H+  H152  1  0.89058760  0.61150508  0.83157077  1
  H+  H153  1  0.73501712  0.61696549  1.00433646  1
  H+  H154  1  0.06966738  0.88187676  0.73350446  1
  H+  H155  1  0.30396268  0.90645918  0.79728640  1
  H+  H156  1  0.39497071  0.07334623  0.29944308  1
  H+  H157  1  0.14359390  0.65820956  1.00032825  1
  H+  H158  1  0.11770484  0.47277505  0.34760426  1
  H+  H159  1  0.35499498  0.70747402  0.35145236  1
  H+  H160  1  0.13110485  0.23139704  0.34774623  1
  H+  H161  1  0.44692846  0.94457704  0.54920657  1
  H+  H162  1  0.52785493  0.40207933  0.33474500  1
  H+  H163  1  0.77014351  0.62841974  0.67307436  1
  H+  H164  1  0.10896140  0.25334550  0.83172133  1
  H+  H165  1  0.99004287  0.12202903  1.00264177  1
  H+  H166  1  0.12824113  0.76172595  0.50710177  1
  H+  H167  1  0.85379731  0.90022941  -0.01724006  1
  H+  H168  1  0.63760792  0.51261848  0.65885949  1
  H+  H169  1  0.52964604  0.90208521  0.49449175  1
  H+  H170  1  0.45310406  0.85932299  0.98282800  1
  H+  H171  1  0.63491165  0.27233709  0.50591185  1
  H+  H172  1  0.64582331  0.53050247  0.16473755  1
  H+  H173  1  0.37889239  0.84283518  0.33928493  1
  H+  H174  1  0.60813582  0.35909398  0.82458063  1
  H+  H175  1  0.83178553  0.16812091  0.13030846  1
  H+  H176  1  0.27408568  0.63351909  0.82209926  1
  H+  H177  1  0.73735274  0.11058100  0.66565467  1
  H+  H178  1  0.74971796  0.01273483  -0.00770221  1
  H+  H179  1  0.88591054  0.74923737  0.31899516  1
  H+  H180  1  0.87155152  0.64087051  0.32802920  1
  H+  H181  1  0.16685135  0.33017924  0.26991559  1
  H+  H182  1  0.62497955  0.85833890  0.33886589  1
  H+  H183  1  0.82732461  0.27931094  -0.00475232  1
  H+  H184  1  0.39126944  0.11347248  0.66118088  1
  H+  H185  1  0.61950045  0.13878916  0.51152779  1
  H+  H186  1  0.20967006  0.10570717  0.98653126  1
  H+  H187  1  0.64820523  0.62084278  0.16641147  1
  H+  H188  1  0.80570281  0.42344656  0.15879911  1
  H+  H189  1  0.36488941  0.47789547  0.16832639  1
  H+  H190  1  0.47853493  0.61518546  -0.00155113  1
  H+  H191  1  0.87240387  0.13603365  0.66856025  1
  H+  H192  1  0.09513309  0.72097654  0.81252350  1
  H+  H193  1  0.46848368  0.84189238  0.34252474  1
  H+  H194  1  0.16306985  0.06724984  0.22973901  1
  H+  H195  1  0.14276799  0.52755061  0.51195075  1
  H+  H196  1  0.63668725  0.64929105  0.82596547  1
  H+  H197  1  0.12116883  0.83986259  0.16107501  1
  H+  H198  1  0.37186407  0.59842779  0.50385567  1
  H+  H199  1  0.57469488  0.91776044  0.77553804  1
  H+  H200  1  0.10798807  0.20054453  0.67857396  1
  H+  H201  1  0.97410591  0.09555827  0.67551527  1
  H+  H202  1  0.13634390  0.52924459  0.66241465  1
  H+  H203  1  0.11192034  0.13208368  0.00496643  1
  H+  H204  1  0.87727236  -0.03291476  0.15807827  1
  H+  H205  1  0.85733899  0.62581912  0.50695924  1
  H+  H206  1  0.86986821  0.72461286  0.82837738  1
  H+  H207  1  0.25481019  0.86942401  0.49250620  1
  H+  H208  1  0.14910585  0.52675824  -0.00329024  1
  H+  H209  1  0.35326247  0.19857544  0.66734604  1
  H+  H210  1  0.34400171  0.21905880  -0.00440465  1
  H+  H211  1  0.75150745  0.36828622  0.01371225  1
  H+  H212  1  0.11441527  0.96965762  0.33815179  1
  H+  H213  1  0.63122865  0.37279479  0.66168426  1
  H+  H214  1  0.36281792  0.22396514  0.48772613  1
  H+  H215  1  0.84678921  -0.02852673  0.34931324  1
  H+  H216  1  0.88606759  0.60878552  0.66315998  1
  H+  H217  1  0.62980867  0.60053675  0.50987780  1
  H+  H218  1  0.88374064  0.28567653  0.18424577  1
  H+  H219  1  0.89199189  0.52255668  0.51024988  1
  H+  H220  1  0.08588549  0.41207466  0.43957923  1
  H+  H221  1  0.38851411  -0.01162709  0.32466054  1
  H+  H222  1  0.21609109  0.82991940  0.16509248  1
  H+  H223  1  0.27408998  0.64932705  0.67324486  1
  H+  H224  1  -0.01476136  0.10376770  0.84669939  1
  H+  H225  1  0.85669962  0.47063523  0.82791190  1
  H+  H226  1  0.93287005  0.59480812  0.26565426  1
  H+  H227  1  0.61941762  0.85065161  0.19315816  1
  H+  H228  1  0.36726228  0.47576190  0.49443900  1
  H+  H229  1  0.12804605  1.00077615  0.66601800  1
  H+  H230  1  0.03142902  0.13018113  0.16018819  1
  H+  H231  1  0.13833091  0.51903142  0.18056009  1
  H+  H232  1  0.26493071  0.86911656  0.33566591  1
  H+  H233  1  0.64493335  0.17032734  0.15792708  1
  H+  H234  1  0.90149484  0.85956197  0.16593392  1
  H+  H235  1  0.22687036  0.42396135  0.55613618  1
  H+  H236  1  0.50776100  0.13035004  0.82510483  1
  H+  H237  1  0.86465808  0.34213310  0.84589755  1
  H+  H238  1  0.22519868  0.11103357  0.32584231  1
  H+  H239  1  0.42050168  0.42639937  0.63842674  1
  H+  H240  1  0.23804886  0.61096987  0.50699189  1
  H+  H241  1  0.76193424  0.88268782  0.00099222  1
  H+  H242  1  0.13634109  0.10678923  0.32878313  1
  H+  H243  1  0.13103087  0.39232623  0.80425405  1
  H+  H244  1  0.62191036  0.20515953  0.09589839  1
  H+  H245  1  0.38261597  0.14516428  0.17892370  1
  H+  H246  1  0.37576238  0.76118272  0.18537023  1
  H+  H247  1  0.91808804  0.57851784  0.60422948  1
  H+  H248  1  0.27590757  0.13235669  0.49117141  1
  H+  H249  1  0.63459181  1.03355789  0.19843229  1
  H+  H250  1  0.13775460  0.60357456  0.83784330  1
  H+  H251  1  0.58029955  0.65069195  0.43884576  1
  H+  H252  1  0.30904914  0.88722242  0.11151245  1
  H+  H253  1  0.96528960  0.45964585  0.96370910  1
  H+  H254  1  0.49142196  0.37989375  0.98839646  1
  H+  H255  1  0.27472219  0.90138257  0.01606753  1
  H+  H256  1  0.98610964  0.85551182  0.31986193  1
  H+  H257  1  0.38025722  0.76406734  0.83670093  1
  H+  H258  1  0.22630413  0.35916346  1.00183184  1
  H+  H259  1  1.00802070  0.65214250  0.17439905  1
  H+  H260  1  0.43301454  0.29791818  0.58188974  1
  H+  H261  1  0.35376476  0.87985174  0.84243215  1
  H+  H262  1  -0.00310641  0.37637201  0.65685833  1
  H+  H263  1  0.82594139  0.42266551  0.06257862  1
  H+  H264  1  1.02391729  0.38707364  0.16572059  1
  H+  H265  1  0.91632671  0.57700299  0.89160191  1
  H+  H266  1  0.61601580  0.48006239  0.48954167  1
  H+  H267  1  0.77722759  0.13960126  0.18998746  1
  H+  H268  1  0.12446141  0.22351772  0.50376963  1
  H+  H269  1  0.14020457  0.09894782  0.16916199  1
  H+  H270  1  0.64486496  0.10479054  0.66997803  1
  H+  H271  1  0.43049280  0.35044430  0.23390437  1
  H+  H272  1  0.98930483  0.85474711  0.16684052  1
  H+  H273  1  0.39383193  0.62558717  0.65875163  1
  H+  H274  1  0.77343247  0.87794246  0.68584269  1
  H+  H275  1  0.10558859  0.87529464  0.49091662  1
  H+  H276  1  0.61005542  0.10856573  0.83386390  1
  H+  H277  1  0.87382589  0.79097681  1.03199598  1
  H+  H278  1  0.65067573  0.89696399  0.51540726  1
  H+  H279  1  0.38715667  0.76566934  0.66817875  1
  H+  H280  1  0.48861798  0.13532714  1.01343159  1
  H+  H281  1  0.63496387  0.76545577  0.66567823  1
  H+  H282  1  0.83580413  0.06722610  0.46040161  1
  H+  H283  1  0.38916165  0.61333720  0.17808738  1
  H+  H284  1  0.61496253  0.87929582  0.68386653  1
  H+  H285  1  0.89391404  0.37585404  0.33052833  1
  H+  H286  1  0.50857285  0.13900805  0.16340474  1
  H+  H287  1  0.53170719  0.39208271  0.15933948  1
  H+  H288  1  0.09315587  0.41935135  0.07279396  1
  H+  H289  1  0.14889847  0.80893267  0.26326549  1
  H+  H290  1  0.91040302  -0.00709898  0.51859312  1
  H+  H291  1  0.42584002  0.84513079  0.60971206  1
  H+  H292  1  0.58238801  0.15945317  0.73838002  1
  H+  H293  1  0.38704642  0.02121691  0.84604778  1
  H+  H294  1  0.36751901  0.38991238  0.16620695  1
  H+  H295  1  0.66039095  0.34611371  0.55472871  1
  H+  H296  1  0.90064530  0.50527656  0.15902289  1
  H+  H297  1  0.87250480  0.24503734  0.34139769  1
  H+  H298  1  0.11154677  0.62886260  0.67368772  1
  H+  H299  1  0.67303202  0.09348416  0.25558712  1
  H+  H300  1  0.85517624  0.71235326  0.50514435  1
  H+  H301  1  0.82631519  0.40913323  0.77046425  1
  H+  H302  1  0.17161856  0.59512317  0.60452226  1
  H+  H303  1  0.65534433  0.82134964  0.24689472  1
  H+  H304  1  0.92705749  0.07861218  0.23447871  1
  H+  H305  1  0.89125725  0.60950787  0.98085277  1
  H+  H306  1  0.69424582  0.37184157  0.22493879  1
  H+  H307  1  0.59086022  0.43173075  0.39274857  1
  H+  H308  1  0.26933101  0.38353261  0.84020988  1
  H+  H309  1  0.80432505  0.16265943  0.05599347  1
  H+  H310  1  0.65049135  0.76371239  0.83251705  1
  H+  H311  1  0.70674218  0.29022291  0.60789168  1
  H+  H312  1  0.58279977  0.40903948  0.06455188  1
  H+  H313  1  0.66977096  0.83901655  0.61312663  1
  H+  H314  1  0.61220848  0.31185596  1.00358042  1
  H+  H315  1  0.82300322  0.20100473  0.43597397  1
  H+  H316  1  0.83736144  0.42443731  0.39844697  1
  H+  H317  1  0.82935702  0.90459453  0.43492565  1
  H+  H318  1  0.83530659  0.66630395  0.76584284  1
  H+  H319  1  0.91251321  0.82610483  0.60281993  1
  H+  H320  1  0.66317882  0.54137373  0.85979869  1
  H+  H321  1  0.13798670  0.83158661  0.87101730  1
  H+  H322  1  0.04043499  0.14955300  0.34986489  1
  H+  H323  1  0.42224389  0.58655069  0.23683862  1
  H+  H324  1  0.31708797  0.89734308  0.39937025  1
  H+  H325  1  0.49007072  0.86113538  0.67060501  1
  H+  H326  1  0.40087487  0.81631982  0.24760409  1
  H+  H327  1  0.12886278  0.08983294  0.67002962  1
  H+  H328  1  0.15328902  0.31966290  0.61224664  1
  H+  H329  1  0.93623536  0.06817678  0.90987618  1
  H+  H330  1  0.16658657  0.57449099  0.24114716  1
  H+  H331  1  0.07205784  0.65428576  0.74942300  1
  H+  H332  1  0.84059411  0.90643713  0.77871885  1
  H+  H333  1  0.88285412  0.84905493  0.50824062  1
  H+  H334  1  0.15773937  0.82432061  0.56537212  1
  H+  H335  1  0.93039452  0.82661984  0.25560949  1
  H+  H336  1  0.87766883  0.22857002  0.66444703  1
  H+  H337  1  0.92617268  0.34460375  0.89647309  1
  H+  H338  1  0.72216737  0.60259870  0.51311811  1
  H+  H339  1  0.39840943  0.81842155  0.89871562  1
  H+  H340  1  0.67109912  0.82728015  0.89766631  1
  H+  H341  1  0.60129254  0.67429682  0.76545723  1
  H+  H342  1  0.92548345  0.05923801  0.61323344  1
  H+  H343  1  0.73250129  0.95189744  0.55449350  1
  H+  H344  1  0.89641331  0.79877219  0.91251729  1
  H+  H345  1  0.10039698  0.17164832  0.44113183  1
  H+  H346  1  0.08492449  0.65893762  0.43889021  1
  H+  H347  1  0.55876690  0.91803740  0.04003749  1
  H+  H348  1  0.17371787  0.57751554  0.93329909  1
  H+  H349  1  0.91539109  0.25301719  0.82100917  1
  H+  H350  1  0.68186240  0.59672540  0.94419488  1
  H+  H351  1  0.31746481  0.43432035  0.74656147  1
  H+  H352  1  0.31708268  0.14655523  0.76662715  1
  H+  H353  1  0.62884598  0.29920759  0.29928562  1
  H+  H354  1  0.09136041  0.89970929  0.09709177  1
  H+  H355  1  0.58101614  0.92116697  0.43019887  1
  H+  H356  1  0.60435790  0.00637853  0.83762622  1
  H+  H357  1  0.66211269  0.57287415  0.60074169  1
  H+  H358  1  0.98823908  0.19623552  0.28484845  1
  H+  H359  1  0.40414128  0.04428427  1.02319213  1
  H+  H360  1  0.57740486  0.92216411  0.13711133  1
  H+  H361  1  0.63152753  0.77088420  0.33911206  1
  H+  H362  1  0.01490455  0.21107052  0.80216464  1
  H+  H363  1  0.84683412  0.91121328  0.09765085  1
  H+  H364  1  0.67065127  0.07774246  0.57529768  1
  H+  H365  1  0.92770301  0.34860553  0.57091026  1
  H+  H366  1  0.76082402  0.15459279  0.06632946  1
  H+  H367  1  0.57662098  0.15338626  0.45315575  1
  H+  H368  1  0.40740061  0.58303054  0.89915767  1
  H+  H369  1  0.10904669  0.43319818  0.74694247  1
  H+  H370  1  0.07895883  0.16152041  0.74317699  1
  H+  H371  1  0.85046860  0.67157316  0.06902862  1
  H+  H372  1  0.48628464  0.08079928  0.52075507  1
  H+  H373  1  0.78203689  0.64577919  0.32483708  1
  H+  H374  1  0.45183357  0.07226239  0.21319525  1
  H+  H375  1  0.33527967  0.41982159  0.39920511  1
  H+  H376  1  0.32810500  0.17547780  0.40192348  1
  H+  H377  1  0.86612645  0.47360734  0.67706346  1
  H+  H378  1  0.63581220  0.07907352  0.89860493  1
  H+  H379  1  0.33461845  0.67269617  0.73362795  1
  H+  H380  1  0.17774491  0.39864894  0.87471158  1
  H+  H381  1  0.16653652  0.06622726  0.56931913  1
  H+  H382  1  0.58968685  0.67496265  0.06968706  1
  H+  H383  1  0.02367894  0.63186872  0.34392597  1
  O2-  O384  1  0.09239951  0.16162945  0.14719184  1
  O2-  O385  1  0.09891279  0.16592741  0.48667259  1
  O2-  O386  1  0.06490187  0.20034968  0.80979313  1
  O2-  O387  1  0.08427099  0.41322476  0.15101367  1
  O2-  O388  1  0.08684753  0.41520749  0.48511403  1
  O2-  O389  1  0.11259283  0.43320782  0.79270381  1
  O2-  O390  1  0.09562094  0.71830205  0.14155292  1
  O2-  O391  1  0.08574668  0.66030563  0.48440294  1
  O2-  O392  1  0.07126597  0.65799409  0.80176491  1
  O2-  O393  1  0.09382387  0.90244890  0.14299543  1
  O2-  O394  1  0.07682854  0.90656008  0.47456763  1
  O2-  O395  1  0.05487660  0.83530261  0.81104556  1
  O2-  O396  1  0.35075867  0.17562730  0.18851351  1
  O2-  O397  1  0.33203184  0.16509361  0.46998719  1
  O2-  O398  1  0.31492429  0.14493522  0.81202160  1
  O2-  O399  1  0.33320840  0.41714169  0.15302261  1
  O2-  O400  1  0.34024612  0.41467607  0.47621950  1
  O2-  O401  1  0.33015297  0.41470057  0.81876697  1
  O2-  O402  1  0.32906663  0.66166778  0.15647852  1
  O2-  O403  1  0.32483463  0.63980186  0.48018624  1
  O2-  O404  1  0.33452429  0.66474207  0.80634345  1
  O2-  O405  1  0.29493562  0.87326859  0.15602432  1
  O2-  O406  1  0.31462651  0.89487821  0.47509277  1
  O2-  O407  1  0.31993927  0.90997654  0.84096029  1
  O2-  O408  1  0.62251006  0.20655303  0.14224873  1
  O2-  O409  1  0.58460321  0.16551590  0.49745801  1
  O2-  O410  1  0.57263009  0.16051240  0.81028460  1
  O2-  O411  1  0.58994085  0.42430772  0.13990790  1
  O2-  O412  1  0.58632937  0.42253744  0.46704944  1
  O2-  O413  1  0.57211063  0.37630686  0.79896561  1
  O2-  O414  1  0.58981632  0.66972156  0.14640614  1
  O2-  O415  1  0.57831768  0.64533337  0.48385697  1
  O2-  O416  1  0.61129570  0.68340042  0.81038966  1
  O2-  O417  1  0.56873062  0.92331248  0.18058043  1
  O2-  O418  1  0.58773409  0.92788760  0.47661726  1
  O2-  O419  1  0.57030565  0.92383890  0.82009347  1
  O2-  O420  1  0.83828150  0.17034879  0.17462116  1
  O2-  O421  1  0.80386985  0.21794906  0.47296877  1
  O2-  O422  1  0.93182661  0.21774835  0.79483255  1
  O2-  O423  1  0.86582184  0.44407580  0.14529634  1
  O2-  O424  1  0.84023280  0.42418188  0.47579064  1
  O2-  O425  1  0.82030914  0.40943606  0.81567933  1
  O2-  O426  1  0.84463829  0.66683324  0.13896050  1
  O2-  O427  1  0.82185416  0.65072471  0.49373436  1
  O2-  O428  1  0.83804957  0.66425798  0.81147219  1
  O2-  O429  1  0.85626571  0.90878968  0.14142227  1
  O2-  O430  1  0.83486659  0.90086658  0.48070497  1
  O2-  O431  1  0.83847257  0.90452558  0.82429413  1
  O2-  O432  1  0.16682360  0.06545178  0.18470420  1
  O2-  O433  1  0.17015247  0.06937336  0.52404792  1
  O2-  O434  1  0.14642058  0.07876708  0.84828177  1
  O2-  O435  1  0.16455118  0.32661192  0.19175688  1
  O2-  O436  1  0.18363818  0.36858833  0.53960129  1
  O2-  O437  1  0.18303190  0.34770036  0.86882657  1
  O2-  O438  1  0.17111211  0.57874506  0.19615562  1
  O2-  O439  1  0.17611883  0.58824480  0.52535414  1
  O2-  O440  1  0.17213356  0.57821132  0.85130901  1
  O2-  O441  1  0.14248212  0.79837579  0.17671580  1
  O2-  O442  1  0.15631531  0.82385595  0.51984093  1
  O2-  O443  1  0.12702572  0.82168055  0.82575653  1
  O2-  O444  1  0.44846781  0.09764980  0.17473082  1
  O2-  O445  1  0.43517692  0.03177617  0.54026537  1
  O2-  O446  1  0.42060408  0.08526317  0.84659118  1
  O2-  O447  1  0.42901943  0.34497661  0.18869069  1
  O2-  O448  1  0.42307851  0.32986427  0.51136098  1
  O2-  O449  1  0.40753469  0.31176421  0.84721446  1
  O2-  O450  1  0.42156713  0.58419468  0.19114351  1
  O2-  O451  1  0.40517872  0.56757742  0.52015764  1
  O2-  O452  1  0.40520014  0.58190445  0.85435156  1
  O2-  O453  1  0.40067676  0.82156178  0.20198465  1
  O2-  O454  1  0.43590267  0.88413532  0.54380809  1
  O2-  O455  1  0.40769193  0.82402466  0.85379286  1
  O2-  O456  1  0.67318228  0.09455078  0.21031570  1
  O2-  O457  1  0.66771189  0.08472086  0.53034974  1
  O2-  O458  1  0.63672290  0.07399148  0.85221900  1
  O2-  O459  1  0.69740855  0.37058899  0.17992364  1
  O2-  O460  1  0.66693359  0.33671542  0.51176931  1
  O2-  O461  1  0.66190507  0.32126543  0.86024500  1
  O2-  O462  1  0.68007191  0.59103632  0.17980166  1
  O2-  O463  1  0.65951874  0.56891536  0.52622259  1
  O2-  O464  1  0.69046539  0.60323227  0.86450501  1
  O2-  O465  1  0.64989167  0.81935326  0.20147824  1
  O2-  O466  1  0.69397790  0.89272123  0.54191006  1
  O2-  O467  1  0.68138970  0.82894896  0.85248414  1
  O2-  O468  1  0.92061246  0.07317981  0.18985920  1
  O2-  O469  1  0.95053806  0.03931068  0.54639305  1
  O2-  O470  1  0.93928605  0.05191915  0.86709039  1
  O2-  O471  1  0.92118753  0.34684847  0.19534386  1
  O2-  O472  1  0.92713790  0.35336825  0.52508195  1
  O2-  O473  1  0.88329365  0.30547063  0.86631519  1
  O2-  O474  1  0.94768062  0.60838612  0.19018313  1
  O2-  O475  1  0.92275254  0.58049220  0.52983629  1
  O2-  O476  1  0.92109916  0.58039115  0.84485590  1
  O2-  O477  1  0.92874966  0.82532085  0.18212082  1
  O2-  O478  1  0.91453411  0.82202248  0.52696605  1
  O2-  O479  1  0.90889842  0.81305019  0.86937089  1
  O2-  O480  1  0.16444413  0.07529747  0.31220997  1
  O2-  O481  1  0.15810648  0.06108208  0.65045356  1
  O2-  O482  1  0.14840009  0.08071590  0.97448792  1
  O2-  O483  1  0.16907567  0.33089039  0.31554999  1
  O2-  O484  1  0.14893205  0.30638174  0.65646501  1
  O2-  O485  1  0.16633274  0.32752199  0.98652989  1
  O2-  O486  1  0.16402632  0.57147987  0.32218646  1
  O2-  O487  1  0.16887439  0.59540975  0.65013536  1
  O2-  O488  1  0.17840250  0.58554759  0.97823601  1
  O2-  O489  1  0.15931934  0.81930324  0.30733308  1
  O2-  O490  1  0.16146321  0.82505526  0.64369998  1
  O2-  O491  1  0.18970619  0.84453955  0.93948700  1
  O2-  O492  1  0.43038796  0.04755839  0.30736944  1
  O2-  O493  1  0.44310798  0.12692538  0.63623600  1
  O2-  O494  1  0.42590353  0.10169213  1.00590500  1
  O2-  O495  1  0.42466872  0.35016245  0.31377317  1
  O2-  O496  1  0.44296240  0.27536448  0.62083471  1
  O2-  O497  1  0.43724594  0.37058508  0.96700360  1
  O2-  O498  1  0.42247655  0.58671322  0.31436451  1
  O2-  O499  1  0.41896198  0.58952732  0.64753660  1
  O2-  O500  1  0.41766185  0.58721624  0.98505907  1
  O2-  O501  1  0.40831373  0.81177455  0.32458015  1
  O2-  O502  1  0.42769895  0.83161034  0.65473064  1
  O2-  O503  1  0.39005717  0.82538222  0.97690688  1
  O2-  O504  1  0.67962881  0.08341232  0.33643516  1
  O2-  O505  1  0.67474443  0.07478896  0.65389897  1
  O2-  O506  1  0.63818165  0.08628474  0.96886303  1
  O2-  O507  1  0.67241304  0.35925256  0.30413410  1
  O2-  O508  1  0.68288902  0.30619860  0.64197851  1
  O2-  O509  1  0.64549800  0.28531550  0.98839821  1
  O2-  O510  1  0.68020517  0.59663946  0.30419144  1
  O2-  O511  1  0.66396140  0.57371435  0.64697882  1
  O2-  O512  1  0.67501758  0.58696287  0.98884547  1
  O2-  O513  1  0.66024809  0.83132934  0.32384047  1
  O2-  O514  1  0.66582371  0.82907511  0.65781325  1
  O2-  O515  1  0.65814510  0.83029635  0.97281393  1
  O2-  O516  1  0.95418499  0.14271591  0.30719705  1
  O2-  O517  1  0.91525117  0.06794274  0.65721957  1
  O2-  O518  1  0.92907508  0.08990394  0.98533398  1
  O2-  O519  1  0.92419424  0.34508672  0.31630774  1
  O2-  O520  1  0.93282663  0.33932783  0.64510460  1
  O2-  O521  1  0.99161738  0.42852537  0.94660145  1
  O2-  O522  1  0.92386919  0.59098980  0.31108405  1
  O2-  O523  1  0.91728810  0.57826645  0.65031932  1
  O2-  O524  1  0.90276705  0.56737322  0.96095260  1
  O2-  O525  1  0.92681008  0.82276862  0.30166610  1
  O2-  O526  1  0.91174317  0.82302061  0.64866051  1
  O2-  O527  1  0.89544847  0.76348949  1.00402527  1
  O2-  O528  1  0.08525457  0.16455734  0.02657292  1
  O2-  O529  1  0.10018562  0.17139069  0.36460501  1
  O2-  O530  1  0.08010319  0.14408332  0.69976999  1
  O2-  O531  1  0.10111332  0.42503747  0.02780829  1
  O2-  O532  1  0.08707541  0.41060713  0.36136465  1
  O2-  O533  1  0.09413392  0.43498754  0.67308599  1
  O2-  O534  1  0.13011073  0.70486766  0.00708945  1
  O2-  O535  1  0.08329383  0.65925902  0.36085938  1
  O2-  O536  1  0.07610588  0.65540663  0.69128495  1
  O2-  O537  1  0.07311244  0.87353422  0.02559649  1
  O2-  O538  1  0.08404973  0.90790291  0.35091337  1
  O2-  O539  1  0.07281099  0.89485277  0.68954944  1
  O2-  O540  1  0.31475337  0.16196252  0.01333932  1
  O2-  O541  1  0.32851780  0.18351523  0.35489773  1
  O2-  O542  1  0.31995037  0.14334049  0.68936261  1
  O2-  O543  1  0.33323678  0.42103188  0.03084285  1
  O2-  O544  1  0.33548253  0.42174193  0.35363345  1
  O2-  O545  1  0.30749865  0.44871409  0.70435766  1
  O2-  O546  1  0.33561984  0.67138915  0.02758529  1
  O2-  O547  1  0.32558078  0.64561609  0.36317399  1
  O2-  O548  1  0.33571160  0.67986779  0.68745211  1
  O2-  O549  1  0.32673522  0.91380075  0.03863392  1
  O2-  O550  1  0.32364007  0.89749059  0.35380869  1
  O2-  O551  1  0.30677980  0.90940248  0.71485327  1
  O2-  O552  1  0.60627175  0.19990400  0.02051426  1
  O2-  O553  1  0.57024478  0.13788598  0.37533512  1
  O2-  O554  1  0.58931608  0.15785200  0.69256671  1
  O2-  O555  1  0.58427190  0.40521244  0.01883069  1
  O2-  O556  1  0.59034258  0.43206066  0.34675281  1
  O2-  O557  1  0.59404792  0.39530642  0.67518973  1
  O2-  O558  1  0.58928315  0.67424558  0.02377042  1
  O2-  O559  1  0.58574121  0.66430990  0.35843508  1
  O2-  O560  1  0.58373280  0.66106913  0.68884190  1
  O2-  O561  1  0.56492833  0.91959280  -0.00391064  1
  O2-  O562  1  0.57395555  0.90529727  0.35914428  1
  O2-  O563  1  0.58330246  0.91041226  0.69536758  1
  O2-  O564  1  0.77047825  0.06331453  -0.03334889  1
  O2-  O565  1  0.84984700  0.18575915  0.35908662  1
  O2-  O566  1  0.84332288  0.16878523  0.68056323  1
  O2-  O567  1  0.80478173  0.42311948  0.02137214  1
  O2-  O568  1  0.83788410  0.42519911  0.35273290  1
  O2-  O569  1  0.84139093  0.41401690  0.69365844  1
  O2-  O570  1  0.84666347  0.67212589  0.02162388  1
  O2-  O571  1  0.84424447  0.67674282  0.33815093  1
  O2-  O572  1  0.83047028  0.65890866  0.68890644  1
  O2-  O573  1  0.82337927  0.91204469  0.01445977  1
  O2-  O574  1  0.82014815  0.91245921  0.36330862  1
  O2-  O575  1  0.83414774  0.90561872  0.69995706  1
