# generated using pymatgen
data_H2O
_symmetry_space_group_name_H-M   'P 1'
_cell_length_a   17.99382146
_cell_length_b   17.99352074
_cell_length_c   22.00342954
_cell_angle_alpha   89.99701547
_cell_angle_beta   90.00746995
_cell_angle_gamma   120.00370284
_symmetry_Int_Tables_number   1
_chemical_formula_structural   H2O
_chemical_formula_sum   'H384 O192'
_cell_volume   6169.42025457
_cell_formula_units_Z   192
loop_
 _symmetry_equiv_pos_site_id
 _symmetry_equiv_pos_as_xyz
  1  'x, y, z'
loop_
 _atom_type_symbol
 _atom_type_oxidation_number
  H+  1.0
  O2-  -2.0
loop_
 _atom_site_type_symbol
 _atom_site_label
 _atom_site_symmetry_multiplicity
 _atom_site_fract_x
 _atom_site_fract_y
 _atom_site_fract_z
 _atom_site_occupancy
  H+  H0  1  0.22602201  0.36839105  0.99780221  1
  H+  H1  1  0.27924360  0.39563267  0.16545810  1
  H+  H2  1  0.38605582  0.11849250  0.16992479  1
  H+  H3  1  0.14310961  0.85828971  0.98071408  1
  H+  H4  1  0.36195386  0.89015117  0.15941821  1
  H+  H5  1  0.36621933  0.26584894  0.65913945  1
  H+  H6  1  0.38382281  0.11140400  0.99619122  1
  H+  H7  1  0.17216353  0.28629829  0.51825625  1
  H+  H8  1  0.35858724  0.29512567  0.85200631  1
  H+  H9  1  0.86445132  0.89607368  0.00368070  1
  H+  H10  1  0.38763027  0.61138023  0.50350921  1
  H+  H11  1  0.11533550  0.14029032  0.00412257  1
  H+  H12  1  0.58467750  0.37907610  0.85255296  1
  H+  H13  1  0.64332739  0.85717127  0.64366010  1
  H+  H14  1  0.23111958  0.11084792  0.83550891  1
  H+  H15  1  0.09947919  0.96632248  0.67805747  1
  H+  H16  1  0.47339936  0.16540537  0.64809390  1
  H+  H17  1  0.37168638  -0.01096539  0.48727088  1
  H+  H18  1  0.77694500  0.38902763  0.99987923  1
  H+  H19  1  0.54727629  0.11608240  0.67376759  1
  H+  H20  1  0.10063049  0.37381456  0.67632309  1
  H+  H21  1  0.48238877  0.11667282  0.84362604  1
  H+  H22  1  0.39580046  0.85126326  0.88887368  1
  H+  H23  1  0.85656202  0.19253209  0.76717095  1
  H+  H24  1  0.81434905  0.66568542  0.77318260  1
  H+  H25  1  0.13257423  0.35608945  0.83884710  1
  H+  H26  1  0.13544771  0.46754509  0.32151512  1
  H+  H27  1  0.11339126  0.89614685  0.15662104  1
  H+  H28  1  0.24183786  0.60653343  0.51774411  1
  H+  H29  1  0.84176142  0.72893579  0.68730370  1
  H+  H30  1  0.50029590  0.13345058  0.31913193  1
  H+  H31  1  0.89355508  0.12665557  0.65512082  1
  H+  H32  1  0.61550776  0.22165539  0.48466628  1
  H+  H33  1  0.87311617  0.23784637  0.15305885  1
  H+  H34  1  0.37339823  0.12819895  0.82405775  1
  H+  H35  1  0.12081400  0.22756610  0.67832638  1
  H+  H36  1  0.59420832  0.47130803  0.84546869  1
  H+  H37  1  0.89870777  0.28125057  0.84108432  1
  H+  H38  1  0.38834037  0.02944376  0.16739843  1
  H+  H39  1  0.63151701  0.35091039  0.65066823  1
  H+  H40  1  0.09847681  0.50369641  0.97479416  1
  H+  H41  1  0.48640279  0.63743557  0.50821961  1
  H+  H42  1  0.72126432  0.11938210  0.84300144  1
  H+  H43  1  0.23039297  0.11960417  -0.00807398  1
  H+  H44  1  0.97726433  0.87100170  0.98804552  1
  H+  H45  1  0.27867361  0.14740127  0.16147827  1
  H+  H46  1  0.51817998  0.37377940  0.50810833  1
  H+  H47  1  0.13998054  0.37213102  0.16768434  1
  H+  H48  1  0.85946236  0.47263129  0.49890711  1
  H+  H49  1  0.72932445  0.12568405  0.98748051  1
  H+  H50  1  0.76994969  0.38321261  0.49558871  1
  H+  H51  1  0.11525146  0.49381075  0.66150313  1
  H+  H52  1  0.02684890  0.14375184  0.16241773  1
  H+  H53  1  0.63465998  0.35321380  0.51262425  1
  H+  H54  1  0.86138979  0.22329532  0.49362282  1
  H+  H55  1  0.35811568  0.47694686  0.66319250  1
  H+  H56  1  0.63885314  0.27770319  0.98992106  1
  H+  H57  1  0.83473810  0.72819737  0.50487208  1
  H+  H58  1  0.13928253  0.27709425  0.99577225  1
  H+  H59  1  0.27065762  0.13368760  0.47819143  1
  H+  H60  1  0.35416193  0.22171870  0.00845260  1
  H+  H61  1  0.52878197  0.15325419  0.15359174  1
  H+  H62  1  0.38678645  0.21860333  0.80271156  1
  H+  H63  1  0.08625631  0.73327567  0.38663654  1
  H+  H64  1  0.85180922  0.63686537  0.82941987  1
  H+  H65  1  0.13996350  0.12402688  0.17220590  1
  H+  H66  1  0.75998522  0.60236555  0.15204843  1
  H+  H67  1  0.64163603  0.10685604  0.49221026  1
  H+  H68  1  0.36915824  0.23548754  0.16090033  1
  H+  H69  1  0.88474908  0.53095362  0.32151393  1
  H+  H70  1  0.38621754  0.35893606  0.49920100  1
  H+  H71  1  0.22974120  0.37082490  0.66476443  1
  H+  H72  1  0.39462949  0.87879890  0.49592737  1
  H+  H73  1  0.77280858  0.13340821  0.49392767  1
  H+  H74  1  0.29741549  0.91726113  0.65719750  1
  H+  H75  1  0.11343730  0.72957927  0.15015655  1
  H+  H76  1  0.60456167  0.86911978  0.48170292  1
  H+  H77  1  0.17007969  0.28321969  0.31607584  1
  H+  H78  1  0.99100641  0.40596029  0.31206486  1
  H+  H79  1  0.21284462  0.85072347  0.82200083  1
  H+  H80  1  0.38472032  0.78242670  0.83823100  1
  H+  H81  1  0.13945162  0.51707474  0.51802289  1
  H+  H82  1  0.61568943  0.21827276  0.67447366  1
  H+  H83  1  0.39995065  0.12650847  0.31785755  1
  H+  H84  1  0.36799213  0.39366577  0.16516208  1
  H+  H85  1  0.10873211  0.88316247  0.82597123  1
  H+  H86  1  0.68243602  0.62511036  0.50478164  1
  H+  H87  1  0.02126080  0.88664111  0.82876906  1
  H+  H88  1  0.86580196  0.40958380  0.33490989  1
  H+  H89  1  0.59806554  0.36323758  0.34323146  1
  H+  H90  1  0.55961646  0.91361717  0.67035066  1
  H+  H91  1  0.78015385  0.38627996  0.84118134  1
  H+  H92  1  0.87940382  0.77218611  0.83970775  1
  H+  H93  1  0.60933290  0.93361385  0.73285096  1
  H+  H94  1  0.64054359  0.88199928  1.00470189  1
  H+  H95  1  0.87554780  -0.02400353  0.48948191  1
  H+  H96  1  0.88784315  0.24870817  0.33150201  1
  H+  H97  1  0.23281272  0.61205161  0.02443041  1
  H+  H98  1  0.12249255  0.10967210  0.67100285  1
  H+  H99  1  0.11124737  0.46845746  0.34950134  1
  H+  H100  1  0.11959690  0.67054622  0.36025494  1
  H+  H101  1  0.84152531  0.34865589  0.69198821  1
  H+  H102  1  0.60470732  0.47014925  0.64821486  1
  H+  H103  1  0.38833305  0.62041887  0.65545253  1
  H+  H104  1  0.36450230  0.34966691  1.00862970  1
  H+  H105  1  0.88069534  0.86179859  0.51579762  1
  H+  H106  1  0.62853548  0.39971449  0.01527686  1
  H+  H107  1  0.61948260  0.60195207  0.66246576  1
  H+  H108  1  0.10185530  0.72125644  0.81423757  1
  H+  H109  1  0.38390892  0.00664655  0.66058434  1
  H+  H110  1  0.62171250  -0.00146215  0.83050564  1
  H+  H111  1  0.52519898  0.13586076  0.48291515  1
  H+  H112  1  0.62713533  0.48745957  1.01840793  1
  H+  H113  1  0.09583906  0.59112086  -0.02675088  1
  H+  H114  1  0.49492925  0.64395683  0.83081180  1
  H+  H115  1  0.15320756  0.33700899  0.47001542  1
  H+  H116  1  0.84991351  0.75287049  0.18379928  1
  H+  H117  1  0.98608206  0.59869583  0.52478401  1
  H+  H118  1  0.18040060  0.81342517  0.68807022  1
  H+  H119  1  0.04064006  0.10568846  0.31374747  1
  H+  H120  1  0.89346819  0.04060054  0.67031704  1
  H+  H121  1  0.28665344  0.13261567  0.32809921  1
  H+  H122  1  0.23068165  0.38575038  0.32366356  1
  H+  H123  1  0.02908546  0.39287249  0.82586110  1
  H+  H124  1  0.68326651  0.04669858  0.67335268  1
  H+  H125  1  0.61234025  0.52752763  0.51215842  1
  H+  H126  1  0.15143731  0.88228918  0.51752606  1
  H+  H127  1  0.90063728  0.91030529  0.18360985  1
  H+  H128  1  0.88242515  0.11070051  0.50468649  1
  H+  H129  1  0.50381740  0.60632369  0.98558911  1
  H+  H130  1  0.86388922  0.48038448  0.83303014  1
  H+  H131  1  0.89011399  0.03175826  0.98865535  1
  H+  H132  1  0.91535242  0.83931474  0.93088976  1
  H+  H133  1  0.64719888  0.64388097  0.32095130  1
  H+  H134  1  0.37074785  0.47478907  0.00973626  1
  H+  H135  1  0.89805003  0.51903490  0.16690021  1
  H+  H136  1  0.87516611  0.15022107  0.15425659  1
  H+  H137  1  0.14053921  1.02345018  0.83766739  1
  H+  H138  1  0.62749559  1.00098660  0.00827522  1
  H+  H139  1  0.99475500  0.92291412  0.18308858  1
  H+  H140  1  -0.02537566  0.61423861  0.32834186  1
  H+  H141  1  0.38154967  0.27845222  0.31892811  1
  H+  H142  1  0.17267434  0.08952414  0.93030761  1
  H+  H143  1  0.24921169  0.12102161  0.67150658  1
  H+  H144  1  0.66792735  0.59197229  0.23549675  1
  H+  H145  1  1.02754350  0.63600817  0.15457952  1
  H+  H146  1  0.11847129  0.48503247  0.15587010  1
  H+  H147  1  0.08910682  0.16929205  0.73868750  1
  H+  H148  1  0.47767753  0.36776052  0.17373204  1
  H+  H149  1  -0.03142733  0.61239473  0.83268927  1
  H+  H150  1  0.62645148  0.65501876  0.01016709  1
  H+  H151  1  0.63989113  0.61444198  0.17196775  1
  H+  H152  1  0.10906652  0.32756250  0.37417667  1
  H+  H153  1  0.62367227  0.76131481  0.64789666  1
  H+  H154  1  0.11487445  0.23394597  0.15917304  1
  H+  H155  1  -0.01915694  0.37287654  0.16398248  1
  H+  H156  1  0.87534977  0.98666908  0.80921587  1
  H+  H157  1  0.89726140  0.37000112  0.84393701  1
  H+  H158  1  0.13247651  0.98084389  0.32185630  1
  H+  H159  1  0.63103990  0.11296056  0.31569678  1
  H+  H160  1  0.72388891  0.36378525  0.32544972  1
  H+  H161  1  0.67250785  0.12945453  0.67969762  1
  H+  H162  1  0.58915704  0.42183020  0.10938422  1
  H+  H163  1  0.88934336  0.03217530  0.17168720  1
  H+  H164  1  0.89138126  0.91197418  0.70599847  1
  H+  H165  1  0.84728675  0.25037935  0.32721585  1
  H+  H166  1  0.51518208  0.37880551  0.64840469  1
  H+  H167  1  0.53345302  0.89444905  0.48402525  1
  H+  H168  1  0.83581483  -0.04580313  0.33821565  1
  H+  H169  1  0.38123239  0.50944245  0.81081444  1
  H+  H170  1  0.11311621  0.13709478  0.82916127  1
  H+  H171  1  -0.04434636  0.84511604  0.53590531  1
  H+  H172  1  0.84997049  0.87422866  0.34092031  1
  H+  H173  1  0.52649071  0.63887191  0.16118521  1
  H+  H174  1  0.80366686  0.62884319  0.49375793  1
  H+  H175  1  0.13897346  0.99532398  0.00170587  1
  H+  H176  1  0.61197869  0.47821643  0.17009124  1
  H+  H177  1  0.72474356  0.62684038  0.32425764  1
  H+  H178  1  0.07579836  0.90791704  0.73704007  1
  H+  H179  1  0.88291403  0.61405067  0.98858084  1
  H+  H180  1  0.23497952  0.65112110  0.34156676  1
  H+  H181  1  0.52442361  0.65852037  0.33222109  1
  H+  H182  1  0.86577347  0.72951757  1.00936335  1
  H+  H183  1  -0.00026684  0.12070697  0.48346471  1
  H+  H184  1  0.37353768  0.12739073  0.65209812  1
  H+  H185  1  0.87932111  0.48711931  0.67166837  1
  H+  H186  1  0.62239125  0.13134389  0.83983235  1
  H+  H187  1  0.83210370  0.41655110  0.09332288  1
  H+  H188  1  0.93686650  0.10363890  0.33289849  1
  H+  H189  1  0.70539845  0.82802729  0.34048039  1
  H+  H190  1  0.11797867  0.62250549  0.51774703  1
  H+  H191  1  0.84294982  0.91036443  0.43287391  1
  H+  H192  1  0.72497458  0.87450872  -0.00436324  1
  H+  H193  1  0.46018368  0.82758145  0.94810301  1
  H+  H194  1  0.77478287  0.38854905  0.15487870  1
  H+  H195  1  0.58116020  0.40987404  0.56284993  1
  H+  H196  1  0.27690496  0.64729972  0.82607799  1
  H+  H197  1  0.18675551  0.84844343  0.56944007  1
  H+  H198  1  0.19896930  0.15828227  0.54753986  1
  H+  H199  1  0.89112090  0.75245712  0.18821549  1
  H+  H200  1  0.12529184  0.12804472  0.49810127  1
  H+  H201  1  0.71788420  0.60960662  0.84695938  1
  H+  H202  1  0.09357617  0.38644123  0.52328709  1
  H+  H203  1  0.15457247  0.87271630  0.31164464  1
  H+  H204  1  0.52709489  0.14351385  1.00067823  1
  H+  H205  1  0.36627441  0.87125369  0.34276206  1
  H+  H206  1  0.61527640  0.23499082  0.33022821  1
  H+  H207  1  0.64867165  0.02250882  0.49590832  1
  H+  H208  1  0.06434037  0.20796397  0.44905298  1
  H+  H209  1  0.33771266  0.42831250  0.72670291  1
  H+  H210  1  0.22961519  0.87185771  0.15510299  1
  H+  H211  1  0.39532892  0.52905212  0.18402339  1
  H+  H212  1  0.83820046  0.07306369  0.33163378  1
  H+  H213  1  0.34748197  0.87442291  0.80719552  1
  H+  H214  1  0.28188447  0.88949592  0.33772598  1
  H+  H215  1  0.29695088  0.40398042  0.48535988  1
  H+  H216  1  0.37665501  0.64445419  0.02705213  1
  H+  H217  1  0.87236395  0.14668226  0.82346140  1
  H+  H218  1  0.63425550  0.61748488  0.84745210  1
  H+  H219  1  0.39403692  0.74840115  0.67289455  1
  H+  H220  1  0.51719137  0.88618925  0.33815500  1
  H+  H221  1  0.58816674  0.86509800  0.17079908  1
  H+  H222  1  0.64093274  0.28362340  0.16941502  1
  H+  H223  1  0.89273552  0.31636513  0.57697839  1
  H+  H224  1  0.97699473  0.11283239  0.83340608  1
  H+  H225  1  0.14077178  0.87135918  0.66870870  1
  H+  H226  1  0.54124544  0.91177484  0.01801776  1
  H+  H227  1  0.91149633  0.07863921  0.56345585  1
  H+  H228  1  0.92367865  0.33843463  0.93414362  1
  H+  H229  1  0.11083088  0.38541451  0.00547722  1
  H+  H230  1  0.28022335  0.63839924  0.16843133  1
  H+  H231  1  0.35753621  0.22312403  0.48515440  1
  H+  H232  1  0.11851306  0.48109540  0.81698954  1
  H+  H233  1  0.46481507  0.85814265  0.18350314  1
  H+  H234  1  0.45824190  0.37077291  0.85396837  1
  H+  H235  1  0.14292897  0.62474991  0.16683668  1
  H+  H236  1  0.39636947  0.79293910  0.48502833  1
  H+  H237  1  0.37621437  0.76558259  0.33538763  1
  H+  H238  1  0.36517899  0.41578028  0.82274142  1
  H+  H239  1  0.50705864  0.62741239  0.66923092  1
  H+  H240  1  -0.02025450  0.11927428  -0.01339389  1
  H+  H241  1  0.80090882  0.17003427  0.67496015  1
  H+  H242  1  0.85102395  0.60404310  0.14918412  1
  H+  H243  1  0.36731713  0.88198846  0.00127497  1
  H+  H244  1  0.13401929  0.76527338  0.98412302  1
  H+  H245  1  0.62416447  0.75297249  0.83391367  1
  H+  H246  1  0.15538000  0.10797854  0.32062740  1
  H+  H247  1  0.41656542  0.88928735  0.65016147  1
  H+  H248  1  0.37018854  0.65477996  0.83041488  1
  H+  H249  1  0.62884105  0.76505583  0.18017046  1
  H+  H250  1  0.32734603  0.61197475  0.36615392  1
  H+  H251  1  -0.03508735  0.85648673  0.67202584  1
  H+  H252  1  0.15736082  0.78558324  0.30236072  1
  H+  H253  1  0.00513692  0.38441535  0.51476243  1
  H+  H254  1  0.85536666  0.73257873  0.33699085  1
  H+  H255  1  0.71758579  0.34660232  0.66651292  1
  H+  H256  1  0.01563715  0.63938127  0.00066138  1
  H+  H257  1  0.75083291  0.86438705  0.16540495  1
  H+  H258  1  0.10703929  0.98887605  0.51978708  1
  H+  H259  1  0.41862738  0.78029275  0.00990938  1
  H+  H260  1  0.24934510  0.63715422  0.99537833  1
  H+  H261  1  0.63202458  0.74068533  0.43234574  1
  H+  H262  1  0.75627484  0.63762250  0.68038282  1
  H+  H263  1  0.88621099  0.27421734  0.99137579  1
  H+  H264  1  0.46751371  0.36265832  0.32556024  1
  H+  H265  1  0.73823423  0.09287852  0.34661952  1
  H+  H266  1  0.38749388  0.02411613  0.99215324  1
  H+  H267  1  0.61778722  0.14614160  -0.00043487  1
  H+  H268  1  0.61511174  0.73957294  1.00952361  1
  H+  H269  1  0.97767707  0.86753185  0.32795142  1
  H+  H270  1  0.27582853  0.87647239  -0.00346235  1
  H+  H271  1  0.62170704  1.01919963  0.31761410  1
  H+  H272  1  0.89007653  0.86550899  0.83111570  1
  H+  H273  1  0.01873763  0.38078099  0.00749375  1
  H+  H274  1  0.08870020  0.68917399  0.65046131  1
  H+  H275  1  0.62355653  0.87288536  0.84682068  1
  H+  H276  1  0.95799937  0.32885453  0.67276055  1
  H+  H277  1  0.37139034  0.64088520  0.17777695  1
  H+  H278  1  0.66349365  0.35023689  0.80666921  1
  H+  H279  1  0.87392263  0.35935898  0.51788586  1
  H+  H280  1  0.31642072  0.14933238  0.72799487  1
  H+  H281  1  0.14052656  0.03462026  0.16855788  1
  H+  H282  1  0.86610667  0.14287176  0.99775624  1
  H+  H283  1  0.91055064  0.61914985  0.52934571  1
  H+  H284  1  0.35204665  0.69474664  0.52554650  1
  H+  H285  1  0.28092322  0.90049912  0.49322912  1
  H+  H286  1  0.38781877  0.11753978  0.49515442  1
  H+  H287  1  0.13650048  0.61419179  0.82313560  1
  H+  H288  1  0.38897693  0.48762445  0.48635117  1
  H+  H289  1  0.66896256  0.33580418  0.26285836  1
  H+  H290  1  0.37071327  0.51749719  0.33613925  1
  H+  H291  1  0.63148601  0.25903044  0.83885223  1
  H+  H292  1  0.88885305  0.36847440  0.16210406  1
  H+  H293  1  0.79472254  0.82063425  0.13104296  1
  H+  H294  1  0.08400557  0.16815949  0.06386791  1
  H+  H295  1  0.15901883  0.32850407  0.90031711  1
  H+  H296  1  0.37579990  0.77427620  0.18737956  1
  H+  H297  1  0.82888872  0.91991221  0.06250648  1
  H+  H298  1  0.16867742  0.34266837  0.60699220  1
  H+  H299  1  0.82862335  0.41879189  0.39936873  1
  H+  H300  1  0.33728120  0.91739733  0.40487987  1
  H+  H301  1  0.41978445  0.09734357  0.55705383  1
  H+  H302  1  0.44349159  0.59678323  0.89017328  1
  H+  H303  1  0.16585968  0.34152992  0.22847561  1
  H+  H304  1  0.86716350  0.39016902  0.00115673  1
  H+  H305  1  0.37954880  0.68952167  0.08933531  1
  H+  H306  1  0.88503533  0.52524408  0.98855210  1
  H+  H307  1  0.89469497  0.83390131  0.62007447  1
  H+  H308  1  0.06754213  0.13554331  0.38285559  1
  H+  H309  1  0.48339566  0.52278048  0.94974366  1
  H+  H310  1  0.66843792  0.31705894  0.56475531  1
  H+  H311  1  0.32509139  0.66382492  0.42396040  1
  H+  H312  1  0.33486762  0.45567762  0.39260400  1
  H+  H313  1  0.90624454  0.54716656  0.61185295  1
  H+  H314  1  0.33996577  0.91726991  0.09449508  1
  H+  H315  1  0.13224200  0.06481207  0.61002951  1
  H+  H316  1  0.57578584  0.91828899  0.11965036  1
  H+  H317  1  0.42981252  0.09562544  0.25430711  1
  H+  H318  1  0.10937417  0.22524917  0.83186851  1
  H+  H319  1  0.44144485  0.59766195  0.23958098  1
  H+  H320  1  0.14807128  0.57478480  0.88381856  1
  H+  H321  1  0.16421789  0.56367834  0.59631334  1
  H+  H322  1  0.04954240  0.92404435  0.47073998  1
  H+  H323  1  0.14341381  0.57670226  0.32646721  1
  H+  H324  1  0.80457302  0.12285708  0.40503272  1
  H+  H325  1  0.65450992  0.81455570  0.24349294  1
  H+  H326  1  0.35536820  0.68764598  0.73055253  1
  H+  H327  1  0.73145848  0.62453957  -0.00313251  1
  H+  H328  1  0.64268867  0.37328850  0.17586931  1
  H+  H329  1  0.82842361  0.65295556  0.06167005  1
  H+  H330  1  0.66701081  0.34013122  0.93259485  1
  H+  H331  1  0.84031877  0.17358480  0.05901883  1
  H+  H332  1  0.92871456  0.87141499  0.27004201  1
  H+  H333  1  0.40189786  0.82588856  0.27204883  1
  H+  H334  1  0.82260441  0.39567080  0.74693797  1
  H+  H335  1  0.41548406  0.33881378  0.23239866  1
  H+  H336  1  0.00427845  0.59912749  0.66927807  1
  H+  H337  1  0.06219329  0.34795596  0.43076040  1
  H+  H338  1  0.58801735  0.18417763  0.09503620  1
  H+  H339  1  0.56610939  0.66401489  0.72906844  1
  H+  H340  1  0.58752969  0.16177815  0.77929302  1
  H+  H341  1  0.41508824  0.58609062  0.59517189  1
  H+  H342  1  0.17697710  0.84612180  0.21572037  1
  H+  H343  1  0.58543455  0.67366493  0.10089174  1
  H+  H344  1  0.18454295  0.95754684  0.04076017  1
  H+  H345  1  0.61661671  0.78236117  0.55110672  1
  H+  H346  1  0.18053442  0.08570623  0.25636877  1
  H+  H347  1  0.11981024  0.58892901  0.65908155  1
  H+  H348  1  0.39661608  0.31889414  0.56237744  1
  H+  H349  1  0.33501099  0.42858908  0.07478593  1
  H+  H350  1  0.64908972  0.58523454  0.59899728  1
  H+  H351  1  0.32783067  0.91394012  0.74898597  1
  H+  H352  1  0.91443422  0.58664185  0.89526660  1
  H+  H353  1  0.41700217  0.08814807  0.89923321  1
  H+  H354  1  0.91429382  0.08063341  0.89052338  1
  H+  H355  1  0.44398912  0.66814515  0.31578064  1
  H+  H356  1  0.66539159  0.59021013  0.94119631  1
  H+  H357  1  0.58015436  0.17021352  0.38977329  1
  H+  H358  1  0.11066476  0.92204266  0.38047305  1
  H+  H359  1  0.53149489  0.90958280  0.82235370  1
  H+  H360  1  0.32986765  0.16278081  0.06754227  1
  H+  H361  1  0.08474994  0.92972454  0.10000999  1
  H+  H362  1  0.08830345  0.42468842  0.09584765  1
  H+  H363  1  0.81583906  0.68285481  0.39834850  1
  H+  H364  1  0.17228777  0.60586430  0.22998933  1
  H+  H365  1  0.08288341  0.65399818  0.46272537  1
  H+  H366  1  0.67564529  0.06403471  0.22074949  1
  H+  H367  1  0.93412344  0.37957627  0.25217728  1
  H+  H368  1  0.66748001  0.72122826  0.78520595  1
  H+  H369  1  0.66704872  0.09182253  0.92730468  1
  H+  H370  1  0.92851609  0.58062610  0.22612652  1
  H+  H371  1  0.08013882  0.66603056  0.05800260  1
  H+  H372  1  0.37375653  0.35900531  0.65742498  1
  H+  H373  1  0.39315307  0.33043145  0.94574161  1
  H+  H374  1  0.07144806  0.40676605  0.73467014  1
  H+  H375  1  0.44338707  0.85296526  0.59440422  1
  H+  H376  1  0.64633961  0.83879835  0.90945378  1
  H+  H377  1  0.90630864  0.08130504  0.23379654  1
  H+  H378  1  0.59010996  0.42734841  0.38762434  1
  H+  H379  1  0.73398879  0.09783143  0.16339400  1
  H+  H380  1  0.58803329  0.92081634  0.38960004  1
  H+  H381  1  0.34373832  0.16617117  0.38874327  1
  H+  H382  1  0.07111912  0.65794071  0.75620499  1
  H+  H383  1  0.16264554  0.82360910  0.88636557  1
  O2-  O384  1  0.08640248  0.17243057  0.14580512  1
  O2-  O385  1  0.05735581  0.15129944  0.45967466  1
  O2-  O386  1  0.08046238  0.16437813  0.81423620  1
  O2-  O387  1  0.08921226  0.42454194  0.14190101  1
  O2-  O388  1  0.06659397  0.41256690  0.49958207  1
  O2-  O389  1  0.08641970  0.41888652  0.80505655  1
  O2-  O390  1  0.08830405  0.66863411  0.13766473  1
  O2-  O391  1  0.08116945  0.64759357  0.50732627  1
  O2-  O392  1  0.07108499  0.65952049  0.80130310  1
  O2-  O393  1  0.08515827  0.93009655  0.14503333  1
  O2-  O394  1  0.07733909  0.92727899  0.50946524  1
  O2-  O395  1  0.08139163  0.91776501  0.81303692  1
  O2-  O396  1  0.33890006  0.17374388  0.14658957  1
  O2-  O397  1  0.33167514  0.16349623  0.46668161  1
  O2-  O398  1  0.34213531  0.15843099  0.80368723  1
  O2-  O399  1  0.34052494  0.42844182  0.15246238  1
  O2-  O400  1  0.35585567  0.42825191  0.46900044  1
  O2-  O401  1  0.34973203  0.44972123  0.79565011  1
  O2-  O402  1  0.34332848  0.67306952  0.16147046  1
  O2-  O403  1  0.32300369  0.65156799  0.49401922  1
  O2-  O404  1  0.33915858  0.68376360  0.81501859  1
  O2-  O405  1  0.33564538  0.92165328  0.13953266  1
  O2-  O406  1  0.33981176  0.92755487  0.47277267  1
  O2-  O407  1  0.30276178  0.88248936  0.78711699  1
  O2-  O408  1  0.58870646  0.18843780  0.14008646  1
  O2-  O409  1  0.58379778  0.16384373  0.46503836  1
  O2-  O410  1  0.58831426  0.16575396  0.82402747  1
  O2-  O411  1  0.58243321  0.41727493  0.15514626  1
  O2-  O412  1  0.58054441  0.40821613  0.51723844  1
  O2-  O413  1  0.55652355  0.40919117  0.83564383  1
  O2-  O414  1  0.58718885  0.67107223  0.14629908  1
  O2-  O415  1  0.65711675  0.75955480  0.47485118  1
  O2-  O416  1  0.61585291  0.69800821  0.81026859  1
  O2-  O417  1  0.54379980  0.87075611  0.14823282  1
  O2-  O418  1  0.59289349  0.91526651  0.46959486  1
  O2-  O419  1  0.59282688  0.93663381  0.81189752  1
  O2-  O420  1  0.84718997  0.17936092  0.13460766  1
  O2-  O421  1  0.83523497  0.16336085  0.47929467  1
  O2-  O422  1  0.84836132  0.18414008  0.81164358  1
  O2-  O423  1  0.83501986  0.41562542  0.13873258  1
  O2-  O424  1  0.83150248  0.41332102  0.48212453  1
  O2-  O425  1  0.83761804  0.41738921  0.82214177  1
  O2-  O426  1  0.80835429  0.61117452  0.12526328  1
  O2-  O427  1  0.79641754  0.67601091  0.47971220  1
  O2-  O428  1  0.81910253  0.66667784  0.81976598  1
  O2-  O429  1  0.80442436  0.87774147  0.14078086  1
  O2-  O430  1  0.87343633  0.92388400  0.47255759  1
  O2-  O431  1  0.85585907  0.93084869  0.78639725  1
  O2-  O432  1  0.17202783  0.09426356  0.18554689  1
  O2-  O433  1  0.16358122  0.11071031  0.52015590  1
  O2-  O434  1  0.17257347  0.08416266  0.85275297  1
  O2-  O435  1  0.16822124  0.33977317  0.18340889  1
  O2-  O436  1  0.18512877  0.34475341  0.50960863  1
  O2-  O437  1  0.15464706  0.31987809  0.85564609  1
  O2-  O438  1  0.17222995  0.59517978  0.18621350  1
  O2-  O439  1  0.17598122  0.57423436  0.53745531  1
  O2-  O440  1  0.16845525  0.58681333  0.83990471  1
  O2-  O441  1  0.16898709  0.84300475  0.17116589  1
  O2-  O442  1  0.18977191  0.85899130  0.52531952  1
  O2-  O443  1  0.15423147  0.82431821  0.84160189  1
  O2-  O444  1  0.41728965  0.08853334  0.18483485  1
  O2-  O445  1  0.41934290  0.08949717  0.51222561  1
  O2-  O446  1  0.41990663  0.08953997  0.85402011  1
  O2-  O447  1  0.41535378  0.33730279  0.18617483  1
  O2-  O448  1  0.40209358  0.31744446  0.51708205  1
  O2-  O449  1  0.39711089  0.35268455  0.86715332  1
  O2-  O450  1  0.42772458  0.59145525  0.19504584  1
  O2-  O451  1  0.42781609  0.58972238  0.51606368  1
  O2-  O452  1  0.43676420  0.61180215  0.84767982  1
  O2-  O453  1  0.40412378  0.83532092  0.20175830  1
  O2-  O454  1  0.42546927  0.84726615  0.50733256  1
  O2-  O455  1  0.41473163  0.84611518  0.84844442  1
  O2-  O456  1  0.68343729  0.04687977  0.17977574  1
  O2-  O457  1  0.67483661  0.08255653  0.51059269  1
  O2-  O458  1  0.66214620  0.08803373  0.85828883  1
  O2-  O459  1  0.67500070  0.34324819  0.18778904  1
  O2-  O460  1  0.66718954  0.32189538  0.51962247  1
  O2-  O461  1  0.66014149  0.32566489  0.84675538  1
  O2-  O462  1  0.66678321  0.58272272  0.18955907  1
  O2-  O463  1  0.62855757  0.58576864  0.52615120  1
  O2-  O464  1  0.65716527  0.58108895  0.86305238  1
  O2-  O465  1  0.65884110  0.82419867  0.19899953  1
  O2-  O466  1  0.58901982  0.76323888  0.50894418  1
  O2-  O467  1  0.63750765  0.83005036  0.86482594  1
  O2-  O468  1  0.91991620  0.08971094  0.18905796  1
  O2-  O469  1  0.91443800  0.08063678  0.51776513  1
  O2-  O470  1  0.91442538  0.08112641  0.84515148  1
  O2-  O471  1  0.92126680  0.34171859  0.18057807  1
  O2-  O472  1  0.90437978  0.32888185  0.53318362  1
  O2-  O473  1  0.93033124  0.34202169  0.85727212  1
  O2-  O474  1  0.92979571  0.58041667  0.18024880  1
  O2-  O475  1  0.92142716  0.57173739  0.53446974  1
  O2-  O476  1  0.90900287  0.58326460  0.84976005  1
  O2-  O477  1  0.95289288  0.92934879  0.20849765  1
  O2-  O478  1  0.89385910  0.82178129  0.54174890  1
  O2-  O479  1  0.91378224  0.83391910  0.85335072  1
  O2-  O480  1  0.18439751  0.07844084  0.30214026  1
  O2-  O481  1  0.14490219  0.06967425  0.65349473  1
  O2-  O482  1  0.16941060  0.08892705  0.97588425  1
  O2-  O483  1  0.17255896  0.33841497  0.31035093  1
  O2-  O484  1  0.16684483  0.33843623  0.65126969  1
  O2-  O485  1  0.16659516  0.33748689  0.98090270  1
  O2-  O486  1  0.18025175  0.63859739  0.32013442  1
  O2-  O487  1  0.15018258  0.55614265  0.64668569  1
  O2-  O488  1  0.09740578  0.54694145  0.94739951  1
  O2-  O489  1  0.19141262  0.84779132  0.29744749  1
  O2-  O490  1  0.17911821  0.84814633  0.65448151  1
  O2-  O491  1  0.16984066  0.82505937  0.96639733  1
  O2-  O492  1  0.43438042  0.09937079  0.30118023  1
  O2-  O493  1  0.41966012  0.11519132  0.63571416  1
  O2-  O494  1  0.41676078  0.08493149  0.97898364  1
  O2-  O495  1  0.40992002  0.33910253  0.30628421  1
  O2-  O496  1  0.39912958  0.32410611  0.64114116  1
  O2-  O497  1  0.38976063  0.31728274  0.98963329  1
  O2-  O498  1  0.46146395  0.62499119  0.31381040  1
  O2-  O499  1  0.41004517  0.58156009  0.64038317  1
  O2-  O500  1  0.45747994  0.55735368  0.96080981  1
  O2-  O501  1  0.40060925  0.82470621  0.31920889  1
  O2-  O502  1  0.44744353  0.85846440  0.63905285  1
  O2-  O503  1  0.43277080  0.83335348  0.98465417  1
  O2-  O504  1  0.65913359  0.08040928  0.30311216  1
  O2-  O505  1  0.71209827  0.11000754  0.66564505  1
  O2-  O506  1  0.66803046  0.09514548  0.97479859  1
  O2-  O507  1  0.66406757  0.32998627  0.30869009  1
  O2-  O508  1  0.66045788  0.31595495  0.64564625  1
  O2-  O509  1  0.67246044  0.34000081  0.97695234  1
  O2-  O510  1  0.66548259  0.60324250  0.30672844  1
  O2-  O511  1  0.65245573  0.57644029  0.64425044  1
  O2-  O512  1  0.66865504  0.59604550  0.98642573  1
  O2-  O513  1  0.64446889  0.79363565  0.32587557  1
  O2-  O514  1  0.64912410  0.81271151  0.62134894  1
  O2-  O515  1  0.66229609  0.84407068  0.98738258  1
  O2-  O516  1  0.88669211  0.06366723  0.30951789  1
  O2-  O517  1  0.89017741  0.07521006  0.63693934  1
  O2-  O518  1  0.91996972  0.09021399  0.97027580  1
  O2-  O519  1  0.94533832  0.41049397  0.29212161  1
  O2-  O520  1  0.89523149  0.29537862  0.66079485  1
  O2-  O521  1  0.91860833  0.33684348  0.97961893  1
  O2-  O522  1  0.92564572  0.58495266  0.30076179  1
  O2-  O523  1  0.91262569  0.54724449  0.65665118  1
  O2-  O524  1  0.91484398  0.58568647  0.97263874  1
  O2-  O525  1  0.91940441  0.84511550  0.31200784  1
  O2-  O526  1  0.90313090  0.83756265  0.66515306  1
  O2-  O527  1  0.91678229  0.84164182  0.97668328  1
  O2-  O528  1  0.08389037  0.16955875  0.01860815  1
  O2-  O529  1  0.08782484  0.14575713  0.33957009  1
  O2-  O530  1  0.09425065  0.16789854  0.69328649  1
  O2-  O531  1  0.08012613  0.41498626  0.02145342  1
  O2-  O532  1  0.08158718  0.30892761  0.41506032  1
  O2-  O533  1  0.06430961  0.39930310  0.68830727  1
  O2-  O534  1  0.07784152  0.66847243  0.01275909  1
  O2-  O535  1  0.07260885  0.67395769  0.38230951  1
  O2-  O536  1  0.07093506  0.63939098  0.67675861  1
  O2-  O537  1  0.12833627  0.94020210  0.02310923  1
  O2-  O538  1  0.10231213  0.91839449  0.33661515  1
  O2-  O539  1  0.07551817  0.90528619  0.69124876  1
  O2-  O540  1  0.32683119  0.15904516  0.02220120  1
  O2-  O541  1  0.34706737  0.16555742  0.34343898  1
  O2-  O542  1  0.31176869  0.15445199  0.68295017  1
  O2-  O543  1  0.32807067  0.42080269  0.02957512  1
  O2-  O544  1  0.31660875  0.47499131  0.35608278  1
  O2-  O545  1  0.32941211  0.41757939  0.68079291  1
  O2-  O546  1  0.40621803  0.69928101  0.04794449  1
  O2-  O547  1  0.32390288  0.66324684  0.37681869  1
  O2-  O548  1  0.36124209  0.68769846  0.68585076  1
  O2-  O549  1  0.33452587  0.90987597  0.01465868  1
  O2-  O550  1  0.33935121  0.91070367  0.35784402  1
  O2-  O551  1  0.35817581  0.94493696  0.67026005  1
  O2-  O552  1  0.58787593  0.17771197  0.01416803  1
  O2-  O553  1  0.57954769  0.17200627  0.34385200  1
  O2-  O554  1  0.59531045  0.16160490  0.69586882  1
  O2-  O555  1  0.60113670  0.42895444  0.03550234  1
  O2-  O556  1  0.55621763  0.37322757  0.36630181  1
  O2-  O557  1  0.57786292  0.40626155  0.64084072  1
  O2-  O558  1  0.58828077  0.67822944  0.02327172  1
  O2-  O559  1  0.61122393  0.71136749  0.35896821  1
  O2-  O560  1  0.56810361  0.65734883  0.68487385  1
  O2-  O561  1  0.60261140  0.94291615  0.02864269  1
  O2-  O562  1  0.57875506  0.92340603  0.34534449  1
  O2-  O563  1  0.61786448  0.93660982  0.68768725  1
  O2-  O564  1  0.83650771  0.17331162  0.01336563  1
  O2-  O565  1  0.78234809  0.08475204  0.36908733  1
  O2-  O566  1  0.86849979  0.20911579  0.68524501  1
  O2-  O567  1  0.83749560  0.42187139  0.01513864  1
  O2-  O568  1  0.82353922  0.42260842  0.35467447  1
  O2-  O569  1  0.81596557  0.38492937  0.70187019  1
  O2-  O570  1  0.83412439  0.66693063  0.01611834  1
  O2-  O571  1  0.82236648  0.67467021  0.35473737  1
  O2-  O572  1  0.81186458  0.66876716  0.70219255  1
  O2-  O573  1  0.83512045  0.92755233  0.01784125  1
  O2-  O574  1  0.81168404  0.89586063  0.35597202  1
  O2-  O575  1  0.89973867  0.96472900  0.72794007  1
