# generated using pymatgen
data_H2O
_symmetry_space_group_name_H-M   'P 1'
_cell_length_a   17.98961419
_cell_length_b   17.99060794
_cell_length_c   21.99539565
_cell_angle_alpha   90.00888988
_cell_angle_beta   89.99067610
_cell_angle_gamma   119.96857989
_symmetry_Int_Tables_number   1
_chemical_formula_structural   H2O
_chemical_formula_sum   'H384 O192'
_cell_volume   6166.90852421
_cell_formula_units_Z   192
loop_
 _symmetry_equiv_pos_site_id
 _symmetry_equiv_pos_as_xyz
  1  'x, y, z'
loop_
 _atom_type_symbol
 _atom_type_oxidation_number
  H+  1.0
  O2-  -2.0
loop_
 _atom_site_type_symbol
 _atom_site_label
 _atom_site_symmetry_multiplicity
 _atom_site_fract_x
 _atom_site_fract_y
 _atom_site_fract_z
 _atom_site_occupancy
  H+  H0  1  0.77343551  0.89560096  0.34538254  1
  H+  H1  1  0.61392264  0.38754960  0.82743889  1
  H+  H2  1  0.35366977  0.71315617  0.00802112  1
  H+  H3  1  0.97451727  0.61798058  0.78707299  1
  H+  H4  1  0.86770136  0.14316041  0.33736818  1
  H+  H5  1  0.37558781  0.36711307  0.98533968  1
  H+  H6  1  0.71221535  0.81063790  0.18488658  1
  H+  H7  1  0.39500306  0.88600543  0.32763034  1
  H+  H8  1  0.82249225  0.70537882  0.18204737  1
  H+  H9  1  0.39141021  0.28753912  0.17922429  1
  H+  H10  1  0.48548967  0.63997761  0.65236824  1
  H+  H11  1  0.87512402  0.76615883  -0.00878784  1
  H+  H12  1  0.28826103  0.40464621  0.65266805  1
  H+  H13  1  0.90303375  0.64677360  0.15928754  1
  H+  H14  1  0.85212276  0.22107444  0.50112041  1
  H+  H15  1  0.84090519  0.58906853  0.84270918  1
  H+  H16  1  0.16165717  0.82458346  0.92901172  1
  H+  H17  1  0.86150859  0.72625406  0.82024266  1
  H+  H18  1  0.83981745  0.46146081  0.82286564  1
  H+  H19  1  0.70789341  0.02603631  0.62104193  1
  H+  H20  1  0.39468252  0.01670712  0.65451047  1
  H+  H21  1  0.10697161  0.49267235  0.34469411  1
  H+  H22  1  0.23076854  0.86671036  0.51060390  1
  H+  H23  1  0.62518603  0.64470461  0.50065216  1
  H+  H24  1  0.09241696  0.42399956  0.76417989  1
  H+  H25  1  0.77635077  0.12983580  0.67879366  1
  H+  H26  1  0.87661056  0.61094026  1.00073988  1
  H+  H27  1  0.64089132  0.08355097  0.17890402  1
  H+  H28  1  0.85747938  0.46876539  0.66678027  1
  H+  H29  1  0.46055969  0.83800911  0.17688284  1
  H+  H30  1  0.83569872  0.65242972  0.06344362  1
  H+  H31  1  0.72110806  0.11080564  0.51141150  1
  H+  H32  1  0.15104540  0.75608830  0.18634723  1
  H+  H33  1  0.37129741  0.49149109  0.66786583  1
  H+  H34  1  0.47415880  0.85561648  0.84265792  1
  H+  H35  1  0.52343810  0.58334477  0.78232376  1
  H+  H36  1  0.79680876  0.15679116  0.81952085  1
  H+  H37  1  0.61752759  0.64186740  0.35430975  1
  H+  H38  1  0.38212941  0.24415694  0.51517218  1
  H+  H39  1  0.64514494  0.36696582  0.50129977  1
  H+  H40  1  0.48241661  0.35926808  0.83954301  1
  H+  H41  1  0.38169237  0.73527020  0.81626026  1
  H+  H42  1  0.61126968  0.82163563  1.00591680  1
  H+  H43  1  0.02425706  0.14563210  0.49416275  1
  H+  H44  1  0.90320967  0.15817971  0.18667563  1
  H+  H45  1  0.97395121  0.86514067  0.83925312  1
  H+  H46  1  0.63793461  0.86045349  0.50464203  1
  H+  H47  1  0.60154094  0.84412806  0.82283937  1
  H+  H48  1  0.79949611  0.58350858  0.14429166  1
  H+  H49  1  0.87112851  0.00111664  0.15183803  1
  H+  H50  1  0.77002792  0.14457022  0.33992801  1
  H+  H51  1  0.85487442  0.63640016  0.66548950  1
  H+  H52  1  0.73196496  0.86304347  0.50536533  1
  H+  H53  1  0.62830394  -0.01692476  0.66325274  1
  H+  H54  1  0.85031255  0.87766143  0.66977146  1
  H+  H55  1  0.59543272  0.93341540  0.16684052  1
  H+  H56  1  0.87384702  0.34853357  0.65233607  1
  H+  H57  1  0.61843244  0.98195964  0.35229827  1
  H+  H58  1  0.37749404  0.89063110  0.67279036  1
  H+  H59  1  0.38638586  0.26216119  0.83809538  1
  H+  H60  1  0.09071592  0.96252733  0.33778597  1
  H+  H61  1  0.72807451  0.61303808  0.34409286  1
  H+  H62  1  0.61475341  0.23958751  0.33173525  1
  H+  H63  1  0.76997095  0.37929709  0.47203108  1
  H+  H64  1  0.97742822  0.37672902  0.18359498  1
  H+  H65  1  0.37780027  0.84773184  0.99229990  1
  H+  H66  1  0.47092455  0.05308432  0.98535998  1
  H+  H67  1  0.63841981  0.36238090  0.65447711  1
  H+  H68  1  0.32643929  0.10771867  0.37989885  1
  H+  H69  1  0.09881324  0.72704114  1.01316739  1
  H+  H70  1  0.61151564  0.28160324  1.01157229  1
  H+  H71  1  0.15118078  0.88401486  0.16824170  1
  H+  H72  1  0.63639699  0.60609397  0.82912951  1
  H+  H73  1  0.83976640  0.42239023  0.06651752  1
  H+  H74  1  0.13565628  0.11104433  0.16537387  1
  H+  H75  1  0.37611866  0.98877813  0.49237761  1
  H+  H76  1  0.69578966  0.43520899  0.96284467  1
  H+  H77  1  0.49798727  0.84764397  0.00865266  1
  H+  H78  1  1.00816089  0.05056400  0.20606685  1
  H+  H79  1  0.88641292  0.10921028  0.66419752  1
  H+  H80  1  0.03268637  0.14263805  0.82439832  1
  H+  H81  1  0.63640668  0.63338972  0.65867019  1
  H+  H82  1  1.02522825  0.38976947  0.82122796  1
  H+  H83  1  0.49531417  0.63020565  0.85197363  1
  H+  H84  1  0.88777373  0.03144315  0.51052986  1
  H+  H85  1  0.87870028  0.77191292  0.65384184  1
  H+  H86  1  0.48972673  0.38253270  0.65381409  1
  H+  H87  1  0.42928062  0.08355458  0.56661083  1
  H+  H88  1  0.59312776  0.36881878  0.20809430  1
  H+  H89  1  0.46368263  0.36591502  0.98629072  1
  H+  H90  1  0.14381295  0.77618407  0.50945026  1
  H+  H91  1  0.26640103  0.62374228  1.01040416  1
  H+  H92  1  0.86163743  0.13261195  0.20399572  1
  H+  H93  1  0.34829894  0.71472241  0.16411375  1
  H+  H94  1  0.10500059  0.87589011  -0.01740929  1
  H+  H95  1  0.89822576  0.28121072  0.83324548  1
  H+  H96  1  0.13712254  0.27673463  -0.01803583  1
  H+  H97  1  0.10640886  0.46997046  1.01417924  1
  H+  H98  1  0.62010130  0.13836685  0.67021020  1
  H+  H99  1  0.49437696  0.12563865  0.15135798  1
  H+  H100  1  0.87736977  0.41543955  0.16436025  1
  H+  H101  1  0.38643146  0.14293892  0.51365754  1
  H+  H102  1  0.60682125  0.37856483  0.33335530  1
  H+  H103  1  0.11258252  0.13048347  0.67603590  1
  H+  H104  1  0.70387557  0.62176813  0.20883827  1
  H+  H105  1  0.63815930  0.75879695  0.50382278  1
  H+  H106  1  0.11593978  0.48382642  0.49731602  1
  H+  H107  1  0.58509500  0.41121999  0.43274262  1
  H+  H108  1  0.11686060  0.72982762  0.34749122  1
  H+  H109  1  0.61594486  -0.03327509  0.49729911  1
  H+  H110  1  0.36503514  0.47937429  0.16508503  1
  H+  H111  1  0.90579672  0.82786291  0.89425130  1
  H+  H112  1  0.61533896  0.15758902  0.81468176  1
  H+  H113  1  0.40185228  0.38696819  0.65128382  1
  H+  H114  1  0.12104328  0.39537207  0.66982636  1
  H+  H115  1  0.85976328  0.22408319  0.66529109  1
  H+  H116  1  0.35612517  0.11978696  0.67016944  1
  H+  H117  1  0.70687551  0.05505785  0.19882734  1
  H+  H118  1  0.11411017  0.39434506  0.49715899  1
  H+  H119  1  0.97353575  0.36488506  0.50102129  1
  H+  H120  1  0.35753678  0.64058141  0.66436643  1
  H+  H121  1  0.15355599  0.61606617  0.84947540  1
  H+  H122  1  0.27279287  0.38006792  0.49982715  1
  H+  H123  1  0.79394038  0.42304075  0.16161606  1
  H+  H124  1  0.86340390  -0.01480324  0.34721243  1
  H+  H125  1  0.22918798  0.59721119  0.51257969  1
  H+  H126  1  0.86058620  0.69624047  0.52068319  1
  H+  H127  1  0.12570246  0.36537488  0.83003842  1
  H+  H128  1  0.31001533  0.18410594  0.38232294  1
  H+  H129  1  0.19572228  0.08914367  0.34172746  1
  H+  H130  1  0.00572415  0.87859494  0.18912543  1
  H+  H131  1  0.65240464  0.06568498  0.83641838  1
  H+  H132  1  0.78378086  0.40027127  0.00329781  1
  H+  H133  1  0.87232801  0.76763359  0.33798318  1
  H+  H134  1  0.23343484  0.12147879  0.99256010  1
  H+  H135  1  0.27716287  0.14945474  0.17002166  1
  H+  H136  1  0.80546617  0.17606871  0.15695705  1
  H+  H137  1  0.63287612  0.51890224  0.50833726  1
  H+  H138  1  -0.01172186  0.59089733  0.80506003  1
  H+  H139  1  0.01213188  0.39661275  0.35139260  1
  H+  H140  1  0.71637919  0.83947178  0.00633497  1
  H+  H141  1  0.22123037  0.10293771  0.65825196  1
  H+  H142  1  0.72548930  0.60108372  0.51281985  1
  H+  H143  1  0.27848030  0.38874749  0.16131359  1
  H+  H144  1  0.51545661  0.61709214  0.01053113  1
  H+  H145  1  0.08157617  0.42819923  0.41154042  1
  H+  H146  1  0.89568523  0.54774850  0.30612488  1
  H+  H147  1  0.21342086  0.84502535  0.99160880  1
  H+  H148  1  0.34341788  0.95840141  0.00288798  1
  H+  H149  1  0.12611432  0.85817093  0.32962553  1
  H+  H150  1  0.39093009  0.86840737  0.84141078  1
  H+  H151  1  0.12233461  0.63879592  0.49937785  1
  H+  H152  1  0.61476545  0.21444051  0.10494015  1
  H+  H153  1  0.02283034  0.12771303  0.67849420  1
  H+  H154  1  0.12794220  0.26867406  0.82907734  1
  H+  H155  1  0.09591639  0.87640768  0.67839730  1
  H+  H156  1  0.69268531  1.02989894  0.00213253  1
  H+  H157  1  0.13856452  0.36301557  0.17588756  1
  H+  H158  1  0.60104426  0.47765143  1.00407149  1
  H+  H159  1  0.16269094  0.80762805  0.83472104  1
  H+  H160  1  0.62045140  0.73302967  0.35247315  1
  H+  H161  1  0.14488839  0.12631342  0.83458434  1
  H+  H162  1  0.13176487  0.60704838  0.00602513  1
  H+  H163  1  0.37460001  0.27079861  0.33792313  1
  H+  H164  1  0.28512191  0.90394854  0.82848114  1
  H+  H165  1  0.15778258  0.57916511  0.27344400  1
  H+  H166  1  0.72703944  0.61171606  0.83396485  1
  H+  H167  1  0.27521947  0.14273188  0.82727348  1
  H+  H168  1  0.48073088  0.10962912  0.65389924  1
  H+  H169  1  0.84473241  0.84081574  0.14607008  1
  H+  H170  1  0.87708008  0.88098681  0.12989438  1
  H+  H171  1  0.80737109  0.13539857  0.00141312  1
  H+  H172  1  0.60365529  0.80799855  0.67503033  1
  H+  H173  1  0.35484418  0.46854281  0.49143427  1
  H+  H174  1  0.68782504  0.21176112  0.14225943  1
  H+  H175  1  0.07735328  0.92052104  0.77004140  1
  H+  H176  1  0.11034629  0.47259821  0.16557976  1
  H+  H177  1  0.05541288  0.69366528  0.07794114  1
  H+  H178  1  0.12735582  0.36035009  -0.01606942  1
  H+  H179  1  0.26727515  0.61892276  0.35256560  1
  H+  H180  1  0.26226672  0.37540378  0.33924926  1
  H+  H181  1  0.63718081  0.86756596  0.33427514  1
  H+  H182  1  0.87679230  1.01568877  0.66265513  1
  H+  H183  1  0.14264635  0.88503414  0.84217074  1
  H+  H184  1  0.35432464  0.23637768  0.00453580  1
  H+  H185  1  0.85466808  0.13421269  0.50788457  1
  H+  H186  1  0.88877227  0.36633556  0.98748402  1
  H+  H187  1  0.86151171  0.88766659  0.82424255  1
  H+  H188  1  0.49017349  0.12222658  0.50552622  1
  H+  H189  1  1.01885861  0.38144422  1.00951488  1
  H+  H190  1  0.72008634  0.84402677  0.82983656  1
  H+  H191  1  0.99774340  0.85057676  0.16172537  1
  H+  H192  1  0.61908770  0.26726087  0.21586610  1
  H+  H193  1  0.88708798  0.51733257  1.00341189  1
  H+  H194  1  0.86804830  0.23921606  0.33804388  1
  H+  H195  1  0.13041202  0.61443761  0.33274473  1
  H+  H196  1  -0.02442889  0.61698110  0.00873457  1
  H+  H197  1  0.10641566  0.75460552  0.65919932  1
  H+  H198  1  0.37754425  0.41696332  0.33746906  1
  H+  H199  1  0.59541059  0.69178614  0.16682580  1
  H+  H200  1  0.22526075  0.61843981  0.65578140  1
  H+  H201  1  0.11062651  0.98577601  0.82679569  1
  H+  H202  1  0.38741366  0.35521546  0.50518708  1
  H+  H203  1  0.28202837  0.91341723  0.15650027  1
  H+  H204  1  0.39050218  0.61017390  -0.00015987  1
  H+  H205  1  0.08196174  0.91014073  0.43195640  1
  H+  H206  1  0.61749012  0.93721033  0.82460117  1
  H+  H207  1  0.12903276  0.60838652  0.64974462  1
  H+  H208  1  0.12950848  1.01832613  0.65850274  1
  H+  H209  1  0.62072029  0.48496177  0.67620066  1
  H+  H210  1  0.63919519  0.75007619  0.82352685  1
  H+  H211  1  0.24631820  0.53688972  0.78955328  1
  H+  H212  1  0.91773458  0.12853971  0.99325305  1
  H+  H213  1  0.03041167  0.15680789  0.14210966  1
  H+  H214  1  0.89644091  0.57317488  0.70433553  1
  H+  H215  1  0.25269144  0.53475366  0.82293494  1
  H+  H216  1  0.77309443  0.96365275  0.14178520  1
  H+  H217  1  -0.02007796  0.12677127  0.34077036  1
  H+  H218  1  0.41338198  0.33104432  0.90166141  1
  H+  H219  1  0.40715697  0.28133770  0.36297459  1
  H+  H220  1  0.16118322  0.08657690  0.56249233  1
  H+  H221  1  0.37656160  0.98583313  0.82673063  1
  H+  H222  1  0.05478564  0.73405496  0.19573124  1
  H+  H223  1  0.98981412  0.87407192  0.50046049  1
  H+  H224  1  0.63234928  0.82891428  0.17775768  1
  H+  H225  1  0.15509976  1.03185061  0.17443699  1
  H+  H226  1  0.14110486  0.27095923  0.32969071  1
  H+  H227  1  0.26887402  0.89695761  0.33800772  1
  H+  H228  1  0.74639428  0.21790383  0.96913105  1
  H+  H229  1  0.08915688  0.17021036  0.76190613  1
  H+  H230  1  0.09817088  0.13420906  0.34565136  1
  H+  H231  1  0.62227020  0.47457015  0.34805962  1
  H+  H232  1  0.62070507  0.73301121  1.00975404  1
  H+  H233  1  0.36553996  0.15011532  0.15989952  1
  H+  H234  1  0.14409203  0.27794049  0.16871562  1
  H+  H235  1  0.63906521  0.60573944  -0.00755293  1
  H+  H236  1  0.36299909  0.13849059  0.83017426  1
  H+  H237  1  0.61443639  0.47272285  0.19459098  1
  H+  H238  1  0.13406840  0.02981561  0.50317731  1
  H+  H239  1  0.35880268  0.82223586  0.57512669  1
  H+  H240  1  0.86994554  0.90009171  0.49547290  1
  H+  H241  1  0.52735125  0.89715013  0.34288513  1
  H+  H242  1  0.61843258  0.14047625  0.49417569  1
  H+  H243  1  0.09671539  0.68358402  0.79556439  1
  H+  H244  1  0.89769131  0.80160802  0.47998502  1
  H+  H245  1  0.86841558  0.61454651  0.50670317  1
  H+  H246  1  0.87839666  0.30538366  0.17862571  1
  H+  H247  1  0.14386743  1.03100228  -0.01678858  1
  H+  H248  1  0.37929779  0.60642731  0.17669454  1
  H+  H249  1  0.87718951  0.23725510  0.00009190  1
  H+  H250  1  0.76913551  0.37904632  0.66647867  1
  H+  H251  1  0.98092704  0.60667005  0.51957960  1
  H+  H252  1  0.85439426  0.17846725  0.76059843  1
  H+  H253  1  0.12399041  0.48402378  0.67352546  1
  H+  H254  1  0.98050698  0.60851625  0.18063360  1
  H+  H255  1  0.77192478  0.62441616  0.00269318  1
  H+  H256  1  0.37962150  0.85249278  0.17321276  1
  H+  H257  1  0.61495462  0.19888703  0.00434705  1
  H+  H258  1  0.89240725  0.02574878  0.83745884  1
  H+  H259  1  0.11125072  0.14214713  0.49150813  1
  H+  H260  1  0.49447787  0.41472765  0.32494520  1
  H+  H261  1  0.88479499  0.36210138  0.48964581  1
  H+  H262  1  0.41020639  0.63206568  0.84160344  1
  H+  H263  1  0.36756217  0.47720119  1.00497197  1
  H+  H264  1  0.53233407  0.14734866  0.35230540  1
  H+  H265  1  0.11701692  0.88669672  0.49277457  1
  H+  H266  1  0.52687196  0.38259425  0.49276821  1
  H+  H267  1  0.89934467  0.11798084  0.83611120  1
  H+  H268  1  0.64439797  0.13252761  0.33951437  1
  H+  H269  1  0.47864875  0.12256547  0.83671146  1
  H+  H270  1  0.87189902  0.35423917  0.34595423  1
  H+  H271  1  0.00472299  0.87132897  0.33830438  1
  H+  H272  1  0.58875150  0.38890574  0.02636547  1
  H+  H273  1  0.67701622  0.04229968  1.03081415  1
  H+  H274  1  0.37771869  -0.01723597  0.14910324  1
  H+  H275  1  0.95958324  0.85698954  0.98440925  1
  H+  H276  1  0.38044085  0.03377153  0.34316896  1
  H+  H277  1  0.76320355  0.37942482  0.36955807  1
  H+  H278  1  0.65915356  0.58931391  0.60368383  1
  H+  H279  1  0.51469274  0.38626026  0.18166130  1
  H+  H280  1  0.63045560  0.27637820  0.83509218  1
  H+  H281  1  1.04001552  0.14528894  1.00072180  1
  H+  H282  1  0.22913534  0.60972251  0.17641802  1
  H+  H283  1  0.17358096  0.09572323  0.89449606  1
  H+  H284  1  0.61113183  0.47518511  0.82828481  1
  H+  H285  1  0.50169782  0.61035394  0.16427065  1
  H+  H286  1  0.46477976  0.13336560  -0.00046970  1
  H+  H287  1  0.72521038  0.35913057  0.83132324  1
  H+  H288  1  0.91669688  0.57237794  0.57587426  1
  H+  H289  1  0.42692179  0.59292705  0.93727614  1
  H+  H290  1  0.92370000  0.08427769  0.28100008  1
  H+  H291  1  0.93622994  0.09318969  0.93209577  1
  H+  H292  1  0.99167286  0.61328483  0.66158894  1
  H+  H293  1  0.32618498  0.18441387  0.06704975  1
  H+  H294  1  0.39114181  0.61925165  0.32782986  1
  H+  H295  1  0.93372678  -0.03157894  0.23487912  1
  H+  H296  1  0.41053028  0.82242602  0.93175792  1
  H+  H297  1  0.83975745  0.87286497  0.00613861  1
  H+  H298  1  0.87291403  0.85690834  0.33040403  1
  H+  H299  1  0.30711433  0.14861221  0.47817338  1
  H+  H300  1  0.14982907  0.81904309  0.27273389  1
  H+  H301  1  0.50638690  0.86288910  0.66986979  1
  H+  H302  1  0.18926336  0.94677508  0.11153243  1
  H+  H303  1  0.88712577  0.56676410  0.89476132  1
  H+  H304  1  0.05718327  0.62193993  0.71389420  1
  H+  H305  1  0.17614297  0.32900551  0.26854630  1
  H+  H306  1  0.82657794  0.75301961  0.24413260  1
  H+  H307  1  0.15130525  0.82668526  0.60913669  1
  H+  H308  1  0.41886617  0.60023041  0.59645453  1
  H+  H309  1  0.86895928  0.64435298  0.34715520  1
  H+  H310  1  0.66396502  0.82631566  0.27891255  1
  H+  H311  1  0.15565051  0.07959559  0.27428373  1
  H+  H312  1  0.11565276  0.51485232  0.84917247  1
  H+  H313  1  0.35749776  0.67742132  0.75580538  1
  H+  H314  1  0.07292093  0.90409833  0.03895800  1
  H+  H315  1  0.68236941  0.35794724  0.92220672  1
  H+  H316  1  0.02702524  0.64395395  0.34397371  1
  H+  H317  1  0.59635690  0.17933835  0.43497078  1
  H+  H318  1  0.07512024  0.41029734  0.10747049  1
  H+  H319  1  0.94264547  0.62834254  0.26064626  1
  H+  H320  1  0.39228401  0.37805361  0.17087887  1
  H+  H321  1  0.66235237  0.08407122  0.28459886  1
  H+  H322  1  0.09551501  0.17458244  0.08774655  1
  H+  H323  1  0.44555861  0.09468768  0.21160721  1
  H+  H324  1  0.32061033  0.65498180  0.10374078  1
  H+  H325  1  0.37900160  0.90296251  0.48458992  1
  H+  H326  1  0.57669177  0.17758385  0.75705179  1
  H+  H327  1  0.64606457  0.27822638  0.50306215  1
  H+  H328  1  0.67927574  0.12244881  0.98432101  1
  H+  H329  1  0.88761807  0.36516573  0.83297213  1
  H+  H330  1  0.58637621  0.66636264  0.74293735  1
  H+  H331  1  0.32908766  0.15309911  0.72835649  1
  H+  H332  1  0.32424271  0.40767121  0.40534049  1
  H+  H333  1  0.16680613  0.57785545  0.56906551  1
  H+  H334  1  0.41693893  0.84036598  0.27450373  1
  H+  H335  1  0.32358169  0.90419040  0.06327316  1
  H+  H336  1  0.81316567  0.20570980  0.09028592  1
  H+  H337  1  0.07792690  0.17119326  0.40813791  1
  H+  H338  1  0.48400176  0.62691692  0.32686207  1
  H+  H339  1  1.01260674  0.88593230  0.67647064  1
  H+  H340  1  0.12480046  0.61530370  0.12377733  1
  H+  H341  1  0.57168754  0.63568486  0.07284270  1
  H+  H342  1  0.76690389  0.64180353  0.66835041  1
  H+  H343  1  0.91749987  0.33686581  0.92557866  1
  H+  H344  1  0.34865023  0.92692405  0.72901747  1
  H+  H345  1  0.35793342  0.72981956  0.66569860  1
  H+  H346  1  0.59111023  0.67401317  0.44172264  1
  H+  H347  1  0.91285697  0.83578073  0.59656909  1
  H+  H348  1  0.43584354  0.39097139  0.26564490  1
  H+  H349  1  0.81729708  0.92888395  0.05438658  1
  H+  H350  1  0.65818434  0.57854714  0.28962487  1
  H+  H351  1  0.14661955  0.57220249  0.94313017  1
  H+  H352  1  0.83000308  0.91647286  0.76584312  1
  H+  H353  1  0.40985163  0.12228297  0.30687558  1
  H+  H354  1  0.58724076  0.90777082  0.43873646  1
  H+  H355  1  0.83903226  0.66055098  0.41265380  1
  H+  H356  1  0.42724731  0.34451842  0.57043547  1
  H+  H357  1  0.90020168  0.31898409  0.59165841  1
  H+  H358  1  0.68635366  0.13982843  0.88523597  1
  H+  H359  1  0.41716224  0.58754534  0.23889523  1
  H+  H360  1  0.83459455  0.92510282  0.43708838  1
  H+  H361  1  0.13048729  0.14796388  0.00179584  1
  H+  H362  1  0.64951489  0.07194486  0.56402608  1
  H+  H363  1  0.75686749  0.86430610  0.67962833  1
  H+  H364  1  0.82795125  0.40884826  0.75942195  1
  H+  H365  1  0.42479827  0.08846529  0.89909825  1
  H+  H366  1  0.15209175  0.33019942  0.89559345  1
  H+  H367  1  0.67005126  0.33554512  0.59364897  1
  H+  H368  1  0.83034771  0.66816558  0.75959856  1
  H+  H369  1  0.08679478  0.66617133  0.44254695  1
  H+  H370  1  0.58888053  0.41945792  0.73188077  1
  H+  H371  1  0.60793016  0.58681264  0.18976012  1
  H+  H372  1  0.59255063  0.92829236  0.01538082  1
  H+  H373  1  0.62037095  0.22751229  0.66259945  1
  H+  H374  1  0.18629776  0.73105684  0.76340119  1
  H+  H375  1  0.32675777  0.63123965  0.40877400  1
  H+  H376  1  0.91143888  0.34915066  0.27970096  1
  H+  H377  1  0.91952465  0.08620268  0.57147281  1
  H+  H378  1  0.30323441  0.40135694  0.77305584  1
  H+  H379  1  0.32881816  0.92491159  0.39755330  1
  H+  H380  1  0.56510341  0.88359079  0.73133087  1
  H+  H381  1  0.56441121  0.87317393  0.10733829  1
  H+  H382  1  0.66973828  0.58330628  0.92938529  1
  H+  H383  1  0.34159019  0.41801024  0.06352699  1
  O2-  O384  1  0.08953426  0.17089279  0.13485525  1
  O2-  O385  1  0.08158388  0.17226802  0.47434893  1
  O2-  O386  1  0.09275072  0.17740405  0.80919598  1
  O2-  O387  1  0.07586006  0.41118429  0.15317252  1
  O2-  O388  1  0.08495979  0.42335848  0.47884415  1
  O2-  O389  1  0.08735374  0.41978100  0.81060966  1
  O2-  O390  1  0.13056359  0.63019647  0.16710078  1
  O2-  O391  1  0.09034155  0.66873464  0.48772173  1
  O2-  O392  1  0.15855062  0.71698145  0.80322932  1
  O2-  O393  1  0.18695228  0.94593549  0.15578964  1
  O2-  O394  1  0.08496754  0.91519277  0.47716418  1
  O2-  O395  1  0.07999847  0.92330305  0.81592026  1
  O2-  O396  1  0.33603508  0.18306400  0.15302823  1
  O2-  O397  1  0.35010512  0.17351473  0.51132154  1
  O2-  O398  1  0.33751218  0.17284524  0.81447540  1
  O2-  O399  1  0.33951704  0.41964453  0.14765257  1
  O2-  O400  1  0.32974205  0.40735223  0.47943418  1
  O2-  O401  1  0.31147363  0.39218657  0.81647147  1
  O2-  O402  1  0.31811058  0.65358931  0.14950003  1
  O2-  O403  1  0.33815490  0.61603552  0.49276407  1
  O2-  O404  1  0.38276249  0.68646062  0.79714309  1
  O2-  O405  1  0.33670566  0.92106134  0.14081508  1
  O2-  O406  1  0.34319174  0.92833069  0.47604548  1
  O2-  O407  1  0.34439334  0.92459466  0.81345144  1
  O2-  O408  1  0.62799128  0.19983896  0.14582045  1
  O2-  O409  1  0.59144327  0.17527898  0.48032818  1
  O2-  O410  1  0.57652745  0.17944528  0.80274639  1
  O2-  O411  1  0.58233863  0.40961911  0.18083922  1
  O2-  O412  1  0.58747286  0.41423520  0.47847127  1
  O2-  O413  1  0.57951528  0.41414457  0.81356509  1
  O2-  O414  1  0.56344807  0.63290863  0.14974845  1
  O2-  O415  1  0.59872186  0.67939756  0.48740262  1
  O2-  O416  1  0.57725666  0.63750077  0.78731699  1
  O2-  O417  1  0.56948013  0.87341645  0.15261970  1
  O2-  O418  1  0.59295294  0.90663654  0.48363277  1
  O2-  O419  1  0.57324068  0.88029592  0.81223228  1
  O2-  O420  1  0.79346679  0.21333114  0.13133521  1
  O2-  O421  1  0.81801440  0.15825245  0.49435961  1
  O2-  O422  1  0.85714718  0.18100939  0.80686712  1
  O2-  O423  1  0.84760366  0.44022038  0.14027204  1
  O2-  O424  1  0.82431949  0.40234715  0.44666235  1
  O2-  O425  1  0.82481714  0.40420696  0.80522744  1
  O2-  O426  1  0.84649079  0.64062573  0.13420523  1
  O2-  O427  1  0.83672964  0.64702287  0.49330154  1
  O2-  O428  1  0.82871030  0.66577096  0.80517813  1
  O2-  O429  1  0.82785678  0.99210869  0.12059620  1
  O2-  O430  1  0.83337925  0.92437071  0.48268333  1
  O2-  O431  1  0.83109378  0.91869307  0.81134058  1
  O2-  O432  1  0.16290680  0.08608912  0.19170843  1
  O2-  O433  1  0.16157861  0.08986546  0.51711760  1
  O2-  O434  1  0.17270014  0.09292859  0.84906627  1
  O2-  O435  1  0.17238942  0.33535032  0.18822956  1
  O2-  O436  1  0.17918956  0.36130185  0.54634669  1
  O2-  O437  1  0.15253976  0.33027034  0.84703197  1
  O2-  O438  1  0.16574810  0.57836094  0.19294501  1
  O2-  O439  1  0.16848175  0.57770862  0.52251921  1
  O2-  O440  1  0.12091354  0.56404212  0.87376617  1
  O2-  O441  1  0.11878793  0.78486026  0.19697117  1
  O2-  O442  1  0.16984275  0.83732696  0.52304446  1
  O2-  O443  1  0.17861298  0.86050527  0.85831363  1
  O2-  O444  1  0.43582645  0.09355277  0.16785095  1
  O2-  O445  1  0.42864241  0.09002821  0.51995327  1
  O2-  O446  1  0.41961940  0.08886046  0.85432125  1
  O2-  O447  1  0.42452625  0.34993235  0.18966304  1
  O2-  O448  1  0.42096137  0.32980396  0.52242443  1
  O2-  O449  1  0.42088837  0.32514139  0.85470422  1
  O2-  O450  1  0.41060359  0.57782392  0.19191425  1
  O2-  O451  1  0.37465560  0.57594547  0.51590364  1
  O2-  O452  1  0.43703095  0.60595696  0.86787847  1
  O2-  O453  1  0.40034863  0.81535725  0.19046749  1
  O2-  O454  1  0.41909804  0.84183341  0.58326784  1
  O2-  O455  1  0.41538557  0.83402012  0.85949671  1
  O2-  O456  1  0.64747362  0.04177696  0.20372682  1
  O2-  O457  1  0.65603421  0.07898826  0.51959108  1
  O2-  O458  1  0.68719177  0.12763822  0.84114912  1
  O2-  O459  1  0.59056504  0.29133608  0.24097641  1
  O2-  O460  1  0.67988158  0.34044339  0.51515659  1
  O2-  O461  1  0.66737583  0.33578522  0.85177200  1
  O2-  O462  1  0.64574633  0.56848461  0.21146813  1
  O2-  O463  1  0.66457058  0.57891061  0.52441621  1
  O2-  O464  1  0.66740107  0.58091949  0.85131390  1
  O2-  O465  1  0.65540722  0.79627499  0.19987085  1
  O2-  O466  1  0.67037896  0.82879448  0.51898761  1
  O2-  O467  1  0.65913632  0.80631169  0.84228469  1
  O2-  O468  1  0.94717595  0.02323689  0.21649267  1
  O2-  O469  1  0.91873107  0.09127397  0.52608877  1
  O2-  O470  1  0.92676753  0.08604864  0.85284624  1
  O2-  O471  1  0.91843155  0.35868675  0.20033262  1
  O2-  O472  1  0.91173294  0.33354897  0.51163002  1
  O2-  O473  1  0.92161524  0.34024732  0.85111384  1
  O2-  O474  1  0.96935339  0.65384851  0.19374429  1
  O2-  O475  1  0.91941419  0.57391785  0.53125821  1
  O2-  O476  1  0.84008456  0.54071592  0.86568439  1
  O2-  O477  1  0.78908248  0.72194380  0.20939349  1
  O2-  O478  1  0.92580207  0.84470863  0.51165783  1
  O2-  O479  1  0.91124222  0.83023984  0.84927332  1
  O2-  O480  1  0.14160949  0.06936432  0.31821319  1
  O2-  O481  1  0.16068698  0.07801044  0.64259494  1
  O2-  O482  1  0.17421835  0.09239717  0.97262157  1
  O2-  O483  1  0.17909258  0.33025556  0.31374001  1
  O2-  O484  1  0.18416095  0.36679926  0.60490957  1
  O2-  O485  1  0.15085774  0.33038872  0.95987300  1
  O2-  O486  1  0.15374871  0.57643406  0.31869828  1
  O2-  O487  1  0.16497893  0.58202184  0.63929210  1
  O2-  O488  1  0.15786635  0.57524305  0.98898585  1
  O2-  O489  1  0.16188161  0.83231817  0.31691705  1
  O2-  O490  1  0.13592995  0.81740938  0.65262338  1
  O2-  O491  1  0.15389300  0.81597876  0.97458492  1
  O2-  O492  1  0.41122503  0.09901823  0.34654788  1
  O2-  O493  1  0.42221500  0.07776723  0.63657050  1
  O2-  O494  1  0.43161554  0.07541475  0.98166283  1
  O2-  O495  1  0.45108049  0.42459529  0.30378378  1
  O2-  O496  1  0.43315989  0.35907568  0.63359293  1
  O2-  O497  1  0.40493115  0.33454318  0.96798051  1
  O2-  O498  1  0.42832432  0.60149260  0.30553765  1
  O2-  O499  1  0.42332497  0.60200117  0.64116306  1
  O2-  O500  1  0.42437818  0.58482014  0.98360302  1
  O2-  O501  1  0.43248016  0.86266634  0.31620781  1
  O2-  O502  1  0.41611174  0.83077706  0.65011427  1
  O2-  O503  1  0.40781325  0.81725273  0.97808847  1
  O2-  O504  1  0.67586808  0.09995424  0.32773372  1
  O2-  O505  1  0.67119952  0.04116102  0.64447352  1
  O2-  O506  1  0.68730223  0.17260068  0.96067523  1
  O2-  O507  1  0.64214140  0.31940361  0.29790602  1
  O2-  O508  1  0.66520174  0.32898683  0.63901907  1
  O2-  O509  1  0.69109662  0.37883605  0.96638453  1
  O2-  O510  1  0.66539230  0.58203334  0.33466146  1
  O2-  O511  1  0.66151603  0.59535646  0.64878257  1
  O2-  O512  1  0.67261769  0.57997609  0.97497283  1
  O2-  O513  1  0.67062778  0.83819797  0.32317880  1
  O2-  O514  1  0.64261954  0.78361691  0.67073739  1
  O2-  O515  1  0.64833770  0.79659987  0.99435027  1
  O2-  O516  1  0.91738692  0.09539213  0.32399010  1
  O2-  O517  1  0.91320820  0.07582927  0.64869590  1
  O2-  O518  1  0.94378963  0.09608387  0.97719877  1
  O2-  O519  1  0.91249497  0.33946539  0.32458219  1
  O2-  O520  1  0.89598779  0.31165791  0.63639006  1
  O2-  O521  1  0.91259103  0.33078481  0.97157748  1
  O2-  O522  1  0.92875662  0.61023231  0.30620156  1
  O2-  O523  1  0.90269979  0.57579715  0.66017897  1
  O2-  O524  1  0.91533198  0.58127235  0.98993381  1
  O2-  O525  1  0.89658669  0.82160061  0.31332068  1
  O2-  O526  1  0.90825299  0.83407275  0.64127659  1
  O2-  O527  1  0.89693916  0.82542964  0.97617884  1
  O2-  O528  1  0.10060073  0.17830167  0.01816325  1
  O2-  O529  1  0.07405765  0.17022780  0.35990919  1
  O2-  O530  1  0.08226541  0.15901575  0.69426010  1
  O2-  O531  1  0.07616135  0.40923520  0.02898610  1
  O2-  O532  1  0.07432620  0.42983571  0.36421871  1
  O2-  O533  1  0.09947767  0.42674507  0.69335754  1
  O2-  O534  1  0.06447335  0.67354621  0.03877970  1
  O2-  O535  1  0.08613486  0.66831609  0.36096920  1
  O2-  O536  1  0.06052176  0.64157054  0.67226283  1
  O2-  O537  1  0.07546495  0.90873751  -0.00522155  1
  O2-  O538  1  0.06555449  0.90223023  0.35279072  1
  O2-  O539  1  0.07163756  0.91305073  0.69345559  1
  O2-  O540  1  0.32592933  0.17746567  0.02259795  1
  O2-  O541  1  0.28257291  0.12310686  0.39305333  1
  O2-  O542  1  0.32068757  0.14426314  0.68421140  1
  O2-  O543  1  0.33884995  0.41642432  0.01867925  1
  O2-  O544  1  0.32394177  0.41354416  0.35966257  1
  O2-  O545  1  0.34069268  0.42923676  0.67755970  1
  O2-  O546  1  0.32601004  0.65505189  0.02695433  1
  O2-  O547  1  0.32735519  0.64588444  0.36566862  1
  O2-  O548  1  0.32425216  0.66763415  0.67987468  1
  O2-  O549  1  0.31761805  0.89901553  0.01791011  1
  O2-  O550  1  0.32965119  0.93137070  0.35240339  1
  O2-  O551  1  0.35161288  0.92719251  0.68423102  1
  O2-  O552  1  0.58516791  0.22280231  0.02819211  1
  O2-  O553  1  0.59530083  0.18155177  0.35650068  1
  O2-  O554  1  0.58959751  0.16848870  0.68165955  1
  O2-  O555  1  0.55934262  0.42159076  0.02265066  1
  O2-  O556  1  0.58347056  0.41192999  0.35582342  1
  O2-  O557  1  0.59462183  0.42312802  0.68679838  1
  O2-  O558  1  0.57690875  0.64205325  0.02730843  1
  O2-  O559  1  0.58704907  0.67278353  0.36736623  1
  O2-  O560  1  0.58747312  0.68950843  0.68021242  1
  O2-  O561  1  0.55681882  0.86865561  0.02853175  1
  O2-  O562  1  0.58769240  0.91950536  0.35922867  1
  O2-  O563  1  0.56891207  0.88543190  0.68632224  1
  O2-  O564  1  0.85173791  0.18250176  0.02519029  1
  O2-  O565  1  0.83596291  0.17554566  0.34940117  1
  O2-  O566  1  0.83780674  0.16631020  0.68830140  1
  O2-  O567  1  0.84293468  0.42341113  0.02049507  1
  O2-  O568  1  0.79334681  0.35320649  0.38961392  1
  O2-  O569  1  0.82897703  0.40777811  0.68275651  1
  O2-  O570  1  0.83389212  0.65377080  0.01689434  1
  O2-  O571  1  0.83508099  0.66722922  0.36800464  1
  O2-  O572  1  0.82899338  0.67156891  0.68080622  1
  O2-  O573  1  0.79995601  0.89454245  0.01633679  1
  O2-  O574  1  0.83494983  0.92376676  0.35931616  1
  O2-  O575  1  0.81838486  0.90499788  0.68752020  1
