# generated using pymatgen
data_H2O
_symmetry_space_group_name_H-M   'P 1'
_cell_length_a   17.99100606
_cell_length_b   17.99379739
_cell_length_c   22.00774834
_cell_angle_alpha   89.97165283
_cell_angle_beta   90.01817215
_cell_angle_gamma   119.99900717
_symmetry_Int_Tables_number   1
_chemical_formula_structural   H2O
_chemical_formula_sum   'H384 O192'
_cell_volume   6170.05178377
_cell_formula_units_Z   192
loop_
 _symmetry_equiv_pos_site_id
 _symmetry_equiv_pos_as_xyz
  1  'x, y, z'
loop_
 _atom_type_symbol
 _atom_type_oxidation_number
  H+  1.0
  O2-  -2.0
loop_
 _atom_site_type_symbol
 _atom_site_label
 _atom_site_symmetry_multiplicity
 _atom_site_fract_x
 _atom_site_fract_y
 _atom_site_fract_z
 _atom_site_occupancy
  H+  H0  1  0.31252510  0.67728116  0.76645727  1
  H+  H1  1  0.87418327  0.89929452  0.50636207  1
  H+  H2  1  0.10882080  0.88235383  0.15670759  1
  H+  H3  1  0.88017257  0.72765348  0.82837341  1
  H+  H4  1  0.90732913  0.64709661  0.67384778  1
  H+  H5  1  0.22347752  0.60055547  0.50627555  1
  H+  H6  1  0.04979533  0.14840433  0.47710344  1
  H+  H7  1  0.14222026  0.86951305  0.98502346  1
  H+  H8  1  0.13445322  0.23489973  0.14842109  1
  H+  H9  1  0.64726412  0.36332828  0.16883130  1
  H+  H10  1  0.13483373  1.02252209  -0.01230885  1
  H+  H11  1  0.11370934  0.88993525  0.33369697  1
  H+  H12  1  0.41669753  0.85109840  0.18264882  1
  H+  H13  1  0.11133531  0.47254191  0.82991502  1
  H+  H14  1  0.28063608  0.39121315  0.67014979  1
  H+  H15  1  0.48037628  0.12254985  -0.00068102  1
  H+  H16  1  0.13753331  0.08886349  0.52892427  1
  H+  H17  1  0.62340268  1.02896966  0.67235076  1
  H+  H18  1  0.63461082  0.11080628  0.32402318  1
  H+  H19  1  0.64141646  0.48924757  0.14836384  1
  H+  H20  1  0.91824050  0.54559117  0.33876385  1
  H+  H21  1  0.36041882  0.14481722  0.67443611  1
  H+  H22  1  0.35936036  0.36205251  0.32519600  1
  H+  H23  1  0.76637222  0.36949066  0.48892288  1
  H+  H24  1  1.00430508  0.11352256  0.83922948  1
  H+  H25  1  0.86403064  0.47186779  0.82357439  1
  H+  H26  1  0.05274269  0.65158438  0.34003190  1
  H+  H27  1  0.38242154  0.60467490  0.82745267  1
  H+  H28  1  0.38102858  0.03439983  0.66658482  1
  H+  H29  1  0.16192622  0.07916594  0.26383716  1
  H+  H30  1  0.21028210  0.65956892  0.34169092  1
  H+  H31  1  0.37535370  0.47420632  0.99557944  1
  H+  H32  1  0.34762458  0.89944190  0.14775219  1
  H+  H33  1  0.32976015  0.41447654  0.75302988  1
  H+  H34  1  0.84135405  0.42512886  0.07729144  1
  H+  H35  1  0.61605737  0.89008080  0.33937071  1
  H+  H36  1  0.23296149  0.36912184  0.98531947  1
  H+  H37  1  0.63659585  0.41511293  0.34967609  1
  H+  H38  1  0.12185220  0.23355400  0.99494203  1
  H+  H39  1  0.63653175  1.02538518  0.84256523  1
  H+  H40  1  0.85883165  0.88797740  0.35767031  1
  H+  H41  1  0.16274825  0.61406827  0.24334037  1
  H+  H42  1  0.04344600  0.14806966  0.14931338  1
  H+  H43  1  0.23063702  0.11498927  0.83405837  1
  H+  H44  1  0.26321507  0.88630483  0.49389631  1
  H+  H45  1  0.89370840  0.53074864  0.18728800  1
  H+  H46  1  0.52624312  0.88125869  0.84325314  1
  H+  H47  1  0.88672216  0.27505719  0.65919115  1
  H+  H48  1  0.51353316  0.62831212  0.66584184  1
  H+  H49  1  0.14412296  0.29812765  0.48638922  1
  H+  H50  1  0.99257697  0.86315429  0.84124453  1
  H+  H51  1  0.14905092  0.36737919  0.16068517  1
  H+  H52  1  0.87282173  0.73111073  0.15944172  1
  H+  H53  1  0.26772328  0.63357613  0.82824434  1
  H+  H54  1  0.26697149  0.62826129  0.18197581  1
  H+  H55  1  0.12901532  0.88396964  0.81061957  1
  H+  H56  1  0.27609427  0.39843927  0.34263086  1
  H+  H57  1  0.52304139  0.88528611  0.00820928  1
  H+  H58  1  0.51668262  0.12648709  0.33879464  1
  H+  H59  1  0.13667561  0.35106026  0.67279316  1
  H+  H60  1  0.61662263  0.14023098  0.82743315  1
  H+  H61  1  0.14971787  0.76807263  0.32615784  1
  H+  H62  1  0.90920761  0.27821493  0.49793186  1
  H+  H63  1  0.63972638  0.77970064  0.33257227  1
  H+  H64  1  -0.03484762  0.86217155  0.34113781  1
  H+  H65  1  0.13790122  0.11047021  0.16676361  1
  H+  H66  1  0.73725271  0.61571444  -0.00456287  1
  H+  H67  1  0.13802917  0.77038310  0.17314369  1
  H+  H68  1  0.64526928  0.78019920  -0.00686523  1
  H+  H69  1  0.87467530  -0.02129091  0.15709939  1
  H+  H70  1  0.27259028  0.83298238  0.85933299  1
  H+  H71  1  0.48898366  0.85422917  0.68682492  1
  H+  H72  1  0.38465252  0.62129897  0.32510567  1
  H+  H73  1  0.37717846  0.11698809  0.50809855  1
  H+  H74  1  0.38017430  0.51415930  0.82317263  1
  H+  H75  1  0.41642892  0.61513252  0.96867274  1
  H+  H76  1  0.39957906  0.90311406  0.51873631  1
  H+  H77  1  0.41052760  0.08728870  0.60383973  1
  H+  H78  1  0.10720013  0.63067293  0.51157532  1
  H+  H79  1  0.27537016  0.89810523  0.99705360  1
  H+  H80  1  0.64567695  0.86489921  0.84096643  1
  H+  H81  1  0.92155526  0.85020061  0.57368124  1
  H+  H82  1  0.36681145  0.74647497  0.49934261  1
  H+  H83  1  0.64918301  0.36391331  0.82946363  1
  H+  H84  1  0.63508596  1.02376347  -0.00368450  1
  H+  H85  1  0.48122028  0.86949517  0.33760128  1
  H+  H86  1  0.64929440  0.27229741  0.83315750  1
  H+  H87  1  0.46035834  0.40447066  0.86031964  1
  H+  H88  1  0.37960555  0.11103281  0.32361101  1
  H+  H89  1  0.78279698  0.89197532  0.16147960  1
  H+  H90  1  0.55325545  0.41383638  0.17058053  1
  H+  H91  1  0.12384190  0.88518768  0.65439615  1
  H+  H92  1  0.34729617  0.22013303  0.33587142  1
  H+  H93  1  0.86451946  0.39271263  0.01705989  1
  H+  H94  1  0.42472028  0.59083394  0.23459836  1
  H+  H95  1  0.38564917  0.86896215  0.99538329  1
  H+  H96  1  0.78234442  0.39188966  0.17180021  1
  H+  H97  1  0.13941226  0.27254459  0.30853021  1
  H+  H98  1  0.42192671  0.57860373  0.57659179  1
  H+  H99  1  0.61560981  0.64706255  0.35370699  1
  H+  H100  1  0.29062444  0.90842984  0.73670202  1
  H+  H101  1  0.98592902  0.88423598  0.66467317  1
  H+  H102  1  0.47817906  0.11628302  0.16761544  1
  H+  H103  1  0.38879356  0.11752457  0.16594156  1
  H+  H104  1  0.35901271  0.73190975  0.34994588  1
  H+  H105  1  0.88837366  0.27814267  0.16967949  1
  H+  H106  1  0.59180754  0.12692884  0.49383260  1
  H+  H107  1  0.79287299  0.41627478  0.33508442  1
  H+  H108  1  0.53258517  0.36258608  0.82256223  1
  H+  H109  1  0.64760641  0.28675281  -0.00544584  1
  H+  H110  1  0.24271900  0.37559708  0.15954380  1
  H+  H111  1  0.76405086  0.14225755  0.67702412  1
  H+  H112  1  0.21669374  0.35542929  0.82831895  1
  H+  H113  1  0.35652718  0.23237433  0.49315473  1
  H+  H114  1  0.13763879  0.11430385  -0.01470902  1
  H+  H115  1  0.11517880  0.13090096  0.82841137  1
  H+  H116  1  0.89852405  1.01175616  0.84199751  1
  H+  H117  1  1.01759817  0.12517760  0.64765720  1
  H+  H118  1  0.60313819  0.13421460  1.00126259  1
  H+  H119  1  0.87946404  0.64496026  0.35826427  1
  H+  H120  1  0.11345208  0.96214865  0.49070117  1
  H+  H121  1  0.63032273  0.51952720  0.51214913  1
  H+  H122  1  0.78641827  0.64459205  0.83073111  1
  H+  H123  1  0.94420995  0.60368052  0.27957997  1
  H+  H124  1  0.35360548  0.22050162  0.00257646  1
  H+  H125  1  0.37347963  0.48590403  0.66586348  1
  H+  H126  1  0.14264908  0.76183777  0.66520543  1
  H+  H127  1  0.88682777  0.85697389  0.16589960  1
  H+  H128  1  0.90378937  0.11710551  0.16475239  1
  H+  H129  1  0.34647767  0.64622263  0.02968629  1
  H+  H130  1  0.86340026  -0.02010450  0.35197175  1
  H+  H131  1  0.78351585  0.88396861  0.83095061  1
  H+  H132  1  0.35267445  0.73626132  0.01800986  1
  H+  H133  1  0.23037706  0.10723916  0.50632192  1
  H+  H134  1  0.61127839  0.01471934  0.51201599  1
  H+  H135  1  0.37413747  0.02658131  0.50721464  1
  H+  H136  1  0.61590847  0.88819734  0.49584382  1
  H+  H137  1  0.87245885  0.64018662  0.16537110  1
  H+  H138  1  0.75318310  0.37000207  0.82954873  1
  H+  H139  1  0.13696276  0.61180926  0.83492112  1
  H+  H140  1  1.01512024  0.39362187  0.48905515  1
  H+  H141  1  0.83772252  0.16279762  0.21506531  1
  H+  H142  1  0.11167107  0.97753507  0.33510104  1
  H+  H143  1  0.11150049  0.47075355  0.15375981  1
  H+  H144  1  0.13985064  0.38325698  0.49236166  1
  H+  H145  1  0.77405532  0.15850174  0.50005578  1
  H+  H146  1  0.77930308  0.89442420  1.00333541  1
  H+  H147  1  0.24462729  0.87071968  0.32218952  1
  H+  H148  1  0.97281775  0.86576038  0.51067921  1
  H+  H149  1  0.26130262  0.64436888  0.67518453  1
  H+  H150  1  0.57839675  0.66365296  0.72549266  1
  H+  H151  1  0.07411719  0.17090213  0.37434108  1
  H+  H152  1  0.89199745  0.86980570  0.99193925  1
  H+  H153  1  0.11242075  0.63252149  0.15856495  1
  H+  H154  1  0.76415403  0.17753915  0.47319599  1
  H+  H155  1  0.08748972  0.41645581  0.09213029  1
  H+  H156  1  0.35510038  0.59573121  0.48935603  1
  H+  H157  1  0.26874733  0.13982263  0.67831017  1
  H+  H158  1  0.98372202  0.11861223  0.99136702  1
  H+  H159  1  0.92925569  0.15764519  0.48552109  1
  H+  H160  1  0.48290788  0.61543355  0.51469611  1
  H+  H161  1  0.61435239  0.97848419  0.33781560  1
  H+  H162  1  0.36827251  0.22511151  0.82721931  1
  H+  H163  1  0.62291193  0.64408407  0.15479535  1
  H+  H164  1  0.32794677  0.17127976  0.43309914  1
  H+  H165  1  0.36624271  0.89001114  0.33721754  1
  H+  H166  1  0.40590502  0.82736226  0.93903439  1
  H+  H167  1  0.39010227  0.37046910  0.65868219  1
  H+  H168  1  0.86850588  0.01355070  0.67032829  1
  H+  H169  1  0.26371161  0.13005045  0.33833299  1
  H+  H170  1  0.92451663  0.03157489  0.51273387  1
  H+  H171  1  0.65632769  0.62897608  0.84159158  1
  H+  H172  1  0.61418626  0.22477082  0.15532535  1
  H+  H173  1  0.63581673  0.36277105  0.65601552  1
  H+  H174  1  0.14750366  0.18003448  0.45780625  1
  H+  H175  1  0.60045987  0.36888212  0.01104350  1
  H+  H176  1  0.21609889  0.61634784  -0.00319226  1
  H+  H177  1  0.74878236  0.62603616  0.16085784  1
  H+  H178  1  0.14714729  0.41556064  0.29786160  1
  H+  H179  1  0.90292154  0.86333480  0.83991786  1
  H+  H180  1  0.63335492  0.76334793  0.65836428  1
  H+  H181  1  0.36165074  -0.02170445  0.33260501  1
  H+  H182  1  0.10288195  0.11882626  0.63610985  1
  H+  H183  1  0.12973398  0.85237933  0.49994548  1
  H+  H184  1  0.77190122  0.88108559  0.67909631  1
  H+  H185  1  0.11319834  0.47772026  1.00203028  1
  H+  H186  1  0.77249905  0.61532580  0.50585744  1
  H+  H187  1  0.77389698  0.14773538  0.83096074  1
  H+  H188  1  0.85725453  0.45493277  0.49355868  1
  H+  H189  1  0.37698530  0.49322061  0.15625628  1
  H+  H190  1  0.62313783  0.73395963  0.50173336  1
  H+  H191  1  0.87009606  0.39729248  0.63579247  1
  H+  H192  1  0.63420280  0.50136128  0.34892153  1
  H+  H193  1  0.65372468  0.62295322  -0.00401295  1
  H+  H194  1  0.85403633  0.60084541  0.50812881  1
  H+  H195  1  0.12766379  0.61343667  -0.00696983  1
  H+  H196  1  0.62410079  0.26522665  0.50075304  1
  H+  H197  1  0.86974639  0.73511444  1.01027807  1
  H+  H198  1  1.00149805  0.10403702  0.55936057  1
  H+  H199  1  0.09787891  0.17557458  0.05511286  1
  H+  H200  1  0.10757415  0.21879820  0.82992229  1
  H+  H201  1  1.02703299  0.38432734  0.67366422  1
  H+  H202  1  0.61564065  0.47822685  0.67399423  1
  H+  H203  1  0.67417415  0.83322308  0.89895643  1
  H+  H204  1  0.84206883  0.93217843  0.44829872  1
  H+  H205  1  0.53317231  0.64367616  0.16110772  1
  H+  H206  1  0.87351301  0.39655715  0.17201232  1
  H+  H207  1  0.72325959  0.11286584  -0.00430083  1
  H+  H208  1  0.62959301  0.35716278  0.50317094  1
  H+  H209  1  0.10870134  0.97112691  0.15608278  1
  H+  H210  1  0.36817757  0.76276608  0.83826879  1
  H+  H211  1  0.54148468  0.63944865  -0.00005843  1
  H+  H212  1  0.21784158  0.89123427  0.65345821  1
  H+  H213  1  -0.02232113  0.36321032  0.99561394  1
  H+  H214  1  0.33508893  0.73543321  0.52466685  1
  H+  H215  1  0.78207251  0.39709092  0.63443854  1
  H+  H216  1  0.88209616  0.77433569  0.35673181  1
  H+  H217  1  0.68649394  0.60268304  0.90303193  1
  H+  H218  1  0.39228597  0.61832384  0.17640015  1
  H+  H219  1  0.63925492  0.61321909  0.51157665  1
  H+  H220  1  0.38333176  1.02648354  -0.00481092  1
  H+  H221  1  0.88219108  0.35207310  0.50130273  1
  H+  H222  1  0.76238086  0.12709206  0.16943375  1
  H+  H223  1  0.38279684  0.36580245  0.50670125  1
  H+  H224  1  0.86538297  0.38270079  0.83076097  1
  H+  H225  1  0.61447999  0.72713463  0.82332697  1
  H+  H226  1  0.98174828  0.61864870  0.17953363  1
  H+  H227  1  0.35039171  0.89929970  0.68652719  1
  H+  H228  1  -0.02055987  0.70104103  -0.06282493  1
  H+  H229  1  1.00901538  0.12930144  0.31795280  1
  H+  H230  1  0.60801594  0.13241688  0.15485311  1
  H+  H231  1  0.17526539  0.83274096  0.26084529  1
  H+  H232  1  0.09703836  0.71246707  0.50870107  1
  H+  H233  1  0.63208411  0.88789367  0.16045464  1
  H+  H234  1  0.89064061  0.51595716  0.57135161  1
  H+  H235  1  -0.01866927  0.36193102  0.16632279  1
  H+  H236  1  0.72935042  0.86853612  0.33516493  1
  H+  H237  1  0.34642756  0.37472034  0.81404729  1
  H+  H238  1  0.88561894  0.27539859  0.84209259  1
  H+  H239  1  0.75293454  0.63394966  0.35413368  1
  H+  H240  1  0.14946056  0.52357750  0.24131671  1
  H+  H241  1  0.02659030  0.88957917  0.00085774  1
  H+  H242  1  1.02064405  0.38467370  0.83179829  1
  H+  H243  1  0.96590262  0.58307128  0.52439862  1
  H+  H244  1  0.33181116  0.20757955  0.14508841  1
  H+  H245  1  0.52656658  0.63645447  0.82017548  1
  H+  H246  1  0.58961948  0.67420865  0.06445025  1
  H+  H247  1  0.38251972  0.40812689  0.15546678  1
  H+  H248  1  0.13035324  0.52395954  0.50942753  1
  H+  H249  1  0.73732350  0.87589246  0.51345152  1
  H+  H250  1  0.35878169  0.99205819  0.15502259  1
  H+  H251  1  0.63288829  0.61113538  0.66166720  1
  H+  H252  1  0.12722144  0.01291412  0.66741764  1
  H+  H253  1  0.77468277  0.65032056  0.67653473  1
  H+  H254  1  0.52579745  0.38952098  0.67067728  1
  H+  H255  1  0.64124477  0.86713382  -0.00860132  1
  H+  H256  1  0.12677800  0.11075964  0.31842035  1
  H+  H257  1  0.51915894  0.14364833  0.67522155  1
  H+  H258  1  0.12676316  0.73629805  1.00769063  1
  H+  H259  1  0.88829327  0.27539034  -0.00342257  1
  H+  H260  1  0.51690168  0.38490505  0.49529127  1
  H+  H261  1  0.37393016  0.48376749  0.49805750  1
  H+  H262  1  0.84907434  0.13551758  0.67917464  1
  H+  H263  1  0.64928162  0.77733300  0.17636095  1
  H+  H264  1  0.12489109  0.97093379  0.82347866  1
  H+  H265  1  0.39853378  0.86360542  0.82911453  1
  H+  H266  1  0.47264550  0.09851168  0.83829446  1
  H+  H267  1  0.11903442  0.39096298  0.99940116  1
  H+  H268  1  0.38833869  0.60088902  0.65467022  1
  H+  H269  1  0.89159418  0.60950270  0.82762433  1
  H+  H270  1  0.72369409  0.10870018  0.32023376  1
  H+  H271  1  0.91041205  0.26363339  0.32391329  1
  H+  H272  1  0.21845006  0.09692300  0.16819910  1
  H+  H273  1  0.39312447  0.75458719  0.18696428  1
  H+  H274  1  0.22025233  0.86638412  0.16959192  1
  H+  H275  1  0.63204504  0.01612039  0.16948551  1
  H+  H276  1  0.85729257  0.11703265  0.32557577  1
  H+  H277  1  0.48549380  0.89685813  0.52042697  1
  H+  H278  1  0.43640165  0.31513817  0.17841434  1
  H+  H279  1  0.16964602  0.50713882  0.66055797  1
  H+  H280  1  0.65561529  0.07652799  0.22882493  1
  H+  H281  1  0.38194228  0.08694862  0.83710497  1
  H+  H282  1  0.66383432  0.08444613  0.90165650  1
  H+  H283  1  0.61366368  0.25581884  0.32507021  1
  H+  H284  1  0.63101475  0.84973112  0.66367268  1
  H+  H285  1  0.86687088  0.13544209  0.00488560  1
  H+  H286  1  0.12821765  0.35534467  0.83605999  1
  H+  H287  1  0.03111525  0.63769965  0.81441000  1
  H+  H288  1  0.18542418  0.84349215  0.92964814  1
  H+  H289  1  0.43172237  0.57222284  0.91317476  1
  H+  H290  1  0.67829564  0.83628405  0.23700227  1
  H+  H291  1  0.61071735  0.23127976  0.67206603  1
  H+  H292  1  0.27802930  0.40076375  0.49127816  1
  H+  H293  1  0.66757125  0.58193710  0.60542162  1
  H+  H294  1  0.32037121  0.65163856  0.39696439  1
  H+  H295  1  0.08766107  0.66860108  0.09991648  1
  H+  H296  1  0.83966370  0.91429093  0.77045785  1
  H+  H297  1  0.10452635  0.68495752  0.71267154  1
  H+  H298  1  0.86381838  0.02599278  0.27841935  1
  H+  H299  1  0.63317779  0.07325567  0.57168224  1
  H+  H300  1  0.12340896  0.72697151  0.80778256  1
  H+  H301  1  0.56601110  0.39559161  0.06956053  1
  H+  H302  1  0.84167556  0.65351776  0.42416601  1
  H+  H303  1  0.16213573  0.83996548  0.56411635  1
  H+  H304  1  0.46760781  0.34151639  1.00040631  1
  H+  H305  1  0.18462763  0.33412998  0.25155900  1
  H+  H306  1  0.07743253  0.90806077  0.42964719  1
  H+  H307  1  0.83549364  0.68023421  0.73530714  1
  H+  H308  1  0.42419999  0.82940821  0.27897113  1
  H+  H309  1  0.57411637  0.15769168  0.39931741  1
  H+  H310  1  -0.02461691  0.85807647  0.16405991  1
  H+  H311  1  0.32911048  0.92936754  0.05871548  1
  H+  H312  1  0.83732598  0.16259180  0.06469765  1
  H+  H313  1  0.67218078  0.83816416  0.56915859  1
  H+  H314  1  0.91644151  0.33530117  0.90249179  1
  H+  H315  1  0.98597609  0.65307741  0.63994007  1
  H+  H316  1  0.33542456  0.17024187  0.76685014  1
  H+  H317  1  0.51350659  0.78969099  0.71677144  1
  H+  H318  1  0.19645018  0.56454085  0.60104236  1
  H+  H319  1  0.71008370  0.64727328  0.29614078  1
  H+  H320  1  0.95853775  0.21708397  0.42818031  1
  H+  H321  1  0.65986142  0.32157428  0.22876678  1
  H+  H322  1  0.34323336  0.42586621  0.05941931  1
  H+  H323  1  0.38580791  0.27921537  0.66067475  1
  H+  H324  1  0.58185679  0.42287510  0.43827453  1
  H+  H325  1  0.07986315  0.92064172  0.72487786  1
  H+  H326  1  0.27492797  0.53332412  0.45006581  1
  H+  H327  1  0.17147687  0.33759882  0.92596390  1
  H+  H328  1  0.92499240  0.32848722  0.59781944  1
  H+  H329  1  0.41229538  0.08474303  0.26352009  1
  H+  H330  1  0.03403795  0.65707595  0.00346182  1
  H+  H331  1  0.41592220  0.32926724  0.90730898  1
  H+  H332  1  0.41572356  0.86201328  0.61403210  1
  H+  H333  1  0.58584976  0.91218419  0.06587244  1
  H+  H334  1  0.31511323  0.66637603  0.11770851  1
  H+  H335  1  0.32457259  0.91888955  0.43478045  1
  H+  H336  1  0.52448490  0.64366912  0.34544924  1
  H+  H337  1  0.73151889  0.37663187  0.00722686  1
  H+  H338  1  0.88367029  0.06902930  0.61072087  1
  H+  H339  1  0.06909593  0.43354265  0.42791270  1
  H+  H340  1  0.86765363  0.89205318  0.67676346  1
  H+  H341  1  0.92334096  0.83707473  0.93398818  1
  H+  H342  1  0.92567019  0.58540111  0.88586946  1
  H+  H343  1  0.93334886  0.32428578  0.26712914  1
  H+  H344  1  0.83772988  0.92110492  0.06348164  1
  H+  H345  1  0.23296631  0.70982519  0.69610780  1
  H+  H346  1  0.57792038  0.16629082  0.06163468  1
  H+  H347  1  0.33637212  0.42865407  0.40353929  1
  H+  H348  1  0.08135460  0.41140720  0.73558707  1
  H+  H349  1  0.05705110  0.40705313  0.30211473  1
  H+  H350  1  0.53826351  0.87280530  0.16418158  1
  H+  H351  1  0.56743909  0.89676453  0.77812872  1
  H+  H352  1  0.38708927  0.53409317  0.32920215  1
  H+  H353  1  0.29459952  0.29036341  0.28345686  1
  H+  H354  1  0.26329301  0.12799679  0.99836090  1
  H+  H355  1  0.57125991  0.30767842  0.30088488  1
  H+  H356  1  0.58588458  0.17144085  0.76855690  1
  H+  H357  1  0.83018344  0.17915980  0.77117957  1
  H+  H358  1  0.31999347  0.15116355  0.08723553  1
  H+  H359  1  0.35991229  0.78887476  0.66709303  1
  H+  H360  1  0.83676160  0.42348315  0.39885308  1
  H+  H361  1  0.90779565  0.64920257  0.98530787  1
  H+  H362  1  0.16278009  0.58390230  0.89777210  1
  H+  H363  1  0.89198341  0.79310289  0.66597262  1
  H+  H364  1  0.41152307  0.33388393  0.56627455  1
  H+  H365  1  0.50813361  0.13525074  0.48948762  1
  H+  H366  1  0.92623014  0.07638167  0.90230100  1
  H+  H367  1  0.16937145  0.08137743  0.89237830  1
  H+  H368  1  0.13927959  0.27020097  0.64548353  1
  H+  H369  1  0.58659269  0.67488433  0.44316875  1
  H+  H370  1  0.67981263  0.58150165  0.21439060  1
  H+  H371  1  0.82872345  0.14899197  0.38677857  1
  H+  H372  1  0.38094464  0.35026493  -0.00518202  1
  H+  H373  1  0.89402527  0.02813013  0.99449801  1
  H+  H374  1  0.41653275  0.35216254  0.23700582  1
  H+  H375  1  0.38042758  0.11980208  -0.00189501  1
  H+  H376  1  0.58800016  0.40490164  0.76299545  1
  H+  H377  1  0.93909534  0.09822039  0.22446670  1
  H+  H378  1  0.08794516  0.91767127  0.05896334  1
  H+  H379  1  0.65596037  0.32528576  0.59579001  1
  H+  H380  1  0.84772903  0.67152761  0.06764787  1
  H+  H381  1  0.62402685  0.11806620  0.66841485  1
  H+  H382  1  0.18126570  0.07239139  0.60978350  1
  H+  H383  1  0.58431993  0.91597287  0.43609143  1
  O2-  O384  1  0.10370537  0.17399383  0.13379365  1
  O2-  O385  1  0.10006805  0.19060482  0.45118116  1
  O2-  O386  1  0.07734622  0.15627129  0.81838952  1
  O2-  O387  1  0.08630746  0.41209678  0.13811097  1
  O2-  O388  1  0.07567791  0.42810083  0.47131854  1
  O2-  O389  1  0.08122512  0.41158600  0.81603626  1
  O2-  O390  1  0.08832692  0.66841603  0.14575378  1
  O2-  O391  1  0.06632403  0.65006551  0.50009329  1
  O2-  O392  1  0.09253100  0.66261689  0.80326026  1
  O2-  O393  1  0.08205907  0.91282280  0.13712685  1
  O2-  O394  1  0.07694066  0.90311860  0.47472244  1
  O2-  O395  1  0.09071641  0.91018616  0.81053251  1
  O2-  O396  1  0.32145433  0.15079538  0.13403409  1
  O2-  O397  1  0.32572456  0.17097984  0.47828903  1
  O2-  O398  1  0.33440981  0.16601406  0.81253775  1
  O2-  O399  1  0.34921588  0.43370795  0.13857938  1
  O2-  O400  1  0.33972675  0.42535931  0.47792640  1
  O2-  O401  1  0.32232387  0.41010951  0.79985513  1
  O2-  O402  1  0.32466267  0.66071394  0.16159105  1
  O2-  O403  1  0.30757983  0.59324005  0.46242821  1
  O2-  O404  1  0.32651720  0.66815232  0.80940945  1
  O2-  O405  1  0.32024145  0.93240599  0.13682683  1
  O2-  O406  1  0.32466082  0.92392185  0.47932262  1
  O2-  O407  1  0.23894708  0.86198973  0.86239494  1
  O2-  O408  1  0.57887468  0.16404876  0.14011214  1
  O2-  O409  1  0.56786385  0.16143282  0.47316400  1
  O2-  O410  1  0.58941090  0.17413185  0.81391633  1
  O2-  O411  1  0.60451429  0.42546135  0.14685034  1
  O2-  O412  1  0.57880463  0.41558340  0.48336327  1
  O2-  O413  1  0.59138760  0.39885810  0.80803961  1
  O2-  O414  1  0.59231264  0.67558991  0.14363101  1
  O2-  O415  1  0.59074460  0.67268927  0.48813037  1
  O2-  O416  1  0.58679486  0.66820167  0.80583478  1
  O2-  O417  1  0.59474210  0.91096832  0.14496587  1
  O2-  O418  1  0.58169280  0.91442130  0.48118054  1
  O2-  O419  1  0.58175296  0.91240923  0.82201868  1
  O2-  O420  1  0.82746930  0.15967865  0.17119013  1
  O2-  O421  1  0.91417325  0.19323895  0.45929302  1
  O2-  O422  1  0.83380996  0.18101405  0.81627545  1
  O2-  O423  1  0.84400455  0.42928763  0.16116332  1
  O2-  O424  1  0.82635558  0.39622257  0.47327929  1
  O2-  O425  1  0.83216065  0.40915304  0.81306439  1
  O2-  O426  1  0.84282520  0.66806748  0.14497094  1
  O2-  O427  1  0.83169108  0.63696308  0.49061569  1
  O2-  O428  1  0.84618393  0.66844410  0.81203721  1
  O2-  O429  1  0.84036487  0.91934171  0.14130412  1
  O2-  O430  1  0.84753931  0.93651642  0.49347568  1
  O2-  O431  1  0.84417211  0.91432755  0.81617957  1
  O2-  O432  1  0.15980764  0.07377286  0.18510195  1
  O2-  O433  1  0.17354701  0.06308787  0.52443343  1
  O2-  O434  1  0.16865737  0.08253198  0.84711645  1
  O2-  O435  1  0.18223826  0.33927541  0.17404612  1
  O2-  O436  1  0.17417098  0.35623121  0.50388369  1
  O2-  O437  1  0.15969730  0.32457756  0.84912662  1
  O2-  O438  1  0.16629557  0.57475785  0.21330373  1
  O2-  O439  1  0.16864013  0.58114638  0.52799942  1
  O2-  O440  1  0.16634680  0.58111440  0.85284329  1
  O2-  O441  1  0.16390423  0.83024580  0.19001904  1
  O2-  O442  1  0.16454317  0.82941369  0.51917840  1
  O2-  O443  1  0.18853626  0.83578820  0.80537129  1
  O2-  O444  1  0.41681802  0.08613180  0.18271882  1
  O2-  O445  1  0.40680354  0.08656916  0.52359147  1
  O2-  O446  1  0.41255830  0.05647413  0.84799764  1
  O2-  O447  1  0.44333726  0.36828744  0.19523175  1
  O2-  O448  1  0.41004898  0.33186330  0.52045593  1
  O2-  O449  1  0.42239053  0.34242280  0.86195406  1
  O2-  O450  1  0.42703864  0.59183758  0.18892057  1
  O2-  O451  1  0.42205504  0.58007341  0.52787053  1
  O2-  O452  1  0.41325908  0.57422741  0.83996932  1
  O2-  O453  1  0.43677958  0.81497319  0.20056908  1
  O2-  O454  1  0.44027315  0.89707351  0.54574374  1
  O2-  O455  1  0.39755673  0.82228400  0.85834514  1
  O2-  O456  1  0.65752998  0.07718875  0.18293354  1
  O2-  O457  1  0.62494087  0.07210711  0.52734281  1
  O2-  O458  1  0.66464761  0.08588173  0.85634293  1
  O2-  O459  1  0.67051668  0.32644540  0.18406429  1
  O2-  O460  1  0.65858935  0.32508470  0.51687075  1
  O2-  O461  1  0.68310794  0.33547560  0.84486931  1
  O2-  O462  1  0.68353228  0.59446366  0.17115353  1
  O2-  O463  1  0.66504294  0.57940521  0.52781394  1
  O2-  O464  1  0.69436845  0.60912649  0.85783623  1
  O2-  O465  1  0.68087294  0.83791943  0.19138254  1
  O2-  O466  1  0.67485848  0.84133931  0.52376511  1
  O2-  O467  1  0.67483724  0.83270216  0.85341944  1
  O2-  O468  1  0.94110359  0.09469436  0.17850836  1
  O2-  O469  1  0.96770863  0.09464651  0.52078802  1
  O2-  O470  1  0.93227101  0.07342331  0.85695328  1
  O2-  O471  1  0.92309286  0.33748581  0.18483440  1
  O2-  O472  1  0.92365465  0.33397272  0.51684065  1
  O2-  O473  1  0.91899247  0.33744153  0.85720614  1
  O2-  O474  1  0.92500590  0.59295179  0.19984290  1
  O2-  O475  1  0.90246800  0.54410261  0.53057136  1
  O2-  O476  1  0.92150506  0.57745787  0.84141465  1
  O2-  O477  1  0.91562067  0.82506389  0.17943419  1
  O2-  O478  1  0.91623115  0.84964393  0.52842601  1
  O2-  O479  1  0.93241348  0.83434786  0.85822623  1
  O2-  O480  1  0.16159771  0.08238324  0.30918795  1
  O2-  O481  1  0.16731179  0.08029205  0.65171310  1
  O2-  O482  1  0.16759824  0.08279526  0.97162099  1
  O2-  O483  1  0.18550970  0.33147727  0.29699922  1
  O2-  O484  1  0.17278947  0.32382944  0.66812242  1
  O2-  O485  1  0.17187860  0.33951025  0.97170086  1
  O2-  O486  1  0.15989515  0.65073334  0.31655620  1
  O2-  O487  1  0.21896959  0.55683041  0.64039956  1
  O2-  O488  1  0.15842475  0.58317532  0.97832662  1
  O2-  O489  1  0.17925834  0.83507834  0.30748332  1
  O2-  O490  1  0.15915330  0.85762063  0.63688584  1
  O2-  O491  1  0.17589755  0.84048878  0.97475531  1
  O2-  O492  1  0.41006402  0.08074822  0.30869841  1
  O2-  O493  1  0.41417030  0.09318368  0.64908931  1
  O2-  O494  1  0.41550019  0.09109467  0.98590897  1
  O2-  O495  1  0.35372718  0.31387565  0.29794652  1
  O2-  O496  1  0.41897716  0.33823401  0.64306689  1
  O2-  O497  1  0.40590022  0.31489046  0.98043733  1
  O2-  O498  1  0.41846173  0.59386672  0.31235344  1
  O2-  O499  1  0.42282305  0.57552154  0.64227580  1
  O2-  O500  1  0.43804304  0.57663645  0.95909718  1
  O2-  O501  1  0.41966522  0.83875469  0.32291944  1
  O2-  O502  1  0.40711550  0.85000080  0.65935510  1
  O2-  O503  1  0.40988793  0.83148535  0.98418976  1
  O2-  O504  1  0.66223953  0.08003270  0.30530646  1
  O2-  O505  1  0.65421413  0.08586043  0.65418175  1
  O2-  O506  1  0.66267241  0.08419342  0.98137956  1
  O2-  O507  1  0.62726624  0.31186238  0.30470865  1
  O2-  O508  1  0.66098526  0.32758356  0.64113070  1
  O2-  O509  1  0.67225533  0.34878265  0.98966907  1
  O2-  O510  1  0.69378982  0.61566820  0.33426857  1
  O2-  O511  1  0.66672201  0.58256276  0.65093961  1
  O2-  O512  1  0.67830353  0.58932883  0.97884699  1
  O2-  O513  1  0.67138558  0.83886035  0.31492531  1
  O2-  O514  1  0.66661927  0.82690309  0.64734756  1
  O2-  O515  1  0.67490408  0.84038111  0.97672181  1
  O2-  O516  1  0.90465723  0.07873958  0.29890903  1
  O2-  O517  1  0.89388689  0.07469157  0.65445547  1
  O2-  O518  1  0.92240675  0.08810119  0.97747760  1
  O2-  O519  1  0.95088876  0.32224015  0.30931373  1
  O2-  O520  1  0.92436700  0.33398276  0.64269854  1
  O2-  O521  1  0.91676290  0.33559572  0.98214443  1
  O2-  O522  1  0.95435915  0.60686597  0.32438670  1
  O2-  O523  1  0.94800263  0.62525890  0.67420620  1
  O2-  O524  1  0.95371828  0.64694564  0.95950783  1
  O2-  O525  1  0.90193755  0.83222282  0.33935332  1
  O2-  O526  1  0.92081763  0.85383567  0.65125129  1
  O2-  O527  1  0.92237155  0.83840872  0.97980341  1
  O2-  O528  1  0.09191953  0.17261078  0.00981522  1
  O2-  O529  1  0.07172321  0.16371400  0.32946710  1
  O2-  O530  1  0.06736513  0.14442848  0.62030312  1
  O2-  O531  1  0.08689738  0.41758527  0.01774551  1
  O2-  O532  1  0.11858245  0.44991546  0.29534520  1
  O2-  O533  1  0.08639813  0.41048567  0.69060145  1
  O2-  O534  1  0.09136392  0.67641838  0.02335681  1
  O2-  O535  1  0.11819230  0.68959288  0.35064217  1
  O2-  O536  1  0.14358910  0.70898378  0.67783168  1
  O2-  O537  1  0.08878680  0.91949556  0.01345363  1
  O2-  O538  1  0.08290624  0.91728885  0.35073190  1
  O2-  O539  1  0.07783082  0.92724482  0.68060318  1
  O2-  O540  1  0.32339709  0.15743050  0.01681793  1
  O2-  O541  1  0.32517492  0.16145515  0.35231296  1
  O2-  O542  1  0.33089809  0.17512850  0.69089567  1
  O2-  O543  1  0.33862144  0.41705470  0.01445005  1
  O2-  O544  1  0.33648483  0.43070261  0.35740326  1
  O2-  O545  1  0.34221162  0.42283343  0.68344808  1
  O2-  O546  1  0.31676276  0.67787343  0.03781999  1
  O2-  O547  1  0.31904293  0.66903048  0.35405335  1
  O2-  O548  1  0.28432173  0.70079368  0.69883640  1
  O2-  O549  1  0.33622773  0.92988085  0.01378697  1
  O2-  O550  1  0.32993908  0.91691981  0.34690402  1
  O2-  O551  1  0.31902981  0.93028237  0.69716308  1
  O2-  O552  1  0.57179583  0.16343196  0.01633448  1
  O2-  O553  1  0.57723428  0.15822074  0.35311560  1
  O2-  O554  1  0.57984840  0.17133881  0.68999929  1
  O2-  O555  1  0.55143520  0.37623018  0.02715296  1
  O2-  O556  1  0.60084631  0.44001610  0.36051573  1
  O2-  O557  1  0.58585079  0.41598909  0.68631098  1
  O2-  O558  1  0.59709345  0.67863988  0.01936817  1
  O2-  O559  1  0.58316895  0.67691167  0.36324613  1
  O2-  O560  1  0.57769583  0.66414285  0.68026168  1
  O2-  O561  1  0.58436377  0.91586672  0.02057448  1
  O2-  O562  1  0.58460484  0.91894385  0.35498957  1
  O2-  O563  1  0.53870574  0.85069623  0.70762843  1
  O2-  O564  1  0.83389502  0.16314882  0.02049245  1
  O2-  O565  1  0.82494779  0.14898064  0.34229029  1
  O2-  O566  1  0.82478177  0.17258328  0.69099735  1
  O2-  O567  1  0.83574272  0.42344053  0.03255209  1
  O2-  O568  1  0.84822764  0.44364243  0.35553018  1
  O2-  O569  1  0.84276840  0.43028421  0.62218862  1
  O2-  O570  1  0.84609729  0.67376767  0.02222237  1
  O2-  O571  1  0.84395812  0.66603752  0.37757604  1
  O2-  O572  1  0.83485223  0.68836308  0.69037739  1
  O2-  O573  1  0.84022072  0.92464178  0.01798966  1
  O2-  O574  1  0.82862564  0.92139033  0.36908679  1
  O2-  O575  1  0.83149048  0.91692289  0.69482114  1
