# generated using pymatgen
data_H2O
_symmetry_space_group_name_H-M   'P 1'
_cell_length_a   17.96196511
_cell_length_b   17.97013332
_cell_length_c   21.98822822
_cell_angle_alpha   89.98910420
_cell_angle_beta   90.02129336
_cell_angle_gamma   119.97390724
_symmetry_Int_Tables_number   1
_chemical_formula_structural   H2O
_chemical_formula_sum   'H384 O192'
_cell_volume   6148.08854088
_cell_formula_units_Z   192
loop_
 _symmetry_equiv_pos_site_id
 _symmetry_equiv_pos_as_xyz
  1  'x, y, z'
loop_
 _atom_type_symbol
 _atom_type_oxidation_number
  H+  1.0
  O2-  -2.0
loop_
 _atom_site_type_symbol
 _atom_site_label
 _atom_site_symmetry_multiplicity
 _atom_site_fract_x
 _atom_site_fract_y
 _atom_site_fract_z
 _atom_site_occupancy
  H+  H0  1  0.38390463  0.88840744  0.68783323  1
  H+  H1  1  0.39724626  0.76608916  0.86064810  1
  H+  H2  1  0.85506542  0.84364420  0.99160688  1
  H+  H3  1  0.44967986  0.39552439  0.65929999  1
  H+  H4  1  0.35332762  0.88610920  1.00897904  1
  H+  H5  1  0.51035945  0.97593475  0.38036687  1
  H+  H6  1  0.13985593  0.26984870  0.17089450  1
  H+  H7  1  0.10945822  0.88218846  0.34094044  1
  H+  H8  1  0.61932859  0.52504597  0.65471322  1
  H+  H9  1  0.10614152  -0.00324481  0.17365254  1
  H+  H10  1  0.98265011  0.86932376  0.50458862  1
  H+  H11  1  0.74313622  0.40677831  -0.02156061  1
  H+  H12  1  0.64269113  0.23310794  0.93330902  1
  H+  H13  1  0.85999891  0.89320763  0.35603935  1
  H+  H14  1  0.21140524  0.84396701  0.31920271  1
  H+  H15  1  0.74127213  0.87934548  0.65331993  1
  H+  H16  1  0.15733249  0.13585058  0.99824454  1
  H+  H17  1  0.02548813  0.15519140  0.67493545  1
  H+  H18  1  0.26165314  0.13717886  0.15870756  1
  H+  H19  1  0.20960131  0.84945356  0.17518769  1
  H+  H20  1  0.63922304  0.03514632  0.33419960  1
  H+  H21  1  0.32962606  0.42001387  0.44194347  1
  H+  H22  1  0.51886172  0.89845320  1.01097649  1
  H+  H23  1  0.02318119  0.12821852  0.83320824  1
  H+  H24  1  0.82834681  0.95629965  0.00328210  1
  H+  H25  1  0.68928792  0.24524254  -0.06902239  1
  H+  H26  1  0.86605940  0.14060924  0.15984760  1
  H+  H27  1  0.02165063  0.63140479  0.00144732  1
  H+  H28  1  0.63291129  0.52930952  1.03731133  1
  H+  H29  1  0.69467905  0.14591844  0.95470618  1
  H+  H30  1  0.63573221  0.28204411  0.83520010  1
  H+  H31  1  0.09001151  0.60002419  0.67062957  1
  H+  H32  1  0.88533880  0.52325180  0.33048433  1
  H+  H33  1  0.49427177  0.84084930  0.85370637  1
  H+  H34  1  0.09236471  0.86937185  0.83233528  1
  H+  H35  1  0.04162440  0.16398055  0.00627280  1
  H+  H36  1  0.73894341  0.86959896  0.00013420  1
  H+  H37  1  0.72839376  0.36459839  0.50966164  1
  H+  H38  1  0.14973900  0.27842955  0.50485862  1
  H+  H39  1  0.24657439  0.87877986  0.68130975  1
  H+  H40  1  0.20358392  0.35461982  0.32705006  1
  H+  H41  1  0.95398619  0.03935389  1.00369017  1
  H+  H42  1  0.34142893  0.90512172  0.47797534  1
  H+  H43  1  0.13716460  0.60574260  0.17047400  1
  H+  H44  1  0.42742988  0.33580234  0.27094471  1
  H+  H45  1  0.88713351  0.60946039  0.99042833  1
  H+  H46  1  0.37467077  0.39466242  0.49594497  1
  H+  H47  1  0.98392620  0.36614064  0.50077430  1
  H+  H48  1  0.61896267  0.27577172  0.66187472  1
  H+  H49  1  0.75944650  0.90776692  0.81504770  1
  H+  H50  1  0.74030447  0.62367085  0.17530193  1
  H+  H51  1  0.57929262  0.38526612  0.66309358  1
  H+  H52  1  0.86402838  0.38480641  0.00376866  1
  H+  H53  1  0.93042684  0.10112274  0.56474883  1
  H+  H54  1  0.15882827  0.27932520  0.65939671  1
  H+  H55  1  0.66868668  0.58597645  0.22776095  1
  H+  H56  1  0.49089771  0.11491294  0.51418953  1
  H+  H57  1  0.89091445  0.61624644  0.17612195  1
  H+  H58  1  0.13683431  0.60059856  0.83645292  1
  H+  H59  1  0.92081406  0.85306523  0.59726750  1
  H+  H60  1  0.02293697  0.13896742  0.15837762  1
  H+  H61  1  0.09928972  0.72730477  0.34338992  1
  H+  H62  1  0.52920064  0.12825495  0.83808675  1
  H+  H63  1  0.66615598  -0.00360517  0.83916844  1
  H+  H64  1  0.64099822  0.52595236  0.32032361  1
  H+  H65  1  0.10236270  0.37500565  0.33629822  1
  H+  H66  1  0.41053214  0.77096995  0.68720188  1
  H+  H67  1  -0.02934732  0.87403792  0.66161696  1
  H+  H68  1  0.13244741  0.51866433  0.49806895  1
  H+  H69  1  0.14750409  0.37636374  0.99524374  1
  H+  H70  1  0.21856882  0.08930422  0.85316132  1
  H+  H71  1  0.40364492  0.29146873  0.51620335  1
  H+  H72  1  0.47758071  0.61614740  0.84047819  1
  H+  H73  1  0.83968475  0.93474917  0.72319493  1
  H+  H74  1  0.21913307  0.86249632  -0.00483463  1
  H+  H75  1  0.49772285  0.86399965  0.68557984  1
  H+  H76  1  0.77398832  0.38633357  0.15722001  1
  H+  H77  1  0.29682557  0.39188765  0.66251155  1
  H+  H78  1  0.25421036  0.21245724  0.75034999  1
  H+  H79  1  0.12116007  0.38561480  0.49395118  1
  H+  H80  1  0.52723283  0.13434427  0.33802692  1
  H+  H81  1  0.28135952  0.38700115  0.16469264  1
  H+  H82  1  0.61567221  0.86219016  -0.00781697  1
  H+  H83  1  0.27898962  0.13571838  0.33362958  1
  H+  H84  1  0.82680148  0.05962530  0.74969113  1
  H+  H85  1  0.39809690  0.27488653  0.32882899  1
  H+  H86  1  0.43057686  0.08659269  0.61285463  1
  H+  H87  1  0.97331745  0.86632202  0.35736155  1
  H+  H88  1  0.36630721  0.13472430  0.33645131  1
  H+  H89  1  0.83035851  0.37825531  0.66332176  1
  H+  H90  1  0.13272078  0.75445784  0.81131456  1
  H+  H91  1  0.64166746  1.02885747  0.67691765  1
  H+  H92  1  0.11715083  0.38157962  0.15873879  1
  H+  H93  1  0.64794924  0.87811709  0.50342474  1
  H+  H94  1  0.84738877  0.62472986  0.67687577  1
  H+  H95  1  0.38778203  0.27943896  0.17432645  1
  H+  H96  1  0.61850355  0.13226737  0.82817626  1
  H+  H97  1  0.88940025  0.52038728  -0.01218432  1
  H+  H98  1  0.39933332  1.02506855  0.67174700  1
  H+  H99  1  0.62900176  0.82912847  0.92820606  1
  H+  H100  1  0.47702269  0.36845673  -0.00430867  1
  H+  H101  1  0.37327325  0.22947058  0.00759419  1
  H+  H102  1  0.13606756  0.61019850  0.99405019  1
  H+  H103  1  0.09468113  -0.04155056  0.84579472  1
  H+  H104  1  1.00466794  0.60928314  0.67560120  1
  H+  H105  1  0.27179863  0.62941621  0.00089873  1
  H+  H106  1  0.62597225  0.65153161  0.16716155  1
  H+  H107  1  0.52106614  0.64300933  0.49376191  1
  H+  H108  1  0.16379611  0.82744307  0.76303841  1
  H+  H109  1  0.63553198  0.58190673  0.88051396  1
  H+  H110  1  0.01982424  0.63544699  0.49687851  1
  H+  H111  1  0.11312552  0.46897973  0.82540616  1
  H+  H112  1  -0.00885693  0.86044236  0.01014913  1
  H+  H113  1  0.46327555  0.34383419  0.84026708  1
  H+  H114  1  1.01942934  0.62541785  0.15800494  1
  H+  H115  1  0.62512430  0.48338889  0.48814391  1
  H+  H116  1  0.13611971  0.12571110  0.65103131  1
  H+  H117  1  0.91854509  0.33445688  0.93345978  1
  H+  H118  1  0.64695200  0.61897608  0.32331617  1
  H+  H119  1  0.12622448  0.14485963  0.48679800  1
  H+  H120  1  0.75762343  0.62453224  0.67376838  1
  H+  H121  1  0.32549459  0.38083776  0.75842111  1
  H+  H122  1  0.59302494  0.78286114  0.82959522  1
  H+  H123  1  0.75822625  0.14819505  0.81926731  1
  H+  H124  1  0.82609301  0.62299274  0.82730856  1
  H+  H125  1  0.83943496  0.24529733  0.82082648  1
  H+  H126  1  0.77438478  0.39190931  0.34214037  1
  H+  H127  1  0.66109828  0.13020451  0.49178714  1
  H+  H128  1  0.89324919  0.27255662  0.99234920  1
  H+  H129  1  0.61386232  0.72960390  0.49308664  1
  H+  H130  1  0.10977523  0.21924440  0.83372691  1
  H+  H131  1  0.14371434  0.81128911  0.26487999  1
  H+  H132  1  0.41547438  0.33036061  -0.06351751  1
  H+  H133  1  0.47036363  0.10423769  1.01146981  1
  H+  H134  1  0.11776005  0.09098919  0.17093796  1
  H+  H135  1  0.64128600  0.36732203  0.50287342  1
  H+  H136  1  0.13041708  0.35513960  0.84138047  1
  H+  H137  1  0.17598722  0.57322077  0.26765353  1
  H+  H138  1  0.86617157  0.27311630  0.65116146  1
  H+  H139  1  0.11860954  0.88970204  0.50389704  1
  H+  H140  1  0.93834309  0.79180829  0.17549001  1
  H+  H141  1  0.13671090  0.37731248  0.67145043  1
  H+  H142  1  0.38651920  0.11459628  0.00264478  1
  H+  H143  1  0.61639112  0.64640647  0.03245618  1
  H+  H144  1  0.11581041  0.97476319  0.34199107  1
  H+  H145  1  0.63482590  0.11437289  0.67109606  1
  H+  H146  1  0.12155376  0.49680009  0.64840118  1
  H+  H147  1  0.37034992  0.63002299  0.50040314  1
  H+  H148  1  0.85471545  0.76215215  0.83423934  1
  H+  H149  1  0.58835307  0.47069798  0.81535913  1
  H+  H150  1  0.10594788  0.88802708  0.69419097  1
  H+  H151  1  0.33718244  0.66083052  0.40707158  1
  H+  H152  1  0.63147848  0.89317414  0.67754032  1
  H+  H153  1  0.33116778  0.66215654  0.91804403  1
  H+  H154  1  0.10991378  0.72088651  1.00379309  1
  H+  H155  1  0.13546762  0.52015524  -0.00309439  1
  H+  H156  1  0.64469791  0.02526825  0.17799901  1
  H+  H157  1  0.38863839  0.60529057  0.86052633  1
  H+  H158  1  0.08898316  0.17136948  0.10177772  1
  H+  H159  1  0.28207366  0.14247456  1.00565039  1
  H+  H160  1  0.25376801  0.45596315  0.38722237  1
  H+  H161  1  1.02037301  0.12697818  0.33424064  1
  H+  H162  1  0.38799964  0.60254547  0.33478388  1
  H+  H163  1  0.02696333  0.38739595  0.00805073  1
  H+  H164  1  0.60075073  0.38820337  0.81453426  1
  H+  H165  1  0.79226650  0.89904760  0.16432316  1
  H+  H166  1  0.78184767  0.63012061  1.02849746  1
  H+  H167  1  0.35250528  0.97439367  0.01307234  1
  H+  H168  1  0.08153942  0.86476874  0.01303875  1
  H+  H169  1  0.79277720  0.04755761  0.77331160  1
  H+  H170  1  0.36873831  0.47817593  1.00941414  1
  H+  H171  1  0.87880316  0.00902459  0.84568646  1
  H+  H172  1  0.49054911  0.37671583  0.49713098  1
  H+  H173  1  0.52716446  0.38942032  0.33776700  1
  H+  H174  1  0.85897756  0.71613422  1.00169011  1
  H+  H175  1  0.22327372  0.12272402  0.64541398  1
  H+  H176  1  0.23373370  0.60068107  0.32787699  1
  H+  H177  1  0.68083893  0.38268323  0.92016058  1
  H+  H178  1  0.86815823  -0.01446060  0.33833156  1
  H+  H179  1  0.62207958  0.41397980  0.00364163  1
  H+  H180  1  0.34322565  0.18499509  0.60926565  1
  H+  H181  1  0.33335494  0.47624687  0.34596839  1
  H+  H182  1  0.38722390  0.77514642  0.16501459  1
  H+  H183  1  0.27804188  0.87002096  0.82463963  1
  H+  H184  1  0.65021666  0.79072491  0.18033600  1
  H+  H185  1  0.53171781  0.65245113  0.65925994  1
  H+  H186  1  0.40282819  1.02562241  0.52778930  1
  H+  H187  1  0.63688033  0.61612451  0.50130045  1
  H+  H188  1  0.22231367  0.60579200  0.50248088  1
  H+  H189  1  0.88841197  0.61744494  0.50636892  1
  H+  H190  1  0.75139907  0.12879362  0.48460235  1
  H+  H191  1  0.88701426  0.61466886  0.31669824  1
  H+  H192  1  0.86613304  0.51545564  0.65640609  1
  H+  H193  1  0.13095109  0.25190509  1.00829261  1
  H+  H194  1  0.73921114  0.88056362  0.33394780  1
  H+  H195  1  0.25706574  0.35071715  0.81388816  1
  H+  H196  1  0.34833710  0.86577168  0.31484699  1
  H+  H197  1  0.39284015  0.64171065  0.67399543  1
  H+  H198  1  0.46431749  0.86078066  0.32563314  1
  H+  H199  1  0.37654876  0.14527407  0.52479404  1
  H+  H200  1  0.87955639  0.12701739  0.32480607  1
  H+  H201  1  0.61819734  0.13291664  0.02531323  1
  H+  H202  1  0.23317550  0.16456771  0.74847680  1
  H+  H203  1  0.88475829  0.77942640  0.34627383  1
  H+  H204  1  0.63405883  0.62065091  0.65488555  1
  H+  H205  1  0.46426256  0.80475177  0.53926729  1
  H+  H206  1  0.35146118  0.87811859  0.16213609  1
  H+  H207  1  0.63946261  0.27607755  0.32880357  1
  H+  H208  1  0.38877785  0.77948617  -0.00379650  1
  H+  H209  1  0.61079409  -0.01488481  1.00789266  1
  H+  H210  1  0.85863071  0.70114557  0.26913711  1
  H+  H211  1  0.89133590  1.03264421  0.16552019  1
  H+  H212  1  0.39706021  0.37185816  0.17599561  1
  H+  H213  1  0.78083354  0.63975342  0.49359760  1
  H+  H214  1  0.74619515  0.12411415  0.00322299  1
  H+  H215  1  0.59642778  0.42449358  0.42803703  1
  H+  H216  1  0.85812419  0.48617207  0.81592043  1
  H+  H217  1  0.52422025  0.14124107  0.68181994  1
  H+  H218  1  0.05572977  0.90107933  0.74830923  1
  H+  H219  1  0.66878262  0.58935762  1.09480501  1
  H+  H220  1  0.94805335  0.65629391  0.84815531  1
  H+  H221  1  0.86704113  0.39022217  0.49053952  1
  H+  H222  1  0.35752830  0.11064743  0.85012847  1
  H+  H223  1  0.83377377  0.87921789  0.82493334  1
  H+  H224  1  0.72179402  0.37221214  0.82611232  1
  H+  H225  1  0.39809848  0.54040173  0.50737527  1
  H+  H226  1  0.28762355  0.14698607  0.51794903  1
  H+  H227  1  0.58734951  0.17594858  0.73902976  1
  H+  H228  1  0.12185366  0.25896294  0.32163308  1
  H+  H229  1  0.24000457  0.36868194  0.50919641  1
  H+  H230  1  0.87025232  0.13169649  0.01542949  1
  H+  H231  1  0.50219751  0.65522033  0.18613541  1
  H+  H232  1  0.36590521  0.71688514  0.34490975  1
  H+  H233  1  0.36513729  0.63102389  0.00043642  1
  H+  H234  1  0.02530268  0.61224900  0.82433371  1
  H+  H235  1  0.60341400  0.65567540  0.81334784  1
  H+  H236  1  0.16606009  0.82915795  0.63788028  1
  H+  H237  1  0.86374274  0.39118585  0.34647717  1
  H+  H238  1  0.61899770  0.23128810  0.49356843  1
  H+  H239  1  0.90485422  0.12537330  0.50070121  1
  H+  H240  1  0.22841268  0.61083866  0.16743112  1
  H+  H241  1  0.41126231  0.53770496  0.64458101  1
  H+  H242  1  0.67788783  0.85300194  0.23784170  1
  H+  H243  1  0.10914501  0.63383934  0.49036841  1
  H+  H244  1  0.33970091  0.41806127  0.10652751  1
  H+  H245  1  0.97521052  0.36791655  0.33955077  1
  H+  H246  1  0.89093294  0.27778934  0.33111203  1
  H+  H247  1  0.63540550  0.73495800  0.34282817  1
  H+  H248  1  0.39638008  0.00933439  0.85586704  1
  H+  H249  1  0.63948149  0.00652580  0.49040949  1
  H+  H250  1  0.03808954  0.33559165  0.67883398  1
  H+  H251  1  0.38371154  0.01499105  0.17839451  1
  H+  H252  1  0.52310112  0.38196120  0.16506468  1
  H+  H253  1  0.07964974  0.85527824  0.16500656  1
  H+  H254  1  0.63854186  0.35970145  0.17619604  1
  H+  H255  1  0.62139047  0.91262503  0.74650708  1
  H+  H256  1  0.16649526  0.09476853  0.56031850  1
  H+  H257  1  0.61790258  0.89370313  0.16411702  1
  H+  H258  1  0.36454684  0.38686678  0.00734323  1
  H+  H259  1  0.60684098  0.72871016  0.01091632  1
  H+  H260  1  0.14758478  1.03339257  0.50264208  1
  H+  H261  1  0.77877547  0.64042608  0.31043827  1
  H+  H262  1  0.47986861  0.61475658  1.00345148  1
  H+  H263  1  0.34833874  0.70924372  0.50486156  1
  H+  H264  1  0.38900093  0.01695311  0.32412444  1
  H+  H265  1  0.14741950  0.56238200  0.59275220  1
  H+  H266  1  0.36843555  0.88037707  0.54122004  1
  H+  H267  1  0.62142734  0.13497188  0.17863258  1
  H+  H268  1  0.13488778  0.10697302  0.32440006  1
  H+  H269  1  0.13474395  0.77187703  0.52499924  1
  H+  H270  1  0.60887312  0.21522562  0.02722251  1
  H+  H271  1  0.61854388  0.39259220  0.33675402  1
  H+  H272  1  -0.02321154  0.35948965  0.16221351  1
  H+  H273  1  0.03762907  0.14600495  0.49166353  1
  H+  H274  1  0.87504435  0.90922995  0.66288380  1
  H+  H275  1  0.83207110  0.42152036  0.43535478  1
  H+  H276  1  0.22317028  0.85613793  0.53858551  1
  H+  H277  1  0.87337935  -0.01217581  0.49808617  1
  H+  H278  1  0.70163569  0.60968942  0.82553797  1
  H+  H279  1  0.88851141  0.37828184  0.83822357  1
  H+  H280  1  0.88843219  0.13199807  0.65642677  1
  H+  H281  1  0.94476426  0.37174051  0.65312730  1
  H+  H282  1  0.79147975  0.12849777  0.33197169  1
  H+  H283  1  0.36921480  0.87339515  0.83613428  1
  H+  H284  1  0.00258872  0.63130301  0.34485855  1
  H+  H285  1  0.64482328  0.86922949  0.33689069  1
  H+  H286  1  0.88228043  0.23551339  0.47789373  1
  H+  H287  1  0.89364807  0.86936321  0.50176777  1
  H+  H288  1  0.84023635  0.16651410  0.07320089  1
  H+  H289  1  0.83252910  0.41704204  0.06138625  1
  H+  H290  1  0.76555953  0.14363502  0.66580940  1
  H+  H291  1  0.41342913  0.57112864  0.27570806  1
  H+  H292  1  0.90748644  0.58082174  0.60032555  1
  H+  H293  1  0.06971234  0.66823011  0.41120842  1
  H+  H294  1  0.86058747  0.17195696  0.41964416  1
  H+  H295  1  0.07908752  0.65598681  0.09834654  1
  H+  H296  1  0.91371249  0.58744009  0.90218986  1
  H+  H297  1  0.73533471  0.11510989  0.17596461  1
  H+  H298  1  0.58743329  0.17183271  0.43379605  1
  H+  H299  1  0.67737750  0.08575502  0.27146015  1
  H+  H300  1  0.66453859  0.58569739  0.56089616  1
  H+  H301  1  0.08340638  0.17370411  0.73512101  1
  H+  H302  1  0.36838784  0.32728123  0.83980662  1
  H+  H303  1  0.86201565  0.47616138  0.15574978  1
  H+  H304  1  0.92082884  0.57777388  0.23081262  1
  H+  H305  1  0.32876516  0.89778300  0.37741730  1
  H+  H306  1  0.11790933  0.47187534  0.33902280  1
  H+  H307  1  0.67261250  0.33542668  0.26924084  1
  H+  H308  1  0.16237301  0.32738028  0.23034336  1
  H+  H309  1  0.56168253  0.93934589  0.41491307  1
  H+  H310  1  0.55543109  0.41471665  0.72433355  1
  H+  H311  1  0.89230724  0.04421745  0.65741752  1
  H+  H312  1  0.83814547  0.93200340  0.43729904  1
  H+  H313  1  0.54982479  0.92554629  0.51263397  1
  H+  H314  1  0.33836743  0.66756777  0.09379825  1
  H+  H315  1  0.07305924  0.63348400  0.75827285  1
  H+  H316  1  0.08590828  0.40659795  0.76679257  1
  H+  H317  1  0.47674588  0.86545203  0.17012277  1
  H+  H318  1  0.61473918  0.46970432  0.16338013  1
  H+  H319  1  0.83048223  0.91678061  0.09905878  1
  H+  H320  1  0.18659983  0.33564279  0.59709802  1
  H+  H321  1  0.92369937  0.06484588  0.94198748  1
  H+  H322  1  0.08659550  0.41660254  0.06856334  1
  H+  H323  1  0.58642161  0.16001494  0.12040434  1
  H+  H324  1  0.42490247  0.84212094  0.93957579  1
  H+  H325  1  0.94547164  0.84875536  0.84199527  1
  H+  H326  1  0.86959335  0.72750091  0.49411834  1
  H+  H327  1  0.35436231  0.19751072  0.84786964  1
  H+  H328  1  0.58661056  0.92407935  0.10480447  1
  H+  H329  1  0.57658633  0.68563841  0.75372712  1
  H+  H330  1  0.08823779  0.41056247  0.43242303  1
  H+  H331  1  -0.02714634  0.36838276  0.83660138  1
  H+  H332  1  0.23817968  0.37620945  0.99546060  1
  H+  H333  1  0.74396689  0.38392873  0.67048981  1
  H+  H334  1  0.47667637  0.10054877  0.18151905  1
  H+  H335  1  0.88859772  0.36170566  0.16015689  1
  H+  H336  1  0.73574542  0.87533282  0.50411590  1
  H+  H337  1  0.15643285  0.06904965  0.26532407  1
  H+  H338  1  0.64079119  0.27128316  0.18111469  1
  H+  H339  1  0.46630224  0.69623588  0.23178374  1
  H+  H340  1  0.91346842  0.33294057  0.55482221  1
  H+  H341  1  0.16922930  0.33449987  0.90050150  1
  H+  H342  1  0.03983195  0.87705599  0.10755887  1
  H+  H343  1  0.42758285  0.82084120  0.60084454  1
  H+  H344  1  0.41718372  0.82281866  0.26069676  1
  H+  H345  1  0.59049040  0.68369828  0.11155368  1
  H+  H346  1  0.16076476  0.83595222  0.93584722  1
  H+  H347  1  0.70876837  0.71113410  0.93217320  1
  H+  H348  1  0.58028744  0.40998325  0.07055718  1
  H+  H349  1  0.59928678  0.67149653  0.39954052  1
  H+  H350  1  0.64869097  0.33221132  0.60013575  1
  H+  H351  1  0.27093610  0.62961446  0.86019700  1
  H+  H352  1  0.42529704  0.07101937  0.91484406  1
  H+  H353  1  0.88575756  0.81929055  0.93030849  1
  H+  H354  1  0.12504069  0.75651982  0.17172325  1
  H+  H355  1  0.32402601  0.17290715  0.10134279  1
  H+  H356  1  0.88788109  0.52664785  0.50643279  1
  H+  H357  1  0.91992998  0.08653703  0.22822871  1
  H+  H358  1  0.82446064  0.18864425  0.72257558  1
  H+  H359  1  0.86536346  0.23137716  0.15540258  1
  H+  H360  1  0.38364943  0.65973376  0.74309755  1
  H+  H361  1  0.09496203  0.91718678  0.43971814  1
  H+  H362  1  0.42989913  0.59920735  0.58251900  1
  H+  H363  1  0.88723016  0.10006757  0.85814813  1
  H+  H364  1  0.31822511  0.90754154  0.10476638  1
  H+  H365  1  0.35828461  0.13863148  0.66362883  1
  H+  H366  1  0.11849008  0.47207455  0.15959250  1
  H+  H367  1  0.67408167  0.04966020  0.89868970  1
  H+  H368  1  0.95726793  0.03217214  0.28174735  1
  H+  H369  1  0.08323011  0.16505521  0.39453381  1
  H+  H370  1  0.17188735  0.08849732  0.94208796  1
  H+  H371  1  0.15703135  0.56991182  0.90063328  1
  H+  H372  1  0.82486121  0.42157495  0.75897639  1
  H+  H373  1  0.35522191  0.92179330  0.74474535  1
  H+  H374  1  0.42148128  0.07798419  0.26699400  1
  H+  H375  1  0.34691866  0.89900894  0.42718771  1
  H+  H376  1  0.62188577  0.14424474  0.33932118  1
  H+  H377  1  0.80708029  0.65162812  0.76097146  1
  H+  H378  1  0.37453298  0.65325827  0.15756910  1
  H+  H379  1  0.72853878  0.68329389  0.93642514  1
  H+  H380  1  0.67782034  0.84734797  0.59507222  1
  H+  H381  1  0.62351785  0.74156635  0.66399276  1
  H+  H382  1  0.42934515  0.58209375  0.93909025  1
  H+  H383  1  0.13465641  0.09930723  0.84546534  1
  O2-  O384  1  0.08497960  0.16378586  0.14677184  1
  O2-  O385  1  0.09622091  0.17696270  0.47307803  1
  O2-  O386  1  0.08199788  0.15963280  0.81633914  1
  O2-  O387  1  0.08743691  0.41251374  0.14246390  1
  O2-  O388  1  0.08790312  0.41279067  0.47830253  1
  O2-  O389  1  0.07852848  0.40772113  0.81158364  1
  O2-  O390  1  0.08084123  0.65515038  0.14367758  1
  O2-  O391  1  0.07977240  0.66709149  0.47879978  1
  O2-  O392  1  0.08288552  0.64249634  0.80606292  1
  O2-  O393  1  0.03843634  0.87457769  0.15354846  1
  O2-  O394  1  0.09266888  0.92162705  0.48493156  1
  O2-  O395  1  0.05655056  0.89678842  0.83325886  1
  O2-  O396  1  0.31795824  0.18325449  0.14484243  1
  O2-  O397  1  0.34965777  0.18151351  0.52934329  1
  O2-  O398  1  0.32059253  0.13490122  0.83924957  1
  O2-  O399  1  0.34238397  0.41898652  0.15154361  1
  O2-  O400  1  0.33715372  0.42122608  0.48656949  1
  O2-  O401  1  0.31052718  0.35418484  0.79888826  1
  O2-  O402  1  0.33566151  0.67176442  0.13853977  1
  O2-  O403  1  0.32842902  0.65430298  0.48394600  1
  O2-  O404  1  0.33326493  0.66218631  0.87324771  1
  O2-  O405  1  0.31734579  0.90559951  0.15010891  1
  O2-  O406  1  0.33942288  0.91100270  0.52540207  1
  O2-  O407  1  0.34180403  0.90689969  0.82329132  1
  O2-  O408  1  0.58829450  0.16366230  0.16539782  1
  O2-  O409  1  0.59132359  0.17019699  0.47908340  1
  O2-  O410  1  0.58804863  0.16385547  0.81999044  1
  O2-  O411  1  0.58497791  0.40938343  0.14921030  1
  O2-  O412  1  0.59821991  0.42245977  0.47368614  1
  O2-  O413  1  0.56193026  0.41009436  0.80136239  1
  O2-  O414  1  0.59705615  0.68539993  0.15686986  1
  O2-  O415  1  0.58344975  0.66948612  0.47850697  1
  O2-  O416  1  0.57376625  0.68695395  0.79973521  1
  O2-  O417  1  0.58463857  0.92220849  0.15004727  1
  O2-  O418  1  0.59614091  0.93960713  0.48353559  1
  O2-  O419  1  0.66395298  0.90842749  0.81611474  1
  O2-  O420  1  0.83264583  0.16745509  0.14267495  1
  O2-  O421  1  0.85651085  0.17412118  0.46502267  1
  O2-  O422  1  0.79791067  0.19821300  0.79435528  1
  O2-  O423  1  0.83241790  0.41686695  0.13826010  1
  O2-  O424  1  0.83408725  0.42006562  0.48105977  1
  O2-  O425  1  0.83029105  0.42505262  0.80468171  1
  O2-  O426  1  0.84360301  0.67190595  0.16194101  1
  O2-  O427  1  0.84219301  0.66618028  0.48170886  1
  O2-  O428  1  0.80075857  0.65517052  0.80890442  1
  O2-  O429  1  0.84709518  0.93107004  0.14202644  1
  O2-  O430  1  0.83929989  0.92745492  0.48280950  1
  O2-  O431  1  0.82170409  0.92445856  0.80970044  1
  O2-  O432  1  0.14352910  0.05696203  0.18694232  1
  O2-  O433  1  0.17560297  0.09512498  0.51421577  1
  O2-  O434  1  0.15558030  0.06326478  0.86474754  1
  O2-  O435  1  0.16822948  0.33098070  0.18479234  1
  O2-  O436  1  0.17725479  0.33743604  0.52320117  1
  O2-  O437  1  0.16041902  0.32434084  0.85572873  1
  O2-  O438  1  0.16957697  0.57711824  0.18465441  1
  O2-  O439  1  0.15960748  0.57932361  0.51303688  1
  O2-  O440  1  0.16558856  0.57022239  0.85560141  1
  O2-  O441  1  0.14888799  0.81547794  0.18967820  1
  O2-  O442  1  0.16030471  0.82821400  0.54579337  1
  O2-  O443  1  0.16277359  0.81860090  0.80768510  1
  O2-  O444  1  0.41658371  0.07328502  0.19607732  1
  O2-  O445  1  0.43398449  0.08850818  0.53531052  1
  O2-  O446  1  0.42934681  0.07024431  0.86947895  1
  O2-  O447  1  0.42706825  0.33962984  0.18906701  1
  O2-  O448  1  0.43190948  0.35492248  0.51367488  1
  O2-  O449  1  0.40736083  0.31067198  0.86173508  1
  O2-  O450  1  0.44710150  0.64717629  0.20459019  1
  O2-  O451  1  0.42552041  0.60133947  0.51990138  1
  O2-  O452  1  0.42570440  0.57936997  0.86516922  1
  O2-  O453  1  0.41585369  0.83316507  0.18481370  1
  O2-  O454  1  0.42137305  0.81816579  0.55434478  1
  O2-  O455  1  0.43584434  0.83010595  0.86358839  1
  O2-  O456  1  0.67652026  0.08475528  0.19519345  1
  O2-  O457  1  0.69107205  0.09726886  0.50002789  1
  O2-  O458  1  0.67120167  0.05244454  0.85446302  1
  O2-  O459  1  0.67335279  0.33396121  0.19144566  1
  O2-  O460  1  0.66658334  0.33375674  0.52208512  1
  O2-  O461  1  0.66154310  0.34475152  0.84161508  1
  O2-  O462  1  0.67502880  0.59109432  0.18175302  1
  O2-  O463  1  0.66850993  0.58653556  0.51555999  1
  O2-  O464  1  0.63778522  0.58168220  0.83626567  1
  O2-  O465  1  0.67666848  0.85242714  0.19239156  1
  O2-  O466  1  0.67404428  0.84416993  0.51818699  1
  O2-  O467  1  0.59762716  0.83397181  0.85194762  1
  O2-  O468  1  0.91890965  0.09309019  0.18208020  1
  O2-  O469  1  0.93316182  0.09510846  0.51973453  1
  O2-  O470  1  0.91502732  0.06680594  0.86787029  1
  O2-  O471  1  0.91472453  0.32677833  0.17264587  1
  O2-  O472  1  0.92063433  0.33533117  0.50989860  1
  O2-  O473  1  0.91446392  0.34487167  0.85508378  1
  O2-  O474  1  0.91837223  0.57958557  0.18571836  1
  O2-  O475  1  0.91987433  0.58678482  0.52228847  1
  O2-  O476  1  0.91332747  0.59470230  0.85550545  1
  O2-  O477  1  0.88135630  0.75226354  0.19575175  1
  O2-  O478  1  0.92159531  0.83780908  0.51835661  1
  O2-  O479  1  0.88279950  0.82166001  0.85130241  1
  O2-  O480  1  0.16280784  0.07377449  0.31058562  1
  O2-  O481  1  0.16215897  0.09527933  0.63096096  1
  O2-  O482  1  0.18514196  0.10278239  0.98591310  1
  O2-  O483  1  0.14736242  0.31965540  0.30550561  1
  O2-  O484  1  0.19362765  0.33936479  0.64305945  1
  O2-  O485  1  0.17732007  0.34615056  0.97894502  1
  O2-  O486  1  0.17377564  0.56850388  0.31253477  1
  O2-  O487  1  0.14125732  0.55680142  0.63774371  1
  O2-  O488  1  0.16689648  0.57991773  0.97917357  1
  O2-  O489  1  0.14791835  0.81402036  0.31082091  1
  O2-  O490  1  0.18264971  0.84996761  0.67993201  1
  O2-  O491  1  0.15820347  0.82832142  0.97977652  1
  O2-  O492  1  0.42503588  0.07829955  0.31357426  1
  O2-  O493  1  0.42612068  0.08613098  0.65822942  1
  O2-  O494  1  0.41337574  0.07741368  0.99181230  1
  O2-  O495  1  0.43119117  0.33645411  0.31597082  1
  O2-  O496  1  0.39011503  0.37469851  0.64327830  1
  O2-  O497  1  0.41590088  0.33511339  0.98216048  1
  O2-  O498  1  0.40520152  0.56096763  0.31963741  1
  O2-  O499  1  0.43521001  0.59813771  0.63238352  1
  O2-  O500  1  0.42118241  0.58345255  0.98478784  1
  O2-  O501  1  0.40972724  0.81813144  0.30611746  1
  O2-  O502  1  0.43613314  0.83223246  0.67169630  1
  O2-  O503  1  0.41740452  0.84141750  0.98493393  1
  O2-  O504  1  0.68097223  0.09172391  0.31698076  1
  O2-  O505  1  0.66657757  0.08554961  0.65675814  1
  O2-  O506  1  0.68561886  0.10353363  0.98604156  1
  O2-  O507  1  0.67184521  0.33708470  0.31479884  1
  O2-  O508  1  0.64323088  0.33559058  0.64527974  1
  O2-  O509  1  0.69454472  0.41065510  0.96055891  1
  O2-  O510  1  0.67134427  0.58528755  0.30232016  1
  O2-  O511  1  0.65876390  0.58479329  0.64010398  1
  O2-  O512  1  0.66757051  0.59172915  1.05016901  1
  O2-  O513  1  0.67776857  0.84735981  0.31614447  1
  O2-  O514  1  0.67900593  0.84619421  0.64068909  1
  O2-  O515  1  0.63831690  0.82711831  0.97280828  1
  O2-  O516  1  0.93190877  0.06460001  0.29889012  1
  O2-  O517  1  0.92367811  0.10596206  0.64346216  1
  O2-  O518  1  0.92448255  0.06859671  0.98797438  1
  O2-  O519  1  0.91286446  0.34005903  0.32975601  1
  O2-  O520  1  0.89040025  0.33416948  0.63295616  1
  O2-  O521  1  0.92090821  0.33334673  0.97894652  1
  O2-  O522  1  0.92097063  0.58350022  0.31353556  1
  O2-  O523  1  0.90295367  0.57737876  0.64582057  1
  O2-  O524  1  0.91947774  0.58100215  0.97225808  1
  O2-  O525  1  0.90993986  0.83975303  0.35961798  1
  O2-  O526  1  0.91503843  0.85936873  0.64166092  1
  O2-  O527  1  0.88910713  0.81817995  0.97562055  1
  O2-  O528  1  0.09939285  0.19042422  0.02391039  1
  O2-  O529  1  0.08258802  0.16222668  0.34912112  1
  O2-  O530  1  0.08593059  0.18322502  0.69034958  1
  O2-  O531  1  0.08768868  0.41983207  0.02241660  1
  O2-  O532  1  0.08349313  0.41224684  0.35745720  1
  O2-  O533  1  0.09046652  0.38947123  0.68744076  1
  O2-  O534  1  0.08186751  0.66011934  0.01798346  1
  O2-  O535  1  0.06508239  0.66746221  0.36361983  1
  O2-  O536  1  0.06279968  0.62920667  0.69304375  1
  O2-  O537  1  0.04630251  0.88561517  0.03268385  1
  O2-  O538  1  0.08707361  0.91617249  0.36143066  1
  O2-  O539  1  0.05942675  0.90008845  0.70370348  1
  O2-  O540  1  0.34350406  0.16842949  0.02162371  1
  O2-  O541  1  0.33837158  0.16750274  0.34956882  1
  O2-  O542  1  0.33128268  0.17323618  0.65354010  1
  O2-  O543  1  0.33456360  0.41734820  0.02346862  1
  O2-  O544  1  0.28378947  0.42804336  0.37036102  1
  O2-  O545  1  0.35835710  0.42285075  0.67798323  1
  O2-  O546  1  0.33557223  0.66580941  0.00769047  1
  O2-  O547  1  0.33857274  0.65768808  0.36133469  1
  O2-  O548  1  0.37035957  0.67057413  0.70237058  1
  O2-  O549  1  0.31896841  0.91173647  0.02439712  1
  O2-  O550  1  0.31871640  0.89678498  0.33048390  1
  O2-  O551  1  0.35527946  0.92192708  0.69941753  1
  O2-  O552  1  0.58168391  0.15585094  0.04128918  1
  O2-  O553  1  0.58739662  0.16974769  0.35457698  1
  O2-  O554  1  0.58691404  0.17709320  0.69386127  1
  O2-  O555  1  0.57967221  0.42459892  0.02668834  1
  O2-  O556  1  0.59040443  0.42509572  0.35105335  1
  O2-  O557  1  0.55315130  0.41898591  0.67895155  1
  O2-  O558  1  0.57984748  0.67424372  0.03456749  1
  O2-  O559  1  0.61028861  0.67438831  0.35496537  1
  O2-  O560  1  0.59010075  0.68138083  0.68000544  1
  O2-  O561  1  0.58066975  0.92650483  0.02458096  1
  O2-  O562  1  0.54357624  0.94737746  0.37260457  1
  O2-  O563  1  0.60355269  0.91792819  0.70407544  1
  O2-  O564  1  0.84143132  0.16425392  0.02610019  1
  O2-  O565  1  0.85362766  0.15903648  0.34276174  1
  O2-  O566  1  0.82925473  0.18248547  0.67748829  1
  O2-  O567  1  0.83579234  0.41822104  0.01569639  1
  O2-  O568  1  0.83453663  0.42515994  0.35832459  1
  O2-  O569  1  0.80618263  0.41109938  0.68361738  1
  O2-  O570  1  0.84229012  0.65703485  0.01527098  1
  O2-  O571  1  0.84355654  0.67488773  0.31024287  1
  O2-  O572  1  0.81335638  0.64840105  0.69612514  1
  O2-  O573  1  0.79879296  0.89618406  0.01691613  1
  O2-  O574  1  0.83022061  0.92820522  0.36108502  1
  O2-  O575  1  0.84242696  0.94033071  0.67848723  1
