# generated using pymatgen
data_H2O
_symmetry_space_group_name_H-M   'P 1'
_cell_length_a   17.99082781
_cell_length_b   17.99646166
_cell_length_c   21.99730858
_cell_angle_alpha   89.99020988
_cell_angle_beta   90.01443369
_cell_angle_gamma   119.99252920
_symmetry_Int_Tables_number   1
_chemical_formula_structural   H2O
_chemical_formula_sum   'H384 O192'
_cell_volume   6168.38007895
_cell_formula_units_Z   192
loop_
 _symmetry_equiv_pos_site_id
 _symmetry_equiv_pos_as_xyz
  1  'x, y, z'
loop_
 _atom_type_symbol
 _atom_type_oxidation_number
  H+  1.0
  O2-  -2.0
loop_
 _atom_site_type_symbol
 _atom_site_label
 _atom_site_symmetry_multiplicity
 _atom_site_fract_x
 _atom_site_fract_y
 _atom_site_fract_z
 _atom_site_occupancy
  H+  H0  1  0.89549478  0.06441502  0.85240479  1
  H+  H1  1  0.63103731  0.49905738  0.18022573  1
  H+  H2  1  0.12310830  0.60953518  0.99194628  1
  H+  H3  1  0.63828205  0.77920338  0.51061192  1
  H+  H4  1  0.27863548  0.88757280  0.33952182  1
  H+  H5  1  0.63386537  0.85381105  0.25778429  1
  H+  H6  1  -0.02727724  0.61116941  0.84506701  1
  H+  H7  1  0.86110461  0.15571497  0.34260070  1
  H+  H8  1  0.71517088  0.59218459  0.17795288  1
  H+  H9  1  0.35827479  0.22826719  0.68207221  1
  H+  H10  1  0.59675719  0.12384715  1.01181414  1
  H+  H11  1  0.21575070  0.10472509  0.84313821  1
  H+  H12  1  0.34224048  0.19605524  0.86267068  1
  H+  H13  1  0.36986959  0.72686258  0.66474711  1
  H+  H14  1  0.60153041  0.51567402  0.79113029  1
  H+  H15  1  0.35815321  0.12363480  0.83433378  1
  H+  H16  1  0.13576995  0.36968712  -0.01148362  1
  H+  H17  1  0.42300743  0.81179356  1.03313546  1
  H+  H18  1  0.88778437  0.86641144  0.64880676  1
  H+  H19  1  0.97885495  0.11582673  0.65627791  1
  H+  H20  1  0.14566608  0.02199765  0.18040411  1
  H+  H21  1  0.40013247  0.91872801  0.15257503  1
  H+  H22  1  0.22303846  0.87033248  0.99808435  1
  H+  H23  1  0.76459568  0.62011314  1.00189622  1
  H+  H24  1  0.34381880  0.70037557  0.00806429  1
  H+  H25  1  0.47703348  0.61726980  0.32574139  1
  H+  H26  1  0.07934248  0.66406061  0.06413617  1
  H+  H27  1  0.89244717  0.11730005  0.15770231  1
  H+  H28  1  0.27426854  0.39038405  0.66963445  1
  H+  H29  1  0.17230618  0.54466578  0.50881440  1
  H+  H30  1  0.10575552  0.47550427  0.15546506  1
  H+  H31  1  0.86343416  0.88922808  0.48379999  1
  H+  H32  1  0.67144821  0.59281471  0.56460270  1
  H+  H33  1  0.26227218  0.87552518  0.82347515  1
  H+  H34  1  0.40684303  0.30204593  0.81623319  1
  H+  H35  1  0.37919445  0.52763485  0.83755364  1
  H+  H36  1  0.10602964  0.63100425  0.15846376  1
  H+  H37  1  0.62663400  0.33717002  0.17639920  1
  H+  H38  1  0.29510041  0.65511438  0.49642977  1
  H+  H39  1  0.50972839  0.35927728  0.17473183  1
  H+  H40  1  0.62394947  0.09538511  0.18783666  1
  H+  H41  1  0.63980815  1.02626912  0.01444319  1
  H+  H42  1  0.11345576  0.14193683  0.82682880  1
  H+  H43  1  0.59810822  0.11830938  0.34755290  1
  H+  H44  1  0.33615725  0.91697274  0.39992047  1
  H+  H45  1  0.62702512  0.40127858  0.86514467  1
  H+  H46  1  0.13676864  0.77059202  0.66938470  1
  H+  H47  1  0.14181185  0.28388020  0.83379645  1
  H+  H48  1  0.37867969  0.01782610  0.83089413  1
  H+  H49  1  0.63583046  0.96553671  0.65781708  1
  H+  H50  1  0.28509245  0.14277907  0.49553868  1
  H+  H51  1  0.27010847  0.39684340  0.82304773  1
  H+  H52  1  0.86531678  0.89530342  0.19218436  1
  H+  H53  1  0.14295083  0.86371389  0.66781470  1
  H+  H54  1  0.62783045  0.86537884  0.82667575  1
  H+  H55  1  0.36118012  0.46393121  0.99904319  1
  H+  H56  1  0.36096842  0.37497049  -0.00857638  1
  H+  H57  1  0.64602585  0.69526698  0.02859213  1
  H+  H58  1  0.87907381  0.60183657  -0.00333416  1
  H+  H59  1  0.73474346  0.33936962  0.85578070  1
  H+  H60  1  0.37170898  0.48542496  0.50248465  1
  H+  H61  1  0.16975562  0.40714392  0.16870733  1
  H+  H62  1  0.62800625  0.45039097  0.03622084  1
  H+  H63  1  0.78549308  0.90475261  0.17639512  1
  H+  H64  1  0.60593101  0.64618222  0.81837703  1
  H+  H65  1  0.13517160  0.86358964  0.84085768  1
  H+  H66  1  0.58886859  0.71623451  -0.00835444  1
  H+  H67  1  0.76276625  0.89695138  0.66338331  1
  H+  H68  1  0.86547504  0.14185279  0.67835529  1
  H+  H69  1  0.38933013  0.45662614  0.13947012  1
  H+  H70  1  0.98740204  0.14541554  0.99526456  1
  H+  H71  1  0.86082798  0.15825413  0.83334988  1
  H+  H72  1  0.52715333  0.10530175  0.13520004  1
  H+  H73  1  0.35318645  0.48148256  0.33771943  1
  H+  H74  1  -0.02955823  0.60573105  -0.00424419  1
  H+  H75  1  0.38848727  0.11689427  0.66501804  1
  H+  H76  1  0.62860781  0.23234168  0.48957234  1
  H+  H77  1  0.50629915  0.12391874  0.20192912  1
  H+  H78  1  0.36315606  0.86831265  0.67681782  1
  H+  H79  1  0.85477520  0.15293516  0.00754884  1
  H+  H80  1  0.56196625  0.89807972  0.06614014  1
  H+  H81  1  0.08592038  0.96317763  0.00695929  1
  H+  H82  1  0.85495286  0.63130131  0.15914872  1
  H+  H83  1  0.38425603  0.86419631  0.33162813  1
  H+  H84  1  0.60839435  0.63134149  0.33324342  1
  H+  H85  1  0.47979233  0.35854352  0.98428591  1
  H+  H86  1  0.52537979  0.14379729  0.34000073  1
  H+  H87  1  0.77893205  0.63910400  0.49224974  1
  H+  H88  1  0.26247007  0.39409023  0.33316883  1
  H+  H89  1  0.64549641  0.83544049  0.92190084  1
  H+  H90  1  0.50065869  0.94908812  0.95725234  1
  H+  H91  1  1.04292512  0.15929278  0.17815882  1
  H+  H92  1  0.61465980  -0.01861433  0.49708393  1
  H+  H93  1  0.45390840  0.37542484  0.33459630  1
  H+  H94  1  0.88921451  0.37499041  0.84152940  1
  H+  H95  1  0.51268352  0.66753087  0.16538193  1
  H+  H96  1  0.88972068  0.61193898  0.50153795  1
  H+  H97  1  0.60292595  0.40562303  0.89147981  1
  H+  H98  1  0.91495696  0.82749998  0.37630586  1
  H+  H99  1  0.86508856  0.47992442  0.67733656  1
  H+  H100  1  0.64471242  0.52791787  0.50791207  1
  H+  H101  1  0.84880231  0.23715302  0.00571820  1
  H+  H102  1  0.47983935  0.39988446  0.81196281  1
  H+  H103  1  0.11347129  0.71693283  0.49334015  1
  H+  H104  1  0.71648918  0.10857181  0.84516181  1
  H+  H105  1  0.33330230  0.52658550  0.19191213  1
  H+  H106  1  0.90000336  0.81196784  0.93254767  1
  H+  H107  1  0.48597686  0.12734615  0.50780338  1
  H+  H108  1  0.28671725  0.89661111  0.50138305  1
  H+  H109  1  0.80538849  0.79959748  0.01035473  1
  H+  H110  1  0.71570609  0.11933855  1.00083096  1
  H+  H111  1  0.65045103  0.80960831  0.13643152  1
  H+  H112  1  0.12696856  0.15660607  0.18770954  1
  H+  H113  1  0.53234746  0.87237815  0.19505854  1
  H+  H114  1  0.47460456  0.86568553  0.32954406  1
  H+  H115  1  0.60908016  0.89002759  0.34063293  1
  H+  H116  1  0.15181380  0.62141172  0.50658468  1
  H+  H117  1  0.37412059  0.89553924  0.50114760  1
  H+  H118  1  0.17408862  0.59023799  0.60584091  1
  H+  H119  1  0.36748694  0.73598359  0.34154081  1
  H+  H120  1  0.36169907  0.40005916  0.82126697  1
  H+  H121  1  0.86454764  0.39053039  0.67874491  1
  H+  H122  1  0.47287822  0.35755651  0.65797014  1
  H+  H123  1  0.21057762  0.10255098  0.99810322  1
  H+  H124  1  -0.02215248  0.12333929  0.34120869  1
  H+  H125  1  0.14502622  0.86654404  0.31790466  1
  H+  H126  1  0.09791078  0.66813033  0.39315833  1
  H+  H127  1  0.85255854  0.97405015  0.33446698  1
  H+  H128  1  0.14307410  0.28533791  0.49658398  1
  H+  H129  1  0.12476349  0.01907080  0.84154248  1
  H+  H130  1  0.09967630  0.47057173  0.00414161  1
  H+  H131  1  0.62856163  0.24933578  0.17714363  1
  H+  H132  1  0.76341977  0.88898923  0.32290204  1
  H+  H133  1  0.72994808  0.09498452  0.66084226  1
  H+  H134  1  0.07789938  0.05056538  0.54069871  1
  H+  H135  1  0.71966685  0.10947341  0.17952044  1
  H+  H136  1  0.11458936  0.13892341  0.67288960  1
  H+  H137  1  0.95688242  0.84450666  0.99325556  1
  H+  H138  1  0.72511433  0.81278940  0.99732250  1
  H+  H139  1  0.86249003  0.63091809  0.82437331  1
  H+  H140  1  -0.02957990  0.36238057  -0.00600751  1
  H+  H141  1  0.85601328  0.62015835  0.33686280  1
  H+  H142  1  -0.00599253  0.37766354  0.34665635  1
  H+  H143  1  0.85693321  0.38161092  1.00630176  1
  H+  H144  1  0.88912313  0.61846903  0.65876225  1
  H+  H145  1  0.02278697  0.38307385  0.15847046  1
  H+  H146  1  0.01864980  0.88122095  0.82773289  1
  H+  H147  1  0.94344623  0.35046190  0.50852310  1
  H+  H148  1  0.09321774  0.87922743  0.00644750  1
  H+  H149  1  0.73150723  0.62726573  0.82365591  1
  H+  H150  1  0.65363671  0.55977026  0.26816597  1
  H+  H151  1  0.87408520  0.51750614  0.50963270  1
  H+  H152  1  0.53652556  0.38761923  0.49703520  1
  H+  H153  1  0.72515192  0.86819590  0.51185521  1
  H+  H154  1  0.38217194  0.78622431  0.17505869  1
  H+  H155  1  0.85917267  0.26122559  0.50908028  1
  H+  H156  1  0.36914804  0.21354152  0.17005997  1
  H+  H157  1  0.85110270  0.46730638  1.00632275  1
  H+  H158  1  0.46683866  0.60179663  0.99547757  1
  H+  H159  1  0.60650647  -0.02673528  0.81754484  1
  H+  H160  1  0.28090530  0.64283261  0.34302699  1
  H+  H161  1  0.26155773  0.63179991  0.84143360  1
  H+  H162  1  0.87408404  0.86006779  0.32919802  1
  H+  H163  1  0.11295587  0.23815549  0.99739208  1
  H+  H164  1  0.98180643  0.86488965  0.49411478  1
  H+  H165  1  0.87010400  0.73457774  0.66742604  1
  H+  H166  1  0.59856633  0.73095008  0.82252057  1
  H+  H167  1  0.34974895  0.64590655  0.16758201  1
  H+  H168  1  0.64322474  0.85302013  0.60750401  1
  H+  H169  1  0.87761431  0.51499941  0.16985809  1
  H+  H170  1  0.10293055  0.14449334  0.00362527  1
  H+  H171  1  0.22529679  0.11514789  0.32880063  1
  H+  H172  1  0.59608487  0.74212445  0.67482754  1
  H+  H173  1  0.05168452  0.46377677  0.49879178  1
  H+  H174  1  0.12246907  0.15378201  0.47913624  1
  H+  H175  1  0.20783571  0.60031455  0.99359202  1
  H+  H176  1  0.85623281  0.47652849  0.83347182  1
  H+  H177  1  0.03338109  0.63062954  0.33838475  1
  H+  H178  1  0.88436525  0.36644691  0.16913675  1
  H+  H179  1  0.63622249  0.55268370  0.67067676  1
  H+  H180  1  0.39775348  0.03785901  0.50738732  1
  H+  H181  1  0.61002915  0.36096736  0.01056608  1
  H+  H182  1  0.14277375  0.52024466  0.32893493  1
  H+  H183  1  -0.01684713  0.12156260  0.48968156  1
  H+  H184  1  0.68308619  0.36848422  0.32463581  1
  H+  H185  1  0.48216993  0.85123384  0.65878414  1
  H+  H186  1  0.76668830  0.37645422  0.15854941  1
  H+  H187  1  0.91089376  0.58031325  0.90350097  1
  H+  H188  1  0.88387439  0.76783209  0.16976843  1
  H+  H189  1  0.35951167  1.00143578  0.00547070  1
  H+  H190  1  0.64324576  0.24663180  0.85315505  1
  H+  H191  1  0.24989283  0.39099578  0.16587432  1
  H+  H192  1  0.36365988  0.37189734  0.33147865  1
  H+  H193  1  0.63065635  0.86590154  -0.01070828  1
  H+  H194  1  0.85431937  0.70841496  0.33281932  1
  H+  H195  1  1.01976216  0.63514244  0.15613579  1
  H+  H196  1  0.63744129  0.63929763  0.66033711  1
  H+  H197  1  0.13656848  0.52478934  0.83886758  1
  H+  H198  1  0.91374805  0.09031965  0.39550839  1
  H+  H199  1  0.82327922  0.17360886  0.77224911  1
  H+  H200  1  0.38729368  0.36559174  0.66248215  1
  H+  H201  1  0.46932551  0.85704932  0.82413207  1
  H+  H202  1  0.45206800  0.79572696  0.04459418  1
  H+  H203  1  0.89790506  0.03520062  0.17580396  1
  H+  H204  1  0.67086227  0.30225838  0.93814295  1
  H+  H205  1  0.88386811  0.28426185  0.84035641  1
  H+  H206  1  0.87863331  0.84532504  0.83246260  1
  H+  H207  1  0.56386908  0.36060089  0.34002688  1
  H+  H208  1  0.61646797  0.23208369  0.00712622  1
  H+  H209  1  0.39351112  0.61614236  0.50338144  1
  H+  H210  1  0.82042603  0.65634123  0.10092271  1
  H+  H211  1  0.81801351  0.36822818  0.50740328  1
  H+  H212  1  0.17223407  1.08413610  0.26581408  1
  H+  H213  1  0.09539083  0.92220512  0.42172687  1
  H+  H214  1  0.72479519  0.83826271  0.08889721  1
  H+  H215  1  0.97205247  0.36367860  0.65950805  1
  H+  H216  1  0.02875679  0.88806305  0.67013158  1
  H+  H217  1  0.61922092  0.50817322  0.95970020  1
  H+  H218  1  0.73382255  0.36471897  0.66572360  1
  H+  H219  1  0.12592332  1.01709717  0.50110375  1
  H+  H220  1  0.85418076  0.22795733  0.16301241  1
  H+  H221  1  0.13704155  0.27574350  0.65899754  1
  H+  H222  1  0.46705456  0.10684263  0.83645345  1
  H+  H223  1  0.11788377  0.97588056  0.67508564  1
  H+  H224  1  0.86049154  0.14020577  0.48480359  1
  H+  H225  1  0.89435569  0.02902332  0.49202970  1
  H+  H226  1  0.11132254  0.39328662  0.82321520  1
  H+  H227  1  0.71277926  0.85593372  0.82714111  1
  H+  H228  1  0.37502147  0.14508097  0.49514047  1
  H+  H229  1  0.85435828  0.94626086  0.80828565  1
  H+  H230  1  0.26842115  0.86835023  0.67440982  1
  H+  H231  1  0.11485156  0.23013858  0.32029183  1
  H+  H232  1  0.85324011  0.70846530  0.00316175  1
  H+  H233  1  0.34559081  0.61413109  0.00809985  1
  H+  H234  1  0.22861533  0.11467697  0.66866348  1
  H+  H235  1  0.45407080  0.14727869  0.00937552  1
  H+  H236  1  0.21685663  0.61387276  0.17182676  1
  H+  H237  1  0.14133226  0.52575817  0.66359207  1
  H+  H238  1  0.37962334  0.34080004  0.17357758  1
  H+  H239  1  0.46939642  0.61774417  0.83817809  1
  H+  H240  1  0.12729460  0.89292440  0.16180951  1
  H+  H241  1  0.84184462  0.66594089  0.76177010  1
  H+  H242  1  0.36020568  0.63333504  0.83998114  1
  H+  H243  1  0.03209531  0.15568459  0.82786139  1
  H+  H244  1  0.89280182  0.77504974  0.49731594  1
  H+  H245  1  0.40000976  0.78422943  0.50894093  1
  H+  H246  1  0.35986266  0.72926417  0.83757472  1
  H+  H247  1  0.11946464  0.89087755  0.48438007  1
  H+  H248  1  0.87924595  0.98782987  0.06695630  1
  H+  H249  1  0.35314800  0.87402812  0.82235681  1
  H+  H250  1  0.03721914  0.89086397  0.16094242  1
  H+  H251  1  0.23837813  0.10717497  0.18072268  1
  H+  H252  1  0.62065985  0.64504043  0.48984859  1
  H+  H253  1  0.41207289  0.84146899  0.23600161  1
  H+  H254  1  0.61269252  0.22206489  0.68230035  1
  H+  H255  1  0.38463794  0.52357469  0.65978885  1
  H+  H256  1  0.47292253  0.61768200  0.66039843  1
  H+  H257  1  0.35251753  0.23489197  0.34304629  1
  H+  H258  1  0.02331642  0.63749497  0.67621101  1
  H+  H259  1  0.77819870  0.65054843  0.67052504  1
  H+  H260  1  0.35625558  0.94426411  0.06045604  1
  H+  H261  1  0.12977496  0.36569111  0.31086786  1
  H+  H262  1  0.72356405  0.11222668  0.50523075  1
  H+  H263  1  0.88750876  0.76268375  0.83529654  1
  H+  H264  1  0.14413408  0.77716741  0.31892221  1
  H+  H265  1  0.10926259  0.72591477  0.00590162  1
  H+  H266  1  0.11087854  0.63696127  0.83232688  1
  H+  H267  1  0.38304595  0.21688536  0.01674178  1
  H+  H268  1  0.06456597  0.78168570  0.54394298  1
  H+  H269  1  0.92050639  0.09265712  0.59666395  1
  H+  H270  1  0.72122148  0.34136254  0.00449533  1
  H+  H271  1  0.13315380  0.77331955  0.84301300  1
  H+  H272  1  0.79800950  0.36436621  0.32395230  1
  H+  H273  1  0.85827913  0.22651008  0.67701537  1
  H+  H274  1  0.85628810  -0.03987288  1.03967327  1
  H+  H275  1  0.62578993  0.78011684  0.30444965  1
  H+  H276  1  0.37004937  0.38700178  0.50538670  1
  H+  H277  1  0.14142903  0.60814997  0.32632194  1
  H+  H278  1  0.91470440  0.56055562  0.38806842  1
  H+  H279  1  0.59846333  0.43746887  0.61864300  1
  H+  H280  1  0.64071389  1.02673914  0.33398499  1
  H+  H281  1  0.11208108  0.39003400  0.67133624  1
  H+  H282  1  0.58038643  0.16005685  0.43702556  1
  H+  H283  1  0.61930986  0.59391222  0.97715030  1
  H+  H284  1  0.27525637  0.39068529  0.50071716  1
  H+  H285  1  0.14281860  0.37359441  0.50507940  1
  H+  H286  1  0.59716306  0.12198651  0.82957682  1
  H+  H287  1  0.40692487  0.15787464  0.30813305  1
  H+  H288  1  0.39040502  0.27910098  0.50690145  1
  H+  H289  1  0.58217347  0.91829119  0.40292338  1
  H+  H290  1  0.41185491  0.57910494  0.93444273  1
  H+  H291  1  0.85698578  0.97858411  0.66305931  1
  H+  H292  1  0.92019126  0.58619837  0.60161701  1
  H+  H293  1  0.18380132  0.83751110  0.22182362  1
  H+  H294  1  0.08053719  0.91410523  0.76946506  1
  H+  H295  1  0.07585273  0.41119369  0.06364381  1
  H+  H296  1  0.67099176  0.37944740  0.50562379  1
  H+  H297  1  0.93087565  0.12634050  0.90808290  1
  H+  H298  1  0.59872117  0.41425960  0.43944566  1
  H+  H299  1  0.17215965  0.08305870  0.60747778  1
  H+  H300  1  0.82797865  0.41756336  0.77373241  1
  H+  H301  1  0.68558296  0.33224459  0.60244309  1
  H+  H302  1  0.89435566  0.05959790  0.99252629  1
  H+  H303  1  0.15174524  0.82018796  0.57690769  1
  H+  H304  1  0.58945777  0.67456619  0.38942642  1
  H+  H305  1  0.32484989  0.89585641  0.74301365  1
  H+  H306  1  0.91429263  0.33983010  0.93262788  1
  H+  H307  1  0.43008806  0.33990369  0.92118396  1
  H+  H308  1  0.42236404  0.09569066  0.60494632  1
  H+  H309  1  0.58751513  0.91736423  0.75554766  1
  H+  H310  1  0.53141929  0.64233834  0.49029679  1
  H+  H311  1  0.61406965  0.89154295  0.49833724  1
  H+  H312  1  0.82366413  0.91295409  0.42679013  1
  H+  H313  1  1.03504837  0.89644720  0.33175642  1
  H+  H314  1  0.36608686  0.16103256  0.07743168  1
  H+  H315  1  0.40077014  0.32301296  0.24145810  1
  H+  H316  1  0.57113123  0.67747019  0.73119835  1
  H+  H317  1  0.31945217  0.66654840  0.10517541  1
  H+  H318  1  0.71276449  0.59441524  0.32734101  1
  H+  H319  1  0.32969386  0.17027745  0.74249816  1
  H+  H320  1  0.33741159  0.17142396  0.39788541  1
  H+  H321  1  0.48650743  0.87475915  0.51242319  1
  H+  H322  1  0.42214940  0.85409580  0.88650305  1
  H+  H323  1  0.82643606  0.41230641  0.09935967  1
  H+  H324  1  0.08188885  0.42133068  0.72998465  1
  H+  H325  1  0.39092401  0.62341274  0.33229585  1
  H+  H326  1  0.41592707  0.33364927  0.56890100  1
  H+  H327  1  0.69141689  0.32888343  0.26113119  1
  H+  H328  1  0.33870621  0.39423919  0.08552541  1
  H+  H329  1  0.66683312  0.59288711  0.87981706  1
  H+  H330  1  0.55869125  0.67301710  0.10430102  1
  H+  H331  1  0.90005492  0.49704359  0.33628421  1
  H+  H332  1  0.16687596  0.83675835  0.93823090  1
  H+  H333  1  0.62185590  0.95625118  0.19806559  1
  H+  H334  1  0.56201382  0.38011281  0.11263215  1
  H+  H335  1  0.07914652  0.66555248  0.77381788  1
  H+  H336  1  0.83239736  0.66073483  0.43042703  1
  H+  H337  1  0.42185051  0.83163591  0.60060429  1
  H+  H338  1  0.65316743  0.91036605  0.08034404  1
  H+  H339  1  0.91106038  0.34198955  0.23080966  1
  H+  H340  1  0.18054469  0.35751555  0.25515822  1
  H+  H341  1  0.52112068  0.13764012  0.68132762  1
  H+  H342  1  0.15928211  0.57559492  0.23091900  1
  H+  H343  1  0.37783986  0.13270721  0.18369837  1
  H+  H344  1  0.03208646  0.32420637  0.37440437  1
  H+  H345  1  0.62309722  0.46421977  0.34012758  1
  H+  H346  1  0.92601968  0.82139380  0.22886548  1
  H+  H347  1  0.65453193  0.06898190  0.90267361  1
  H+  H348  1  0.81899325  0.17281126  0.10277098  1
  H+  H349  1  0.91141684  0.57546382  0.22782595  1
  H+  H350  1  0.33237756  0.42427360  0.72955210  1
  H+  H351  1  0.15907674  0.57950299  0.90187578  1
  H+  H352  1  0.63591489  0.11401320  0.51040544  1
  H+  H353  1  0.22451575  0.36624295  0.98615519  1
  H+  H354  1  0.06069984  0.41580078  0.44040828  1
  H+  H355  1  0.67233675  0.06657460  0.59917238  1
  H+  H356  1  0.14744668  0.77873289  0.16396955  1
  H+  H357  1  0.16673354  0.33575338  0.59997257  1
  H+  H358  1  0.81814555  0.89511952  0.74845565  1
  H+  H359  1  0.40049726  0.58950810  0.23966007  1
  H+  H360  1  0.66854850  0.08339233  0.27302388  1
  H+  H361  1  0.92291731  0.83843128  0.59201767  1
  H+  H362  1  0.15639811  0.08036140  0.93692328  1
  H+  H363  1  0.57516653  0.44614546  0.73712609  1
  H+  H364  1  0.34393686  0.96254933  0.15476571  1
  H+  H365  1  0.40338728  0.92013048  0.97255393  1
  H+  H366  1  0.90271962  0.32864686  0.60497224  1
  H+  H367  1  0.12361800  0.98654596  0.33227435  1
  H+  H368  1  0.36621059  0.62916813  0.66422760  1
  H+  H369  1  0.27189050  0.63347568  0.66864780  1
  H+  H370  1  0.82493612  0.17383923  0.42987979  1
  H+  H371  1  0.62018115  0.37802343  0.65767047  1
  H+  H372  1  0.16710540  0.34375685  0.89308881  1
  H+  H373  1  0.11501204  0.14134473  0.32855873  1
  H+  H374  1  0.86698127  0.28461249  0.32866847  1
  H+  H375  1  0.34911514  0.67978618  0.43455695  1
  H+  H376  1  0.11270996  0.63746746  0.67883128  1
  H+  H377  1  0.41980710  0.58582971  0.56468225  1
  H+  H378  1  0.02238284  0.39441547  0.82513522  1
  H+  H379  1  0.57654281  0.16337621  0.77138072  1
  H+  H380  1  0.08411952  0.17112123  0.73026833  1
  H+  H381  1  0.09720843  0.18550588  0.41827351  1
  H+  H382  1  0.02894825  0.62681271  0.48865864  1
  H+  H383  1  0.76657864  0.14579506  0.33902446  1
  O2-  O384  1  0.10295127  0.19474218  0.19257948  1
  O2-  O385  1  0.09506287  0.18625297  0.46451632  1
  O2-  O386  1  0.08970063  0.17722492  0.80926452  1
  O2-  O387  1  0.08145379  0.41527156  0.14043786  1
  O2-  O388  1  0.06859592  0.42240865  0.48580348  1
  O2-  O389  1  0.08264109  0.42558292  0.80866778  1
  O2-  O390  1  0.07944803  0.66341944  0.14059551  1
  O2-  O391  1  0.09039273  0.65840022  0.47577989  1
  O2-  O392  1  0.07942971  0.66672382  0.81913680  1
  O2-  O393  1  0.09920637  0.92785123  0.15439638  1
  O2-  O394  1  0.09109454  0.92134415  0.46785284  1
  O2-  O395  1  0.08037093  0.91473216  0.81474794  1
  O2-  O396  1  0.34885820  0.15433549  0.15465834  1
  O2-  O397  1  0.34370195  0.17613904  0.48026641  1
  O2-  O398  1  0.32708566  0.15920760  0.82693063  1
  O2-  O399  1  0.34517580  0.39748523  0.13111242  1
  O2-  O400  1  0.33959519  0.42050642  0.49182785  1
  O2-  O401  1  0.33102585  0.43046882  0.80738887  1
  O2-  O402  1  0.31993749  0.67552026  0.14951913  1
  O2-  O403  1  0.35441881  0.68004949  0.48047529  1
  O2-  O404  1  0.32649942  0.66429171  0.82803859  1
  O2-  O405  1  0.38922993  0.96139244  0.13101676  1
  O2-  O406  1  0.34514068  0.92723812  0.48580238  1
  O2-  O407  1  0.32190439  0.90226786  0.80449035  1
  O2-  O408  1  0.55737785  0.13556975  0.17206691  1
  O2-  O409  1  0.58982793  0.17057523  0.48291006  1
  O2-  O410  1  0.57303124  0.15889687  0.81811579  1
  O2-  O411  1  0.56945084  0.38602624  0.15700559  1
  O2-  O412  1  0.59774324  0.41904171  0.48476070  1
  O2-  O413  1  0.55281854  0.47049475  0.76712413  1
  O2-  O414  1  0.56882983  0.69653433  0.14553936  1
  O2-  O415  1  0.59146513  0.67657264  0.47583603  1
  O2-  O416  1  0.56774716  0.66985182  0.80731829  1
  O2-  O417  1  0.59448387  0.89291090  0.19909228  1
  O2-  O418  1  0.58212345  0.91979009  0.48297423  1
  O2-  O419  1  0.57596578  0.91386678  0.79986542  1
  O2-  O420  1  0.82022962  0.16812722  0.14772818  1
  O2-  O421  1  0.82555230  0.16762816  0.47538527  1
  O2-  O422  1  0.82146610  0.17764053  0.81759348  1
  O2-  O423  1  0.82758735  0.41381107  0.14496295  1
  O2-  O424  1  0.79068147  0.40361936  0.49782665  1
  O2-  O425  1  0.82857171  0.41567658  0.81906095  1
  O2-  O426  1  0.82269218  0.66014390  0.14615436  1
  O2-  O427  1  0.83880717  0.66723378  0.47549309  1
  O2-  O428  1  0.83622673  0.66421959  0.80697845  1
  O2-  O429  1  0.83593230  0.92709601  0.20371048  1
  O2-  O430  1  0.83310749  0.92035929  0.47170219  1
  O2-  O431  1  0.81635301  0.88805183  0.79416467  1
  O2-  O432  1  0.17917005  0.08317498  0.19674492  1
  O2-  O433  1  0.13506880  0.06949943  0.52421702  1
  O2-  O434  1  0.15495236  0.07982291  0.85659075  1
  O2-  O435  1  0.22162952  0.41532673  0.19098793  1
  O2-  O436  1  0.17385922  0.34354714  0.51671615  1
  O2-  O437  1  0.16877139  0.34504161  0.84724598  1
  O2-  O438  1  0.15575800  0.57776965  0.18590843  1
  O2-  O439  1  0.18874354  0.60078384  0.52662998  1
  O2-  O440  1  0.16813543  0.58499457  0.85612475  1
  O2-  O441  1  0.18318697  0.83914342  0.17682466  1
  O2-  O442  1  0.12567529  0.80713805  0.53480499  1
  O2-  O443  1  0.16780157  0.83510103  0.85505130  1
  O2-  O444  1  0.42865377  0.10793936  0.23635992  1
  O2-  O445  1  0.42430630  0.09856066  0.52104939  1
  O2-  O446  1  0.40463572  0.07609444  0.84786055  1
  O2-  O447  1  0.40891449  0.31577373  0.19742148  1
  O2-  O448  1  0.41877558  0.33941698  0.52331719  1
  O2-  O449  1  0.42825491  0.35713026  0.83696908  1
  O2-  O450  1  0.38629538  0.58300739  0.19481559  1
  O2-  O451  1  0.41946555  0.58149609  0.51934175  1
  O2-  O452  1  0.40938105  0.58744063  0.85581500  1
  O2-  O453  1  0.41928682  0.84528718  0.19071283  1
  O2-  O454  1  0.42499164  0.84231807  0.52802376  1
  O2-  O455  1  0.41119842  0.82847088  0.84375288  1
  O2-  O456  1  0.66296677  0.07321706  0.19989341  1
  O2-  O457  1  0.66494604  0.08126457  0.52348124  1
  O2-  O458  1  0.65566982  0.06899188  0.85772547  1
  O2-  O459  1  0.66402099  0.31207641  0.18577741  1
  O2-  O460  1  0.70127208  0.34857415  0.51991976  1
  O2-  O461  1  0.68764065  0.29318208  0.88003654  1
  O2-  O462  1  0.65774721  0.55791795  0.19683879  1
  O2-  O463  1  0.67432906  0.58985528  0.51970745  1
  O2-  O464  1  0.66967115  0.60297014  0.83535007  1
  O2-  O465  1  0.69926223  0.86145504  0.11792290  1
  O2-  O466  1  0.66581578  0.83836453  0.52820465  1
  O2-  O467  1  0.65432442  0.83252261  0.84450940  1
  O2-  O468  1  0.92947865  0.09164297  0.15475143  1
  O2-  O469  1  0.92208650  0.09133279  0.50290666  1
  O2-  O470  1  0.93102246  0.12522535  0.86133479  1
  O2-  O471  1  0.91513570  0.33762968  0.18635487  1
  O2-  O472  1  0.88538222  0.32146198  0.52590277  1
  O2-  O473  1  0.92057229  0.34450724  0.85512041  1
  O2-  O474  1  0.90980223  0.57693839  0.18351954  1
  O2-  O475  1  0.91768137  0.57881022  0.51571146  1
  O2-  O476  1  0.91123132  0.58144940  0.85777989  1
  O2-  O477  1  0.91959492  0.82767583  0.18552223  1
  O2-  O478  1  0.92242702  0.83641121  0.51087012  1
  O2-  O479  1  0.91360835  0.82312993  0.85122885  1
  O2-  O480  1  0.16536606  0.08332828  0.31268351  1
  O2-  O481  1  0.16803328  0.08224744  0.65220288  1
  O2-  O482  1  0.15255751  0.08049357  0.98228709  1
  O2-  O483  1  0.16375651  0.33938766  0.29877501  1
  O2-  O484  1  0.16735143  0.33706358  0.64505654  1
  O2-  O485  1  0.16556777  0.34134427  0.96895128  1
  O2-  O486  1  0.17274260  0.57811837  0.31191797  1
  O2-  O487  1  0.17481986  0.58850865  0.65119677  1
  O2-  O488  1  0.14922416  0.57495459  0.97574833  1
  O2-  O489  1  0.17656272  0.83718641  0.30450950  1
  O2-  O490  1  0.17119300  0.83081486  0.65266837  1
  O2-  O491  1  0.16334031  0.83377988  0.98330622  1
  O2-  O492  1  0.46061383  0.17001422  0.28677589  1
  O2-  O493  1  0.42074944  0.08985957  0.64970952  1
  O2-  O494  1  0.49057592  0.12636055  0.98769934  1
  O2-  O495  1  0.39602779  0.33964449  0.31892542  1
  O2-  O496  1  0.41098362  0.32940044  0.64682146  1
  O2-  O497  1  0.42197390  0.33110914  0.96575291  1
  O2-  O498  1  0.41497626  0.58904333  0.31386352  1
  O2-  O499  1  0.41240411  0.58456464  0.64380421  1
  O2-  O500  1  0.40760894  0.57259939  0.97980423  1
  O2-  O501  1  0.41403095  0.83267897  0.31478270  1
  O2-  O502  1  0.42035077  0.82453696  0.64698062  1
  O2-  O503  1  0.44177503  0.90712518  0.94691709  1
  O2-  O504  1  0.67085394  0.08747460  0.31911597  1
  O2-  O505  1  0.67437153  0.05140416  0.64267895  1
  O2-  O506  1  0.65280639  0.07910041  0.99145974  1
  O2-  O507  1  0.71052183  0.33948915  0.30458617  1
  O2-  O508  1  0.67526124  0.33253453  0.64664954  1
  O2-  O509  1  0.66066867  0.30685251  0.98750698  1
  O2-  O510  1  0.65179608  0.56113714  0.31481939  1
  O2-  O511  1  0.66767299  0.60725161  0.64887341  1
  O2-  O512  1  0.65460382  0.57076211  0.95962899  1
  O2-  O513  1  0.65460831  0.84259758  0.29728217  1
  O2-  O514  1  0.64448426  0.85332738  0.65326599  1
  O2-  O515  1  0.63894775  0.82304496  0.96633799  1
  O2-  O516  1  0.91494874  0.09456577  0.35116776  1
  O2-  O517  1  0.91803080  0.08663162  0.64135519  1
  O2-  O518  1  0.92345558  0.11933179  0.97901767  1
  O2-  O519  1  0.90124736  0.34679498  0.31368906  1
  O2-  O520  1  0.90947811  0.33233585  0.65013359  1
  O2-  O521  1  0.91008238  0.33676895  0.97819044  1
  O2-  O522  1  0.91924300  0.55962780  0.34381437  1
  O2-  O523  1  0.92081519  0.58812792  0.64667854  1
  O2-  O524  1  0.90982488  0.57223724  0.98068694  1
  O2-  O525  1  0.90783479  0.82894634  0.33239342  1
  O2-  O526  1  0.92191327  0.83905611  0.63740800  1
  O2-  O527  1  0.89593191  0.80563017  0.97747788  1
  O2-  O528  1  0.07586604  0.17921148  0.01368459  1
  O2-  O529  1  0.08823517  0.17531594  0.34379869  1
  O2-  O530  1  0.08352762  0.16977522  0.68469939  1
  O2-  O531  1  0.07395226  0.40974484  0.01785604  1
  O2-  O532  1  0.04773700  0.38381648  0.36677808  1
  O2-  O533  1  0.08314980  0.42252204  0.68430424  1
  O2-  O534  1  0.07789127  0.66405781  0.01834043  1
  O2-  O535  1  0.09558171  0.66580723  0.34802579  1
  O2-  O536  1  0.08317706  0.66835039  0.69328701  1
  O2-  O537  1  0.05328427  0.90083323  0.01405629  1
  O2-  O538  1  0.09437827  0.92390545  0.34710050  1
  O2-  O539  1  0.08747653  0.91412611  0.68790919  1
  O2-  O540  1  0.37280628  0.16128865  0.03193227  1
  O2-  O541  1  0.33137907  0.17341112  0.35320006  1
  O2-  O542  1  0.32679284  0.16815551  0.69764756  1
  O2-  O543  1  0.32979797  0.40206847  0.01057677  1
  O2-  O544  1  0.32056287  0.42098475  0.35211969  1
  O2-  O545  1  0.33532255  0.42248517  0.68397441  1
  O2-  O546  1  0.31142243  0.64099193  0.02209765  1
  O2-  O547  1  0.34008172  0.67565775  0.35950476  1
  O2-  O548  1  0.33668460  0.66376766  0.67903682  1
  O2-  O549  1  0.33943292  0.94157098  0.01597570  1
  O2-  O550  1  0.33806465  0.91288500  0.35544349  1
  O2-  O551  1  0.32817000  0.89351792  0.69328561  1
  O2-  O552  1  0.56991228  0.16051748  0.02477789  1
  O2-  O553  1  0.55619894  0.12847592  0.37006625  1
  O2-  O554  1  0.57917983  0.16488815  0.70078436  1
  O2-  O555  1  0.58137883  0.39355999  0.02515053  1
  O2-  O556  1  0.61151127  0.40870617  0.36081407  1
  O2-  O557  1  0.58703287  0.41070878  0.65867183  1
  O2-  O558  1  0.58549450  0.66533650  0.01302284  1
  O2-  O559  1  0.58404351  0.66847513  0.34462104  1
  O2-  O560  1  0.57271970  0.68053216  0.68533261  1
  O2-  O561  1  0.62070194  0.92712107  0.05063733  1
  O2-  O562  1  0.58068455  0.92110994  0.35773377  1
  O2-  O563  1  0.59721691  0.89790516  0.67286022  1
  O2-  O564  1  0.81777143  0.17651749  0.02123087  1
  O2-  O565  1  0.82867805  0.18535967  0.35328123  1
  O2-  O566  1  0.83078872  0.16680573  0.69361435  1
  O2-  O567  1  0.82190531  0.40705478  0.02239714  1
  O2-  O568  1  0.85985809  0.39022508  0.34370092  1
  O2-  O569  1  0.83409723  0.42063973  0.69407828  1
  O2-  O570  1  0.82208638  0.64799413  0.02053076  1
  O2-  O571  1  0.82495154  0.64968275  0.35012794  1
  O2-  O572  1  0.83916138  0.67427663  0.68289134  1
  O2-  O573  1  0.74885103  0.78825458  0.02681180  1
  O2-  O574  1  0.81947749  0.91226372  0.34481594  1
  O2-  O575  1  0.82321414  0.91641324  0.67446598  1
