# generated using pymatgen
data_H2O
_symmetry_space_group_name_H-M   'P 1'
_cell_length_a   17.98860800
_cell_length_b   17.99234613
_cell_length_c   22.00594904
_cell_angle_alpha   89.94200777
_cell_angle_beta   90.03103583
_cell_angle_gamma   120.03671389
_symmetry_Int_Tables_number   1
_chemical_formula_structural   H2O
_chemical_formula_sum   'H384 O192'
_cell_volume   6165.88015932
_cell_formula_units_Z   192
loop_
 _symmetry_equiv_pos_site_id
 _symmetry_equiv_pos_as_xyz
  1  'x, y, z'
loop_
 _atom_type_symbol
 _atom_type_oxidation_number
  H+  1.0
  O2-  -2.0
loop_
 _atom_site_type_symbol
 _atom_site_label
 _atom_site_symmetry_multiplicity
 _atom_site_fract_x
 _atom_site_fract_y
 _atom_site_fract_z
 _atom_site_occupancy
  H+  H0  1  0.35164980  0.72207098  0.15905351  1
  H+  H1  1  0.14374077  0.51995281  0.66102398  1
  H+  H2  1  0.35154474  0.39672535  0.14462320  1
  H+  H3  1  0.13310424  0.52275557  0.50570212  1
  H+  H4  1  0.16599756  0.58077057  0.26929847  1
  H+  H5  1  0.88901459  0.58623330  0.65381213  1
  H+  H6  1  0.68242174  0.54944034  0.17690344  1
  H+  H7  1  0.10518094  0.39854553  0.72337804  1
  H+  H8  1  0.62864766  0.85460598  0.98854089  1
  H+  H9  1  0.28332868  0.89218367  1.00364056  1
  H+  H10  1  0.85285719  0.62010557  0.33601955  1
  H+  H11  1  0.96985956  0.60243108  0.49817675  1
  H+  H12  1  0.34620196  0.38413120  0.81084484  1
  H+  H13  1  0.68045532  0.08845335  0.56831921  1
  H+  H14  1  0.11567658  0.67499218  0.82264840  1
  H+  H15  1  0.15633619  0.08504212  0.93056233  1
  H+  H16  1  0.52264302  0.13435381  0.16025602  1
  H+  H17  1  0.21162298  0.38558715  0.79713974  1
  H+  H18  1  0.15096581  1.02074535  0.17703254  1
  H+  H19  1  0.21104036  0.61778646  0.98593142  1
  H+  H20  1  0.39316570  0.34399079  0.97000699  1
  H+  H21  1  0.88777712  0.76368376  0.16214470  1
  H+  H22  1  0.83623606  0.42581710  0.07516424  1
  H+  H23  1  0.04248417  0.13821382  0.17255034  1
  H+  H24  1  0.87810202  0.26598522  0.17478939  1
  H+  H25  1  0.67594920  0.57139227  0.67924843  1
  H+  H26  1  0.86519711  0.38458149  0.16768384  1
  H+  H27  1  0.24010523  0.10856078  0.18453002  1
  H+  H28  1  0.37370690  -0.02206574  1.00229021  1
  H+  H29  1  0.09769208  0.26421641  0.00741946  1
  H+  H30  1  0.84735739  0.70267502  0.49554211  1
  H+  H31  1  0.11716225  0.37628214  0.18083877  1
  H+  H32  1  1.03066768  0.63723038  0.16064574  1
  H+  H33  1  0.12667693  0.01916552  0.66807389  1
  H+  H34  1  0.47955390  0.12288608  0.83873414  1
  H+  H35  1  0.63280376  0.26445097  0.84310827  1
  H+  H36  1  0.40804510  0.03361630  0.44773067  1
  H+  H37  1  0.20006375  0.84431981  0.51072753  1
  H+  H38  1  0.13325464  0.35312269  0.64360969  1
  H+  H39  1  0.16839587  0.25669318  0.19676123  1
  H+  H40  1  0.63631038  0.86075990  0.83742590  1
  H+  H41  1  0.64788748  0.90349165  0.16152910  1
  H+  H42  1  0.26980102  0.12415467  0.47773298  1
  H+  H43  1  0.33944458  0.19907784  0.99667118  1
  H+  H44  1  0.59615327  0.36808773  0.81847137  1
  H+  H45  1  0.77257486  0.14419913  0.49759018  1
  H+  H46  1  0.56014636  0.44402339  0.32599346  1
  H+  H47  1  0.39552084  0.26825334  0.15282203  1
  H+  H48  1  0.77756260  0.38613152  0.16964870  1
  H+  H49  1  0.90253452  0.88060021  0.18578274  1
  H+  H50  1  0.36808088  0.34759477  0.65340152  1
  H+  H51  1  0.63988439  0.26881491  0.17557001  1
  H+  H52  1  0.66287484  0.02171334  0.66072509  1
  H+  H53  1  0.42119989  0.09009935  0.93127003  1
  H+  H54  1  0.77813801  0.38136934  0.66879331  1
  H+  H55  1  0.10040955  0.97344541  0.00495222  1
  H+  H56  1  0.52513402  0.88277487  0.33912226  1
  H+  H57  1  0.91245529  0.64704725  0.85196570  1
  H+  H58  1  0.02253838  0.87249950  0.33858095  1
  H+  H59  1  0.13247127  0.10370488  0.33531168  1
  H+  H60  1  0.37416326  0.98682747  0.85521998  1
  H+  H61  1  0.09489491  0.87767879  0.68057350  1
  H+  H62  1  0.58104369  0.42177726  -0.04673156  1
  H+  H63  1  0.97048554  0.11192304  0.33684252  1
  H+  H64  1  0.61362939  0.44414198  0.23366929  1
  H+  H65  1  0.38696526  0.77098194  0.33391767  1
  H+  H66  1  0.63375148  0.11430924  0.33799426  1
  H+  H67  1  0.88468103  0.77753274  0.85821948  1
  H+  H68  1  0.89758161  0.81079345  0.95088322  1
  H+  H69  1  0.64899218  0.02323203  0.83850298  1
  H+  H70  1  0.70966385  0.60871474  0.23362557  1
  H+  H71  1  0.34627418  0.21473589  0.80888336  1
  H+  H72  1  0.63133394  0.11289534  0.17739002  1
  H+  H73  1  0.85413875  0.96656293  0.83583038  1
  H+  H74  1  0.45119628  0.60130380  -0.01418095  1
  H+  H75  1  0.26480670  0.37250290  0.65742462  1
  H+  H76  1  0.45641879  0.43276838  0.19500099  1
  H+  H77  1  0.30154521  0.42264674  0.09682201  1
  H+  H78  1  0.74331974  0.65545018  0.99363738  1
  H+  H79  1  0.13036651  0.81575357  0.60513482  1
  H+  H80  1  0.87958215  0.12507614  0.50556851  1
  H+  H81  1  0.10157990  0.62485560  0.34152978  1
  H+  H82  1  0.36199881  0.97254557  0.15892265  1
  H+  H83  1  0.50106517  0.51345726  0.59274319  1
  H+  H84  1  0.87384461  0.02832148  0.33408320  1
  H+  H85  1  0.39812176  0.79625447  0.51202694  1
  H+  H86  1  0.12291094  0.56469635  0.82555987  1
  H+  H87  1  0.09556860  0.98952350  0.83174102  1
  H+  H88  1  0.67132847  0.15969642  0.69254850  1
  H+  H89  1  0.07155464  0.15028124  0.40573786  1
  H+  H90  1  0.14662991  0.81762507  0.83047937  1
  H+  H91  1  0.28874687  0.89640837  0.33445548  1
  H+  H92  1  0.63362554  0.10584198  0.99315899  1
  H+  H93  1  0.66070065  0.82828383  0.89929007  1
  H+  H94  1  0.76727849  0.37579336  0.34850451  1
  H+  H95  1  0.12904956  0.51433055  0.32640599  1
  H+  H96  1  0.88643652  0.10407741  0.85396394  1
  H+  H97  1  0.65754819  0.35936916  -0.01184777  1
  H+  H98  1  0.36519307  0.48243054  0.31208534  1
  H+  H99  1  0.89633928  0.52037207  0.16773054  1
  H+  H100  1  0.02241044  0.13032238  0.65784465  1
  H+  H101  1  0.79611942  0.90317198  0.17625188  1
  H+  H102  1  0.99120606  0.65998218  0.89581576  1
  H+  H103  1  0.25716743  0.60881039  0.34152890  1
  H+  H104  1  0.88625742  0.69401106  0.69284426  1
  H+  H105  1  0.13084355  0.26223711  0.64179622  1
  H+  H106  1  0.61097447  0.22352445  0.35766189  1
  H+  H107  1  0.01656747  0.61214758  0.82364141  1
  H+  H108  1  -0.04337696  0.36693380  -0.00453403  1
  H+  H109  1  0.76534238  0.13639631  0.34206669  1
  H+  H110  1  0.76552256  0.14223940  0.00390158  1
  H+  H111  1  0.91907018  0.25699432  0.84744163  1
  H+  H112  1  0.91619809  0.06766681  0.94681777  1
  H+  H113  1  0.73214458  0.87656853  0.51016596  1
  H+  H114  1  0.08617436  0.31318025  -0.04913153  1
  H+  H115  1  0.10045805  0.34522242  0.15465902  1
  H+  H116  1  0.21823226  0.10686639  0.66560287  1
  H+  H117  1  0.46461486  0.13070211  0.58619324  1
  H+  H118  1  0.85374055  0.61713424  0.49289221  1
  H+  H119  1  0.32999440  0.98479265  0.62109247  1
  H+  H120  1  0.21942190  0.36197824  0.49362877  1
  H+  H121  1  0.28043606  0.63256805  0.66376457  1
  H+  H122  1  0.13243341  0.10619324  0.49170354  1
  H+  H123  1  0.97058801  0.64084329  0.99112449  1
  H+  H124  1  0.52369159  0.63500394  0.82698291  1
  H+  H125  1  0.48241889  0.13149020  0.70436871  1
  H+  H126  1  0.79487100  0.66190521  0.16000701  1
  H+  H127  1  0.30475111  0.39090459  0.28308511  1
  H+  H128  1  0.38679465  0.61496519  0.82923550  1
  H+  H129  1  0.71497017  0.88882152  0.67122443  1
  H+  H130  1  0.74404152  0.36079351  0.99740093  1
  H+  H131  1  0.58216328  0.24959410  0.54323957  1
  H+  H132  1  0.52672167  0.13637665  0.00443299  1
  H+  H133  1  0.61139338  0.72623860  0.82998940  1
  H+  H134  1  0.94509384  0.16383548  0.19494914  1
  H+  H135  1  0.18251485  0.84807655  0.26482107  1
  H+  H136  1  0.30816656  0.58415464  0.38918905  1
  H+  H137  1  0.87540181  0.86165201  0.85870426  1
  H+  H138  1  0.59944941  0.63176231  -0.00182933  1
  H+  H139  1  0.12755834  0.01550855  0.49281334  1
  H+  H140  1  0.20809683  0.85985360  0.64782801  1
  H+  H141  1  0.89241980  0.35347124  0.66278062  1
  H+  H142  1  0.34994376  0.21044881  0.67178184  1
  H+  H143  1  0.38928406  0.53817206  0.16058607  1
  H+  H144  1  0.66638734  0.65621659  0.67589313  1
  H+  H145  1  0.87932769  0.13857878  0.67732546  1
  H+  H146  1  0.66271494  0.79076093  0.17612028  1
  H+  H147  1  0.12102139  0.53779836  0.17266400  1
  H+  H148  1  -0.00015566  0.87014223  0.49284803  1
  H+  H149  1  0.11335068  0.12844303  0.66416935  1
  H+  H150  1  0.64985715  0.62570955  0.83628314  1
  H+  H151  1  1.01863436  0.38899102  0.49556859  1
  H+  H152  1  0.12909547  0.64455167  0.16926290  1
  H+  H153  1  0.61557659  0.88557111  0.33959171  1
  H+  H154  1  0.67284215  0.55567935  0.98788091  1
  H+  H155  1  0.34384215  0.63778736  -0.00070979  1
  H+  H156  1  0.49075360  0.60523202  0.52887929  1
  H+  H157  1  0.07600149  0.17245326  0.74088204  1
  H+  H158  1  0.98509728  0.60231704  0.65450971  1
  H+  H159  1  0.63684179  0.42382058  0.67445185  1
  H+  H160  1  0.88362403  -0.00431548  0.17461087  1
  H+  H161  1  0.42118285  0.77445419  0.65710093  1
  H+  H162  1  0.85593178  0.37783283  0.34395587  1
  H+  H163  1  0.16693869  0.07673522  0.27704548  1
  H+  H164  1  0.88268190  0.80120829  0.66917283  1
  H+  H165  1  0.11006325  0.74182017  -0.02726435  1
  H+  H166  1  0.49135343  0.88063022  0.50833735  1
  H+  H167  1  0.63857390  1.01884529  -0.00514404  1
  H+  H168  1  0.39097662  0.02912569  0.32453252  1
  H+  H169  1  0.97128379  0.09732497  0.85619781  1
  H+  H170  1  0.11320890  0.84924912  0.50676112  1
  H+  H171  1  0.57778929  0.46451543  0.65796290  1
  H+  H172  1  0.22917611  0.86110585  0.16607767  1
  H+  H173  1  0.30196900  0.28305155  0.94145106  1
  H+  H174  1  0.61381866  0.74629603  0.68129942  1
  H+  H175  1  0.15257310  0.87387272  0.32575731  1
  H+  H176  1  0.39546372  0.86958533  0.84983413  1
  H+  H177  1  0.23748619  0.35518226  0.19002986  1
  H+  H178  1  0.12870769  0.89352418  0.84313204  1
  H+  H179  1  0.64804524  0.36198135  0.18474996  1
  H+  H180  1  0.39234898  0.86477902  0.99085619  1
  H+  H181  1  0.96935224  0.35812946  0.32733367  1
  H+  H182  1  0.35151140  0.72929347  0.00236817  1
  H+  H183  1  0.35543376  0.21521549  0.48810544  1
  H+  H184  1  0.00889968  0.89760279  0.84264902  1
  H+  H185  1  0.75035075  0.11067914  0.66493871  1
  H+  H186  1  0.40401080  0.57902656  0.89029179  1
  H+  H187  1  -0.00137046  0.41208267  0.16141167  1
  H+  H188  1  0.84928216  0.89641814  0.67456380  1
  H+  H189  1  0.88476911  0.36205922  0.51201549  1
  H+  H190  1  0.39252229  0.78035807  0.83472807  1
  H+  H191  1  0.09718424  0.71722082  0.49569943  1
  H+  H192  1  0.83041210  0.17457915  0.43619727  1
  H+  H193  1  0.29842348  0.38190163  0.00378431  1
  H+  H194  1  0.73139376  0.86981844  0.33445745  1
  H+  H195  1  0.39924873  0.37318006  0.32500707  1
  H+  H196  1  0.09850642  0.64708875  -0.03371782  1
  H+  H197  1  0.12130107  0.73733117  0.16387832  1
  H+  H198  1  0.20925896  0.35480213  0.34610013  1
  H+  H199  1  0.40332975  0.51884404  0.53045390  1
  H+  H200  1  0.88054448  0.02338385  0.65792906  1
  H+  H201  1  0.64640161  1.03417048  0.50725795  1
  H+  H202  1  0.56112077  0.75695798  0.11274753  1
  H+  H203  1  0.37601006  0.85055057  0.17527945  1
  H+  H204  1  0.35484698  0.47759486  0.81579152  1
  H+  H205  1  0.32238867  0.40843812  0.71717500  1
  H+  H206  1  0.52924523  0.88814733  0.81925836  1
  H+  H207  1  0.03054695  0.38091025  0.67403394  1
  H+  H208  1  0.10649461  0.96709162  0.34419650  1
  H+  H209  1  0.78408030  0.65090430  0.83881123  1
  H+  H210  1  0.76491501  0.32910832  0.81613259  1
  H+  H211  1  0.60469843  0.62236664  0.34127428  1
  H+  H212  1  0.88859929  0.93233731  0.47979490  1
  H+  H213  1  0.65242999  0.33226494  0.60827817  1
  H+  H214  1  0.58190886  0.45300861  0.47663723  1
  H+  H215  1  0.36559602  0.62669706  0.66353598  1
  H+  H216  1  0.85128101  0.45815719  0.49530147  1
  H+  H217  1  0.38435356  0.10513131  -0.00694583  1
  H+  H218  1  0.35361745  0.52255060  0.98628290  1
  H+  H219  1  0.35033120  0.88293364  0.50006943  1
  H+  H220  1  0.01213866  0.13652368  0.49516656  1
  H+  H221  1  0.52612515  0.88551315  0.00944058  1
  H+  H222  1  0.88998135  0.99903036  0.01230673  1
  H+  H223  1  0.44796744  0.23657480  0.11658180  1
  H+  H224  1  0.27583281  0.63346099  0.81574018  1
  H+  H225  1  0.65251934  0.28941783  0.67222767  1
  H+  H226  1  0.64510895  0.77424701  0.33116771  1
  H+  H227  1  0.21127124  0.09984657  0.99165796  1
  H+  H228  1  0.76462223  0.87854674  0.83103729  1
  H+  H229  1  0.14233755  0.60906394  0.65984993  1
  H+  H230  1  0.78570128  0.67671398  0.69244477  1
  H+  H231  1  0.14045560  0.86310757  0.16775113  1
  H+  H232  1  0.61895409  0.89679466  0.49176470  1
  H+  H233  1  0.34714687  0.90749446  0.64307439  1
  H+  H234  1  0.84324183  0.82266770  0.51219428  1
  H+  H235  1  0.45809134  0.35469246  0.64220399  1
  H+  H236  1  0.10921135  0.72109754  0.67116388  1
  H+  H237  1  0.10391812  0.22335562  0.48853401  1
  H+  H238  1  0.39285198  0.11440224  0.17204248  1
  H+  H239  1  0.38372342  0.62364063  0.16187484  1
  H+  H240  1  0.40067210  0.11656794  0.45655780  1
  H+  H241  1  0.86680962  0.92089366  0.34165871  1
  H+  H242  1  0.14477819  0.87496501  0.99725964  1
  H+  H243  1  0.46308293  0.11936082  0.73553494  1
  H+  H244  1  0.03492418  0.89544335  0.16591188  1
  H+  H245  1  0.88976023  0.27632921  0.50956456  1
  H+  H246  1  0.42461972  0.59708081  0.25115568  1
  H+  H247  1  0.52420340  0.63476892  0.33358987  1
  H+  H248  1  0.98201471  0.10305605  1.00698306  1
  H+  H249  1  0.75566088  0.13124595  0.16392128  1
  H+  H250  1  0.86920033  0.88154610  0.02509475  1
  H+  H251  1  0.13665605  0.13091244  0.83308602  1
  H+  H252  1  0.87887388  0.22743833  0.68065648  1
  H+  H253  1  0.85617210  0.49336716  0.02274463  1
  H+  H254  1  0.28330020  0.90372168  0.85458474  1
  H+  H255  1  0.51990124  0.66770754  0.14500086  1
  H+  H256  1  0.38721138  0.11640789  0.32148191  1
  H+  H257  1  0.87316120  0.82141323  0.33542640  1
  H+  H258  1  0.07793622  0.32563552  0.85004954  1
  H+  H259  1  0.64482647  0.37559481  0.32466512  1
  H+  H260  1  0.85656008  0.13895428  0.34305381  1
  H+  H261  1  0.97828152  0.62695336  0.32229257  1
  H+  H262  1  0.61402903  0.75997416  -0.01872610  1
  H+  H263  1  0.22365463  0.61578200  0.17204530  1
  H+  H264  1  0.38657843  0.11932284  0.83439979  1
  H+  H265  1  0.11139549  0.13682183  0.01045226  1
  H+  H266  1  0.61799911  0.73345899  0.49442138  1
  H+  H267  1  0.28946644  0.80248714  0.46540582  1
  H+  H268  1  0.25512113  0.66032511  0.49113100  1
  H+  H269  1  0.90030387  0.61029425  0.15583089  1
  H+  H270  1  0.97001225  0.88426854  0.65783091  1
  H+  H271  1  0.35332440  0.37634171  0.49557364  1
  H+  H272  1  0.15227940  0.49523314  0.83377665  1
  H+  H273  1  0.86827087  0.25892618  -0.00365487  1
  H+  H274  1  0.33421641  0.08084299  0.57577787  1
  H+  H275  1  0.34107843  0.11673559  0.65590938  1
  H+  H276  1  0.38949309  0.61378376  0.31417229  1
  H+  H277  1  0.83517029  0.11786293  0.15251763  1
  H+  H278  1  0.10402658  0.21228253  0.34873616  1
  H+  H279  1  0.28072865  0.14773374  0.33768252  1
  H+  H280  1  0.71703898  0.58466841  0.33230379  1
  H+  H281  1  0.66090441  0.08579658  0.23908202  1
  H+  H282  1  0.45376895  0.34798396  0.49951240  1
  H+  H283  1  0.42468797  0.83334054  0.93357600  1
  H+  H284  1  0.87268935  0.46197416  0.66972364  1
  H+  H285  1  0.08850751  0.48672056  1.00158927  1
  H+  H286  1  0.78660371  0.13518732  0.83337097  1
  H+  H287  1  0.61398660  0.12864761  0.83869103  1
  H+  H288  1  0.56480093  0.66546244  0.05227101  1
  H+  H289  1  0.66970334  0.85149404  0.56804765  1
  H+  H290  1  0.82356428  0.92093035  0.73792363  1
  H+  H291  1  0.67659336  0.31955702  0.51606285  1
  H+  H292  1  0.92057981  0.82883522  0.24003540  1
  H+  H293  1  0.67440384  0.07720349  0.90080882  1
  H+  H294  1  0.85192684  0.69631748  0.78471456  1
  H+  H295  1  0.10466112  0.63138996  0.49678755  1
  H+  H296  1  0.10014433  0.37984939  0.34543003  1
  H+  H297  1  0.68585357  0.83775590  0.24199505  1
  H+  H298  1  0.28762941  0.82827165  0.73888637  1
  H+  H299  1  0.01931500  0.87837075  0.01306383  1
  H+  H300  1  0.04698386  0.45277842  0.09893986  1
  H+  H301  1  0.91495893  0.56918596  0.55859126  1
  H+  H302  1  0.58312179  0.16409273  0.10055215  1
  H+  H303  1  0.58211167  0.67362224  0.43525897  1
  H+  H304  1  0.57670132  0.36441751  0.48952411  1
  H+  H305  1  0.12657929  0.12929652  0.16588997  1
  H+  H306  1  0.90904467  0.32277125  0.23688249  1
  H+  H307  1  0.33461284  0.84407838  0.73426631  1
  H+  H308  1  0.82322203  0.39533874  0.43956740  1
  H+  H309  1  0.83020056  0.93175160  0.42081913  1
  H+  H310  1  0.31407864  0.69029302  0.43195030  1
  H+  H311  1  0.34209540  0.17610119  0.39446102  1
  H+  H312  1  0.31637308  0.14529010  0.75611502  1
  H+  H313  1  0.58074882  0.51106139  0.56657416  1
  H+  H314  1  0.39415156  0.31543397  0.56048684  1
  H+  H315  1  0.70830508  0.58873646  0.49604553  1
  H+  H316  1  0.12732003  0.29867332  0.78270039  1
  H+  H317  1  0.85434235  0.92674068  0.08431834  1
  H+  H318  1  0.88278020  0.68561975  0.00488670  1
  H+  H319  1  0.33730178  0.91564590  0.09833863  1
  H+  H320  1  0.46089923  0.34917942  0.81453345  1
  H+  H321  1  0.31976105  0.66549437  0.09642674  1
  H+  H322  1  0.16300091  0.31718057  0.28509218  1
  H+  H323  1  0.16005815  0.57355753  0.92496675  1
  H+  H324  1  0.82592318  0.35829773  0.75988792  1
  H+  H325  1  0.68287487  0.60987269  0.89855848  1
  H+  H326  1  0.32838198  0.16201689  0.06276319  1
  H+  H327  1  0.66398254  0.32483467  0.27422880  1
  H+  H328  1  0.41480333  0.08060068  0.23321597  1
  H+  H329  1  0.40159441  0.28549546  0.32630455  1
  H+  H330  1  0.82171418  0.17661544  0.06536923  1
  H+  H331  1  0.07202629  0.41685032  0.40148999  1
  H+  H332  1  0.06274530  0.89829269  0.43462335  1
  H+  H333  1  0.16587961  0.57963617  0.56681654  1
  H+  H334  1  0.17606175  0.86100420  0.93301476  1
  H+  H335  1  0.39535264  0.31625239  0.86981396  1
  H+  H336  1  0.62779982  0.97961975  0.16037192  1
  H+  H337  1  0.38882791  0.86093724  0.33039710  1
  H+  H338  1  0.33422284  0.90485831  0.39751101  1
  H+  H339  1  0.10739144  0.38773291  0.48880160  1
  H+  H340  1  0.07874525  0.65033546  0.72589706  1
  H+  H341  1  0.92332271  0.31653237  0.93095962  1
  H+  H342  1  0.42850745  0.35521789  0.24058175  1
  H+  H343  1  0.57885124  0.41613404  0.76367796  1
  H+  H344  1  0.55204800  0.40940215  0.17788750  1
  H+  H345  1  0.92878476  0.09935298  0.24953896  1
  H+  H346  1  0.07031104  0.65363266  0.39959700  1
  H+  H347  1  0.67604626  0.33073827  0.89623416  1
  H+  H348  1  0.60491377  0.16950376  0.77840464  1
  H+  H349  1  0.62924729  0.60588038  0.49224111  1
  H+  H350  1  0.87440660  0.03315120  0.50106538  1
  H+  H351  1  0.06461849  0.91171915  0.73826037  1
  H+  H352  1  0.92465656  0.32820836  0.60323066  1
  H+  H353  1  0.72091350  0.23759024  0.74052805  1
  H+  H354  1  0.58116365  0.42303227  0.02431012  1
  H+  H355  1  0.08687556  0.92293270  0.10259166  1
  H+  H356  1  0.90768877  0.08128228  0.59599000  1
  H+  H357  1  0.54921275  0.87183768  0.66276871  1
  H+  H358  1  0.59021048  0.68088992  0.73659126  1
  H+  H359  1  0.59470457  0.91742350  0.06528364  1
  H+  H360  1  0.87438613  0.73670055  0.32688012  1
  H+  H361  1  0.89057055  0.59714784  0.95050426  1
  H+  H362  1  0.92252679  0.59839944  0.26039207  1
  H+  H363  1  0.34619136  0.42897160  0.44012711  1
  H+  H364  1  0.15878914  0.32828402  0.55139240  1
  H+  H365  1  0.21889711  0.11785488  0.83072860  1
  H+  H366  1  0.33768890  0.66839518  0.75785315  1
  H+  H367  1  0.07946912  0.39547606  0.01825255  1
  H+  H368  1  0.59409491  0.91120843  0.76228058  1
  H+  H369  1  0.87958603  0.26829178  0.32855521  1
  H+  H370  1  0.84859022  0.16162970  0.77487402  1
  H+  H371  1  0.45101836  0.84187651  0.60196950  1
  H+  H372  1  0.40322475  0.81698273  0.23363107  1
  H+  H373  1  0.81660516  0.63922249  0.39998277  1
  H+  H374  1  0.62092016  0.22129948  0.00602989  1
  H+  H375  1  0.89584525  0.82687680  0.57103165  1
  H+  H376  1  0.21480944  0.38722025  1.00765807  1
  H+  H377  1  0.01329698  0.18010058  0.78720495  1
  H+  H378  1  0.58822816  0.92415338  0.43162565  1
  H+  H379  1  0.63264020  1.02441116  0.33021326  1
  H+  H380  1  0.08710371  0.16223152  0.07517381  1
  H+  H381  1  0.50101770  0.12694011  0.52277781  1
  H+  H382  1  0.85386362  0.71203811  0.09377485  1
  H+  H383  1  0.54085528  0.14277950  0.39400115  1
  O2-  O384  1  0.09964219  0.16352765  0.15234754  1
  O2-  O385  1  0.07156727  0.16063764  0.47840554  1
  O2-  O386  1  0.06932405  0.18382085  0.78646547  1
  O2-  O387  1  0.04265489  0.46633347  0.14198928  1
  O2-  O388  1  0.07829423  0.42103319  0.47735531  1
  O2-  O389  1  0.03297132  0.29099049  0.88166227  1
  O2-  O390  1  0.09465081  0.67343504  0.15043022  1
  O2-  O391  1  0.07155576  0.65724611  0.47934703  1
  O2-  O392  1  0.07172956  0.62220820  0.80354602  1
  O2-  O393  1  0.09348998  0.92353285  0.14796936  1
  O2-  O394  1  0.06067380  0.89908600  0.48008769  1
  O2-  O395  1  0.06592033  0.92704182  0.82155343  1
  O2-  O396  1  0.38997735  0.21725601  0.13158668  1
  O2-  O397  1  0.33312388  0.15798603  0.46780754  1
  O2-  O398  1  0.31578477  0.15113109  0.80284721  1
  O2-  O399  1  0.31993782  0.42784485  0.14019844  1
  O2-  O400  1  0.33008848  0.41554603  0.48263232  1
  O2-  O401  1  0.31803127  0.41797343  0.79978053  1
  O2-  O402  1  0.32203976  0.66074185  0.14159296  1
  O2-  O403  1  0.30485393  0.71091364  0.47108782  1
  O2-  O404  1  0.33638604  0.67026199  0.80314354  1
  O2-  O405  1  0.33020942  0.91230613  0.14359564  1
  O2-  O406  1  0.30098703  0.86221845  0.47190482  1
  O2-  O407  1  0.34422242  0.92359163  0.86165937  1
  O2-  O408  1  0.58365378  0.16736566  0.14605142  1
  O2-  O409  1  0.52081117  0.15457293  0.56276095  1
  O2-  O410  1  0.58436728  0.15843736  0.82184594  1
  O2-  O411  1  0.61346147  0.43723908  0.18837056  1
  O2-  O412  1  0.54696019  0.39060622  0.46792355  1
  O2-  O413  1  0.55844110  0.39011471  0.80455940  1
  O2-  O414  1  0.57382116  0.71203690  0.12434060  1
  O2-  O415  1  0.58751925  0.67318165  0.48006129  1
  O2-  O416  1  0.58458821  0.66629546  0.81342553  1
  O2-  O417  1  0.61382315  0.92481005  0.14040336  1
  O2-  O418  1  0.58882095  0.92711164  0.47712399  1
  O2-  O419  1  0.59114235  0.91720190  0.80677143  1
  O2-  O420  1  0.81544252  0.15849906  0.14428080  1
  O2-  O421  1  0.83462948  0.17616906  0.48148332  1
  O2-  O422  1  0.84821988  0.15909674  0.82069834  1
  O2-  O423  1  0.83779833  0.41844697  0.15377712  1
  O2-  O424  1  0.82241253  0.39598317  0.48562085  1
  O2-  O425  1  0.80140834  0.31369795  0.79181926  1
  O2-  O426  1  0.85727012  0.70313739  0.13930976  1
  O2-  O427  1  0.82039507  0.64471092  0.47737048  1
  O2-  O428  1  0.84896820  0.68530944  0.82957209  1
  O2-  O429  1  0.85793786  0.93549378  0.16084340  1
  O2-  O430  1  0.83443445  0.93032043  0.47111508  1
  O2-  O431  1  0.82714617  0.90852833  0.81755751  1
  O2-  O432  1  0.17938315  0.08042882  0.19505989  1
  O2-  O433  1  0.16737801  0.07798264  0.49416164  1
  O2-  O434  1  0.16064844  0.09731255  0.85088356  1
  O2-  O435  1  0.20785094  0.30893518  0.22046452  1
  O2-  O436  1  0.15749280  0.33095384  0.50557627  1
  O2-  O437  1  0.14805450  0.36056312  0.79115786  1
  O2-  O438  1  0.16604804  0.59549283  0.19185406  1
  O2-  O439  1  0.16213486  0.58310111  0.52176190  1
  O2-  O440  1  0.16672255  0.55357254  0.84462849  1
  O2-  O441  1  0.16811824  0.83001743  0.18204093  1
  O2-  O442  1  0.13963258  0.81662246  0.52481139  1
  O2-  O443  1  0.16649788  0.86867286  0.85538248  1
  O2-  O444  1  0.41747398  0.07978365  0.18620762  1
  O2-  O445  1  0.44182895  0.09588249  0.44760995  1
  O2-  O446  1  0.42025737  0.09696413  0.85603427  1
  O2-  O447  1  0.43190567  0.37044226  0.19477915  1
  O2-  O448  1  0.39198546  0.31658251  0.51493516  1
  O2-  O449  1  0.39689106  0.32310202  0.82560792  1
  O2-  O450  1  0.42125097  0.59868776  0.17474694  1
  O2-  O451  1  0.44557854  0.56487018  0.55686398  1
  O2-  O452  1  0.41149027  0.57997513  0.84537577  1
  O2-  O453  1  0.39779507  0.81243736  0.18880053  1
  O2-  O454  1  0.43482500  0.85320156  0.53064306  1
  O2-  O455  1  0.42852619  0.83809076  0.85272511  1
  O2-  O456  1  0.66332243  0.08487940  0.19336393  1
  O2-  O457  1  0.68034077  0.09333070  0.52347569  1
  O2-  O458  1  0.67991186  0.08252238  0.85548363  1
  O2-  O459  1  0.67455537  0.32665815  0.19502065  1
  O2-  O460  1  0.62464993  0.31362564  0.53510902  1
  O2-  O461  1  0.66560498  0.32751223  0.85186356  1
  O2-  O462  1  0.71668102  0.61095281  0.18879311  1
  O2-  O463  1  0.64512552  0.56126438  0.50114298  1
  O2-  O464  1  0.68647781  0.60407230  0.85421792  1
  O2-  O465  1  0.69854834  0.84623030  0.19680718  1
  O2-  O466  1  0.67130953  0.84456966  0.52356814  1
  O2-  O467  1  0.66517110  0.82932838  0.85285524  1
  O2-  O468  1  0.93956523  0.10789710  0.20288704  1
  O2-  O469  1  0.90741400  0.09089866  0.52038478  1
  O2-  O470  1  0.91296639  0.07081970  0.87263928  1
  O2-  O471  1  0.90908681  0.32526951  0.19085659  1
  O2-  O472  1  0.92106618  0.33631376  0.52638354  1
  O2-  O473  1  0.96512793  0.31182152  0.86746451  1
  O2-  O474  1  0.93086994  0.58480841  0.17563440  1
  O2-  O475  1  0.90888829  0.57082036  0.51396071  1
  O2-  O476  1  0.94580017  0.61972938  0.86795035  1
  O2-  O477  1  0.92822741  0.84292110  0.19536758  1
  O2-  O478  1  0.88928249  0.81287336  0.52605191  1
  O2-  O479  1  0.90859502  0.83653863  0.87805250  1
  O2-  O480  1  0.16552926  0.07525215  0.32199171  1
  O2-  O481  1  0.15612197  0.07885891  0.65268690  1
  O2-  O482  1  0.15193535  0.07851411  0.97584649  1
  O2-  O483  1  0.15090512  0.32112387  0.32922897  1
  O2-  O484  1  0.16144519  0.32272946  0.62565355  1
  O2-  O485  1  0.11278182  0.32239661  0.99210361  1
  O2-  O486  1  0.16648574  0.57628861  0.31455439  1
  O2-  O487  1  0.17464360  0.58050432  0.64566848  1
  O2-  O488  1  0.15187920  0.58547766  0.96772706  1
  O2-  O489  1  0.19606860  0.86199630  0.30811518  1
  O2-  O490  1  0.14238866  0.82093278  0.64976162  1
  O2-  O491  1  0.17659193  0.84957462  0.97738175  1
  O2-  O492  1  0.41326788  0.08451866  0.30288220  1
  O2-  O493  1  0.36487883  0.07746974  0.61126428  1
  O2-  O494  1  0.42197418  0.08428205  0.97686703  1
  O2-  O495  1  0.43317338  0.34660011  0.31092122  1
  O2-  O496  1  0.39674098  0.31410293  0.63825800  1
  O2-  O497  1  0.35740531  0.28809620  0.95116284  1
  O2-  O498  1  0.42307078  0.58892668  0.29654752  1
  O2-  O499  1  0.53560196  0.48453291  0.59830263  1
  O2-  O500  1  0.39183937  0.58051455  0.96965108  1
  O2-  O501  1  0.41734091  0.82780214  0.31528050  1
  O2-  O502  1  0.46044395  0.83519696  0.64647487  1
  O2-  O503  1  0.42040523  0.83090599  0.97890885  1
  O2-  O504  1  0.66211950  0.08528959  0.31613943  1
  O2-  O505  1  0.68966203  0.08336328  0.65030061  1
  O2-  O506  1  0.66764948  0.07925916  0.97839664  1
  O2-  O507  1  0.65869442  0.32987315  0.31892110  1
  O2-  O508  1  0.67098579  0.34527965  0.65214770  1
  O2-  O509  1  0.68451620  0.32462134  0.97954472  1
  O2-  O510  1  0.65774126  0.56149543  0.31051494  1
  O2-  O511  1  0.70644914  0.63294432  0.66704544  1
  O2-  O512  1  0.68422104  0.61446468  0.97997697  1
  O2-  O513  1  0.67153334  0.83389310  0.31564320  1
  O2-  O514  1  0.65518539  0.85958913  0.65303384  1
  O2-  O515  1  0.65285731  0.82066987  0.97012052  1
  O2-  O516  1  0.91229561  0.09022228  0.31794590  1
  O2-  O517  1  0.91611932  0.08268190  0.64133904  1
  O2-  O518  1  0.92018686  0.06564102  0.99273203  1
  O2-  O519  1  0.91011176  0.32731238  0.30999183  1
  O2-  O520  1  0.92765634  0.32745880  0.64896644  1
  O2-  O521  1  0.90322693  0.32250322  0.97294495  1
  O2-  O522  1  0.92307635  0.61620815  0.30256497  1
  O2-  O523  1  0.92488111  0.56450187  0.63797418  1
  O2-  O524  1  0.90600941  0.61595678  0.99314974  1
  O2-  O525  1  0.90568330  0.79946415  0.31406620  1
  O2-  O526  1  0.90868558  0.85551750  0.64398065  1
  O2-  O527  1  0.90535615  0.81087695  0.99760539  1
  O2-  O528  1  0.07932686  0.16290565  0.02992775  1
  O2-  O529  1  0.07366791  0.15018499  0.35957607  1
  O2-  O530  1  0.08282224  0.16412998  0.67303024  1
  O2-  O531  1  0.05134127  0.43054103  0.02280316  1
  O2-  O532  1  0.07269411  0.41451199  0.35565263  1
  O2-  O533  1  0.09431043  0.41286418  0.68219116  1
  O2-  O534  1  0.06803917  0.68038051  -0.03718032  1
  O2-  O535  1  0.06938217  0.65302942  0.35450276  1
  O2-  O536  1  0.08278138  0.65752467  0.68099218  1
  O2-  O537  1  0.07980101  0.91683991  0.02548309  1
  O2-  O538  1  0.07945367  0.90580105  0.35778120  1
  O2-  O539  1  0.06610913  0.91054678  0.69328453  1
  O2-  O540  1  0.31513263  0.14453956  0.01972485  1
  O2-  O541  1  0.34261827  0.18114279  0.34852105  1
  O2-  O542  1  0.31913119  0.14992767  0.68603976  1
  O2-  O543  1  0.27756778  0.41844505  0.01990959  1
  O2-  O544  1  0.33221953  0.41903798  0.32145207  1
  O2-  O545  1  0.32466118  0.40050527  0.67296486  1
  O2-  O546  1  0.31447459  0.66788430  0.01605889  1
  O2-  O547  1  0.31648687  0.63019757  0.36159045  1
  O2-  O548  1  0.34182388  0.66160100  0.67827422  1
  O2-  O549  1  0.34316330  0.91847176  0.01944859  1
  O2-  O550  1  0.34776141  0.91926652  0.35376220  1
  O2-  O551  1  0.30325203  0.91761688  0.62594825  1
  O2-  O552  1  0.58570989  0.16127125  0.02201940  1
  O2-  O553  1  0.59869787  0.16867536  0.37622492  1
  O2-  O554  1  0.66682001  0.20414473  0.71641808  1
  O2-  O555  1  0.61853862  0.43883592  -0.01113798  1
  O2-  O556  1  0.61948549  0.46718309  0.31028620  1
  O2-  O557  1  0.61445031  0.46015068  0.69090210  1
  O2-  O558  1  0.55603215  0.64854240  0.00867455  1
  O2-  O559  1  0.58169704  0.65985299  0.35313607  1
  O2-  O560  1  0.59859757  0.68723372  0.69164259  1
  O2-  O561  1  0.58852402  0.91643896  0.01982017  1
  O2-  O562  1  0.58543468  0.91615455  0.35412761  1
  O2-  O563  1  0.61454498  0.90620880  0.67935441  1
  O2-  O564  1  0.82558690  0.18023847  0.02024783  1
  O2-  O565  1  0.82609238  0.16921721  0.35753992  1
  O2-  O566  1  0.85089962  0.16776458  0.69800759  1
  O2-  O567  1  0.83545908  0.43239195  0.03024502  1
  O2-  O568  1  0.82616762  0.40400214  0.36521349  1
  O2-  O569  1  0.83785778  0.40196980  0.68410247  1
  O2-  O570  1  0.85298510  0.72075046  0.01920070  1
  O2-  O571  1  0.81128675  0.63829714  0.35446087  1
  O2-  O572  1  0.85130329  0.71553410  0.71057082  1
  O2-  O573  1  0.85203413  0.92333942  0.03881017  1
  O2-  O574  1  0.82524613  0.93466231  0.35845314  1
  O2-  O575  1  0.81846898  0.92456679  0.69285893  1
