# generated using pymatgen
data_H2O
_symmetry_space_group_name_H-M   'P 1'
_cell_length_a   17.97927733
_cell_length_b   17.97806437
_cell_length_c   22.01491376
_cell_angle_alpha   89.99056025
_cell_angle_beta   90.04304511
_cell_angle_gamma   119.99472034
_symmetry_Int_Tables_number   1
_chemical_formula_structural   H2O
_chemical_formula_sum   'H384 O192'
_cell_volume   6162.90892749
_cell_formula_units_Z   192
loop_
 _symmetry_equiv_pos_site_id
 _symmetry_equiv_pos_as_xyz
  1  'x, y, z'
loop_
 _atom_type_symbol
 _atom_type_oxidation_number
  H+  1.0
  O2-  -2.0
loop_
 _atom_site_type_symbol
 _atom_site_label
 _atom_site_symmetry_multiplicity
 _atom_site_fract_x
 _atom_site_fract_y
 _atom_site_fract_z
 _atom_site_occupancy
  H+  H0  1  0.10607812  0.21234851  0.82906859  1
  H+  H1  1  0.12213626  0.38011855  0.30261410  1
  H+  H2  1  0.63977674  1.02619146  0.17636064  1
  H+  H3  1  0.77753244  0.39850539  0.12049548  1
  H+  H4  1  0.13514976  0.28365366  0.66828051  1
  H+  H5  1  0.88429090  0.87565063  0.21485445  1
  H+  H6  1  0.23649052  0.62657394  0.65256614  1
  H+  H7  1  0.37500252  0.89309918  0.48606939  1
  H+  H8  1  0.95956939  0.34782314  0.99600396  1
  H+  H9  1  0.61928290  0.13003873  0.65761084  1
  H+  H10  1  0.90231435  0.82073745  0.59667206  1
  H+  H11  1  0.39571168  1.00365860  0.32365673  1
  H+  H12  1  0.27925261  0.16586856  0.97347768  1
  H+  H13  1  0.39767222  0.37981069  0.32529606  1
  H+  H14  1  0.83876098  0.13713151  -0.00734139  1
  H+  H15  1  0.47602531  1.01469457  1.03477908  1
  H+  H16  1  -0.02291388  0.60713991  -0.00875908  1
  H+  H17  1  0.35928015  0.22501825  0.33886517  1
  H+  H18  1  -0.02663675  0.36359574  0.50769620  1
  H+  H19  1  0.86642335  0.46978112  0.82811701  1
  H+  H20  1  0.12101262  0.27179801  0.34036803  1
  H+  H21  1  0.85000417  0.71515742  0.49004778  1
  H+  H22  1  0.89746617  0.77870202  0.99448115  1
  H+  H23  1  0.86549475  0.73765436  0.17991885  1
  H+  H24  1  0.62420799  0.33693099  0.50969860  1
  H+  H25  1  0.61843706  0.12996792  0.33268655  1
  H+  H26  1  0.65669802  0.82273211  0.24680400  1
  H+  H27  1  0.89408688  0.61617033  -0.00549519  1
  H+  H28  1  0.87531064  0.85493915  0.49552554  1
  H+  H29  1  0.49803160  0.87352857  -0.03755533  1
  H+  H30  1  0.48216967  0.85843917  0.65383616  1
  H+  H31  1  0.10901139  0.72944452  0.66593019  1
  H+  H32  1  0.08047439  0.65796498  0.06398121  1
  H+  H33  1  0.61498775  0.97579775  0.49421814  1
  H+  H34  1  -0.02921990  0.33468328  0.29363239  1
  H+  H35  1  0.37431323  0.39736941  0.82535604  1
  H+  H36  1  0.09955352  0.72459392  0.16504753  1
  H+  H37  1  0.85512236  0.61903070  0.82664776  1
  H+  H38  1  0.38988237  -0.00514715  1.00881556  1
  H+  H39  1  0.40002294  0.58900098  0.42464993  1
  H+  H40  1  0.60186802  0.11463882  1.00897369  1
  H+  H41  1  0.24004359  0.62598153  0.31837972  1
  H+  H42  1  0.36189865  0.48530529  0.67260242  1
  H+  H43  1  0.96652412  0.09801433  0.83424250  1
  H+  H44  1  0.88404002  0.36263150  0.50485848  1
  H+  H45  1  0.28122649  0.87873413  0.33574293  1
  H+  H46  1  0.86806009  0.22094892  0.48832327  1
  H+  H47  1  0.37324140  0.25550073  0.50757827  1
  H+  H48  1  0.46773710  0.84663813  0.32487129  1
  H+  H49  1  0.10569840  0.44889973  0.72285854  1
  H+  H50  1  0.44966511  0.96776501  0.71915115  1
  H+  H51  1  0.01056508  0.89531720  0.20168109  1
  H+  H52  1  0.01954851  0.15498314  0.14592712  1
  H+  H53  1  0.63752039  0.62082413  0.17438773  1
  H+  H54  1  0.66752677  0.07726212  0.26467153  1
  H+  H55  1  0.73246433  0.10788961  0.49661801  1
  H+  H56  1  0.64255979  0.26779438  0.32004196  1
  H+  H57  1  0.86099755  0.97524156  0.66501878  1
  H+  H58  1  0.13175237  0.53152432  0.16590251  1
  H+  H59  1  0.20842120  0.13182330  0.65318278  1
  H+  H60  1  0.38552347  0.02074438  0.48218948  1
  H+  H61  1  0.36020669  0.63431175  0.66957084  1
  H+  H62  1  0.59466550  0.44727459  0.72993856  1
  H+  H63  1  0.88841925  0.63068484  0.18313487  1
  H+  H64  1  0.39516402  0.86300478  0.17363554  1
  H+  H65  1  0.85513723  0.06816912  0.32671985  1
  H+  H66  1  0.35401204  0.63053952  0.82627632  1
  H+  H67  1  0.38149837  0.52063698  0.16476222  1
  H+  H68  1  0.20730016  1.04802153  0.49591611  1
  H+  H69  1  0.85732403  0.47040535  0.67021234  1
  H+  H70  1  0.35682411  0.84715346  0.84068464  1
  H+  H71  1  0.14839869  0.89620332  0.49979368  1
  H+  H72  1  0.36364206  0.48222323  0.36257241  1
  H+  H73  1  0.11729312  0.24978684  -0.00495514  1
  H+  H74  1  0.39893076  0.03619147  0.17578527  1
  H+  H75  1  0.12011131  0.13893344  0.56578273  1
  H+  H76  1  0.58850714  0.91290998  0.11724857  1
  H+  H77  1  0.61266862  0.64484179  0.67356085  1
  H+  H78  1  0.43582795  0.56941177  0.99642129  1
  H+  H79  1  0.49118270  0.38699636  0.17578171  1
  H+  H80  1  0.02901096  0.88814488  -0.03177310  1
  H+  H81  1  0.60294903  0.71994693  0.34873083  1
  H+  H82  1  0.09262407  0.93110233  0.57303605  1
  H+  H83  1  0.06806573  0.92363632  0.14227406  1
  H+  H84  1  0.87003566  0.75011635  0.83773961  1
  H+  H85  1  0.86146478  0.47494514  1.01610307  1
  H+  H86  1  0.71250335  0.57519464  0.82495777  1
  H+  H87  1  0.12869934  0.40198694  0.67032963  1
  H+  H88  1  0.09912564  0.14748442  0.67053492  1
  H+  H89  1  0.88481826  0.96959852  0.37360674  1
  H+  H90  1  0.10919044  0.46228499  0.00277157  1
  H+  H91  1  0.41737340  0.83346743  0.56981340  1
  H+  H92  1  0.27257657  0.63795510  0.15259921  1
  H+  H93  1  0.62667549  0.54583022  0.53001509  1
  H+  H94  1  0.35606768  0.74980935  0.84232759  1
  H+  H95  1  0.12014952  0.97658788  -0.03956742  1
  H+  H96  1  0.13879111  0.87142004  0.63339984  1
  H+  H97  1  0.87564794  0.13596938  0.48818469  1
  H+  H98  1  0.20981799  0.08605240  0.80840324  1
  H+  H99  1  -0.00053610  0.11067475  -0.01123040  1
  H+  H100  1  0.97494010  0.60395280  0.83717083  1
  H+  H101  1  0.60898503  0.88764303  0.66819160  1
  H+  H102  1  0.33190093  0.40307822  0.44092830  1
  H+  H103  1  0.89434903  0.04727601  0.17136886  1
  H+  H104  1  0.62756043  0.86050734  0.33841782  1
  H+  H105  1  0.12379276  0.59000899  0.83286256  1
  H+  H106  1  0.25859847  0.86966248  0.82575419  1
  H+  H107  1  0.11258051  0.70837254  0.82194870  1
  H+  H108  1  0.36869934  0.60150852  0.98944638  1
  H+  H109  1  0.12186061  0.49991091  0.83839373  1
  H+  H110  1  0.16148159  0.57027857  0.93185724  1
  H+  H111  1  0.89609869  0.77695215  0.66109889  1
  H+  H112  1  0.72804391  0.11205251  0.65456945  1
  H+  H113  1  0.62342826  -0.01106951  0.95507327  1
  H+  H114  1  0.62750612  0.14645401  0.16736603  1
  H+  H115  1  0.85585670  0.38413435  1.01840486  1
  H+  H116  1  0.62118102  0.97085622  0.81624068  1
  H+  H117  1  0.27425363  0.37774036  0.50143636  1
  H+  H118  1  0.79486820  0.65061349  1.01510714  1
  H+  H119  1  0.52166739  0.88032457  0.17164678  1
  H+  H120  1  0.86410944  0.22595610  0.67051556  1
  H+  H121  1  0.72272070  0.61718298  0.50855711  1
  H+  H122  1  0.86581691  0.38595882  0.67192845  1
  H+  H123  1  0.55193171  0.43062299  0.82822669  1
  H+  H124  1  0.63333957  0.77455396  0.66262702  1
  H+  H125  1  0.12890762  0.83650642  0.83867876  1
  H+  H126  1  0.28131509  0.14951690  0.17311903  1
  H+  H127  1  0.12158198  -0.00125042  0.82240259  1
  H+  H128  1  0.38167994  0.52182397  0.83382980  1
  H+  H129  1  0.66443128  0.54488247  1.00090227  1
  H+  H130  1  0.62133309  0.22163235  0.86058862  1
  H+  H131  1  0.51312603  0.63443008  0.36455969  1
  H+  H132  1  0.87827304  0.34906386  0.84562106  1
  H+  H133  1  0.64933956  0.37821186  0.84140420  1
  H+  H134  1  0.40101266  0.82324058  0.90378459  1
  H+  H135  1  0.59526591  0.92030410  0.90004599  1
  H+  H136  1  0.17183561  0.33669330  0.57766806  1
  H+  H137  1  0.33604105  0.15660415  0.69233538  1
  H+  H138  1  0.13357747  0.51836067  0.51292065  1
  H+  H139  1  0.53708713  0.13061057  0.86349117  1
  H+  H140  1  0.72905578  0.34842156  0.66417570  1
  H+  H141  1  0.50283700  0.34875120  0.48937507  1
  H+  H142  1  0.63630944  0.86002823  0.18721528  1
  H+  H143  1  0.56315451  0.65444267  0.00031235  1
  H+  H144  1  0.14278762  0.26765509  0.52487809  1
  H+  H145  1  0.72209195  0.09921525  0.32596354  1
  H+  H146  1  0.37152598  0.23499730  0.17074225  1
  H+  H147  1  0.22551643  0.60687014  0.98838225  1
  H+  H148  1  0.85820489  0.20014313  0.32750299  1
  H+  H149  1  0.62518238  0.77280659  0.50998674  1
  H+  H150  1  0.12066071  0.34155137  -0.00234491  1
  H+  H151  1  0.37300058  0.61763198  0.36367633  1
  H+  H152  1  0.32984704  0.45332187  1.01397193  1
  H+  H153  1  0.47869127  0.61948076  0.16447216  1
  H+  H154  1  0.02840168  0.87089982  0.36318212  1
  H+  H155  1  0.47626700  0.61185233  0.50417485  1
  H+  H156  1  0.61053531  0.72977509  0.16940514  1
  H+  H157  1  0.50226677  0.39608574  -0.01756971  1
  H+  H158  1  0.24166374  0.85513532  0.49460399  1
  H+  H159  1  0.85387597  0.61787952  0.33997184  1
  H+  H160  1  0.49102089  0.10199903  0.32639049  1
  H+  H161  1  0.64274673  0.10855972  0.49567002  1
  H+  H162  1  0.62780724  0.60508695  0.33251742  1
  H+  H163  1  -0.01499217  0.37102432  0.65793057  1
  H+  H164  1  0.23036457  0.37143012  0.66743876  1
  H+  H165  1  0.13203745  1.04400834  0.18834448  1
  H+  H166  1  0.47375706  0.61754294  0.65478910  1
  H+  H167  1  0.64633230  0.54573016  0.66484736  1
  H+  H168  1  0.12976710  0.04025967  0.63325449  1
  H+  H169  1  -0.02237393  0.60041920  0.32785275  1
  H+  H170  1  0.85885482  0.48736149  0.49693536  1
  H+  H171  1  0.43389000  0.31567269  0.83706151  1
  H+  H172  1  0.90556059  0.85334577  0.36601380  1
  H+  H173  1  0.83662495  -0.09142830  0.75791217  1
  H+  H174  1  0.38867786  0.11127511  0.84249348  1
  H+  H175  1  0.22118038  0.86993996  0.65818066  1
  H+  H176  1  0.38260817  0.61839226  0.16166532  1
  H+  H177  1  0.36637138  0.16892640  -0.01126858  1
  H+  H178  1  0.72879760  0.37260127  1.00105003  1
  H+  H179  1  0.37367779  0.75277633  0.32383806  1
  H+  H180  1  0.13569506  0.76104076  0.98715154  1
  H+  H181  1  0.81644450  0.65068530  0.43265871  1
  H+  H182  1  0.18522825  0.82645973  0.55640502  1
  H+  H183  1  0.39083002  0.09563590  0.63339306  1
  H+  H184  1  0.61391297  0.37656742  0.33107569  1
  H+  H185  1  0.99444423  0.10995866  0.51333247  1
  H+  H186  1  0.37213875  0.73111329  -0.00182645  1
  H+  H187  1  0.85703069  0.35072397  0.16535592  1
  H+  H188  1  0.23151807  0.16741778  0.31842649  1
  H+  H189  1  0.62469202  0.88312743  0.82407024  1
  H+  H190  1  0.12568330  0.60935123  0.50386243  1
  H+  H191  1  0.11476855  0.64435649  0.66332785  1
  H+  H192  1  0.60614043  0.97436704  0.66294868  1
  H+  H193  1  0.90315686  0.06761399  0.92233902  1
  H+  H194  1  0.63447237  0.75106804  1.00688956  1
  H+  H195  1  0.11142593  0.62445109  0.00673332  1
  H+  H196  1  0.57765465  0.14428250  0.07326771  1
  H+  H197  1  0.39406124  0.12298106  0.18647175  1
  H+  H198  1  0.39608994  0.38699683  0.17553342  1
  H+  H199  1  0.77739627  0.36989463  0.32886361  1
  H+  H200  1  0.61984227  0.48847669  0.16382549  1
  H+  H201  1  0.84433557  0.21813934  0.13529895  1
  H+  H202  1  0.53028875  0.13272293  0.64941528  1
  H+  H203  1  0.51896530  0.62635109  0.82690558  1
  H+  H204  1  0.91740634  0.57818895  0.89825867  1
  H+  H205  1  0.09422247  0.14234261  0.33689665  1
  H+  H206  1  0.08290154  0.90206046  0.88233417  1
  H+  H207  1  0.18659716  0.26330593  0.30256538  1
  H+  H208  1  0.14341646  0.85298422  0.34890708  1
  H+  H209  1  0.31911666  0.73231779  0.50720235  1
  H+  H210  1  0.39427126  0.89125142  0.67591839  1
  H+  H211  1  0.71517581  0.85776840  0.34035383  1
  H+  H212  1  0.38837182  0.76780377  0.65675942  1
  H+  H213  1  0.77823066  0.87263089  0.81756823  1
  H+  H214  1  0.62940999  0.40492414  0.00503646  1
  H+  H215  1  0.27717877  0.39807210  0.17007980  1
  H+  H216  1  0.15141268  0.53349471  0.30488831  1
  H+  H217  1  0.96122962  0.85438952  0.50549667  1
  H+  H218  1  0.65168841  0.87642550  0.96645546  1
  H+  H219  1  0.72876619  0.11326690  0.16348652  1
  H+  H220  1  0.19797406  0.86041088  0.19639720  1
  H+  H221  1  0.09916095  0.12164440  0.81298813  1
  H+  H222  1  0.31087289  0.67990070  0.38775261  1
  H+  H223  1  0.67195912  0.63670986  0.00758247  1
  H+  H224  1  0.62361711  0.86746191  0.51138934  1
  H+  H225  1  0.62971495  0.51699509  0.32656386  1
  H+  H226  1  0.40377590  0.01635485  0.64846477  1
  H+  H227  1  -0.01991806  0.62250609  0.17566770  1
  H+  H228  1  0.38528994  0.37505201  0.65932487  1
  H+  H229  1  0.52922689  0.41177407  0.67450820  1
  H+  H230  1  0.59886016  0.61054992  0.81975523  1
  H+  H231  1  0.72125434  0.35674208  0.51278500  1
  H+  H232  1  0.85124641  0.97162786  0.25021190  1
  H+  H233  1  0.29806617  0.89940376  0.13418388  1
  H+  H234  1  0.27686015  0.38055078  0.82923502  1
  H+  H235  1  0.39178701  0.51763119  0.50560231  1
  H+  H236  1  0.60617465  0.96922445  0.33979393  1
  H+  H237  1  1.00064345  0.35851176  0.84082377  1
  H+  H238  1  0.77896592  0.64804841  0.16939948  1
  H+  H239  1  0.31755434  0.19911188  0.85517272  1
  H+  H240  1  0.12954689  0.10742098  0.96399442  1
  H+  H241  1  0.40705018  0.31459754  -0.02555650  1
  H+  H242  1  0.13031885  0.34256763  0.84787390  1
  H+  H243  1  0.37900318  0.01797299  0.84580073  1
  H+  H244  1  0.11057869  0.86035026  0.19929953  1
  H+  H245  1  0.01188268  0.38992376  0.15330560  1
  H+  H246  1  0.72562691  0.13044700  0.98042790  1
  H+  H247  1  0.13826949  0.28513863  0.16845725  1
  H+  H248  1  0.61440842  0.21559963  0.48990385  1
  H+  H249  1  0.24721021  0.36295812  0.02389413  1
  H+  H250  1  0.16821805  0.59113112  0.57148501  1
  H+  H251  1  0.97340798  0.61811603  0.50137235  1
  H+  H252  1  0.52364713  0.13018425  0.48023858  1
  H+  H253  1  -0.03174067  0.11564181  0.65625188  1
  H+  H254  1  0.14706114  0.53662510  0.65128042  1
  H+  H255  1  0.86994397  0.88325847  1.00249133  1
  H+  H256  1  0.86403579  0.12679042  0.82194921  1
  H+  H257  1  0.25888219  0.61891785  0.82521690  1
  H+  H258  1  0.41932039  0.88258896  0.98812656  1
  H+  H259  1  0.32603029  0.66077042  0.72952185  1
  H+  H260  1  0.36854729  0.87188206  0.32986835  1
  H+  H261  1  0.88149267  0.61567547  0.50196956  1
  H+  H262  1  0.48428074  0.36952213  0.32090417  1
  H+  H263  1  0.73675215  0.87177048  -0.01325487  1
  H+  H264  1  0.59412674  0.43169062  0.48338156  1
  H+  H265  1  0.28193097  0.38893137  0.34566099  1
  H+  H266  1  0.10664230  0.63843374  0.16157352  1
  H+  H267  1  0.46870318  0.12112784  -0.00176425  1
  H+  H268  1  0.13458666  0.13015726  0.16384393  1
  H+  H269  1  0.88596625  0.98460482  0.47793618  1
  H+  H270  1  0.86951320  0.63969104  0.67286782  1
  H+  H271  1  0.11669462  0.38007285  0.51305537  1
  H+  H272  1  0.17592698  0.14637500  0.25595767  1
  H+  H273  1  0.97305851  0.60967226  0.65540218  1
  H+  H274  1  0.61958278  0.65657790  0.50168439  1
  H+  H275  1  0.72577901  0.86303136  0.65818705  1
  H+  H276  1  0.11319125  0.96108460  0.35560735  1
  H+  H277  1  0.36370607  0.72573229  0.15718160  1
  H+  H278  1  0.86457137  0.21688683  0.82814973  1
  H+  H279  1  0.54257752  0.15408192  0.17035918  1
  H+  H280  1  0.16361408  0.31456162  0.90513674  1
  H+  H281  1  0.86438542  0.25928261  -0.00513277  1
  H+  H282  1  0.34986661  0.12281616  0.48370490  1
  H+  H283  1  0.11045810  0.71342621  0.34480611  1
  H+  H284  1  0.34948441  0.24909685  0.68238860  1
  H+  H285  1  0.11934421  0.71943526  0.48820844  1
  H+  H286  1  0.88307753  0.12452430  0.14355274  1
  H+  H287  1  0.67856637  0.33452391  0.26368456  1
  H+  H288  1  0.57385214  0.39066470  0.39154071  1
  H+  H289  1  0.83527522  0.41028794  0.76883384  1
  H+  H290  1  0.87745077  0.10915586  0.65206080  1
  H+  H291  1  0.52231273  0.88806134  0.49788987  1
  H+  H292  1  0.73049403  0.36567485  0.84072566  1
  H+  H293  1  0.81021189  0.15836120  0.07373786  1
  H+  H294  1  0.09022880  0.19817300  0.09301117  1
  H+  H295  1  0.17111734  0.59557333  0.22330873  1
  H+  H296  1  0.65597591  0.83346758  0.57585825  1
  H+  H297  1  0.91341138  0.83081210  0.26520138  1
  H+  H298  1  0.83156231  0.65427683  0.76702886  1
  H+  H299  1  0.66403231  0.58853749  0.23415002  1
  H+  H300  1  0.61907089  0.39889628  0.16307410  1
  H+  H301  1  0.33076712  0.19614225  0.78220992  1
  H+  H302  1  0.41259664  0.33244655  0.60537110  1
  H+  H303  1  0.38289509  0.94488139  0.09626234  1
  H+  H304  1  0.42769862  0.35751695  0.24582573  1
  H+  H305  1  0.63071138  0.24078313  0.65975055  1
  H+  H306  1  0.57225773  0.66278616  0.73139688  1
  H+  H307  1  0.87935385  0.00671027  0.83009130  1
  H+  H308  1  0.32462944  0.41789870  0.10497623  1
  H+  H309  1  0.91942566  0.58658858  0.24098271  1
  H+  H310  1  0.41402240  0.82331589  0.23431279  1
  H+  H311  1  0.09626388  0.41263028  0.45322527  1
  H+  H312  1  0.64575319  0.75671314  0.83133064  1
  H+  H313  1  0.92001311  0.07861132  0.56140908  1
  H+  H314  1  0.57638652  0.91292916  0.40135247  1
  H+  H315  1  0.64173866  0.10362093  0.81967246  1
  H+  H316  1  0.11468818  0.62754585  0.33540468  1
  H+  H317  1  0.87904036  0.84412430  0.83131975  1
  H+  H318  1  0.84235832  0.91322762  0.06293183  1
  H+  H319  1  0.42569571  0.07659685  0.26397518  1
  H+  H320  1  0.89070619  0.50893740  0.32010011  1
  H+  H321  1  0.90128583  0.31917672  0.90926894  1
  H+  H322  1  0.16409954  0.08502541  0.90351128  1
  H+  H323  1  0.67997553  0.82086014  0.88814273  1
  H+  H324  1  0.76664243  0.62362922  0.33662195  1
  H+  H325  1  0.58935587  0.16267942  0.39171322  1
  H+  H326  1  0.16601645  0.80837957  0.89538695  1
  H+  H327  1  0.88459838  0.33706810  0.30429370  1
  H+  H328  1  0.58937209  0.68041565  0.10504913  1
  H+  H329  1  0.83367168  0.15327948  0.39282216  1
  H+  H330  1  0.05511529  0.09872620  0.04076341  1
  H+  H331  1  0.02797621  0.89459580  0.62961812  1
  H+  H332  1  0.04438668  0.35195541  0.78118620  1
  H+  H333  1  0.01211733  0.86190754  0.83263582  1
  H+  H334  1  0.83477859  0.16346119  0.72787429  1
  H+  H335  1  0.04497737  0.12741296  0.39922393  1
  H+  H336  1  0.58842173  0.67898915  0.43902401  1
  H+  H337  1  0.15487858  0.82100750  0.28450785  1
  H+  H338  1  0.10433584  0.92775347  0.45314287  1
  H+  H339  1  0.88962379  0.75799253  0.34939942  1
  H+  H340  1  0.07070980  0.95047007  0.06681835  1
  H+  H341  1  0.33802483  0.67330057  0.05828239  1
  H+  H342  1  0.06832518  0.17155518  0.73195428  1
  H+  H343  1  0.90609405  0.82258319  0.92873907  1
  H+  H344  1  0.07732280  0.40949260  0.06397894  1
  H+  H345  1  0.59332643  0.43213179  0.06253561  1
  H+  H346  1  0.85809658  0.68437800  0.07277247  1
  H+  H347  1  0.64636682  1.01068239  0.06229908  1
  H+  H348  1  0.72813984  0.10455987  0.80464839  1
  H+  H349  1  0.66076969  0.28687833  0.16946372  1
  H+  H350  1  0.68389195  0.61374550  0.60998413  1
  H+  H351  1  0.92138669  0.33652995  0.60086428  1
  H+  H352  1  0.13974942  0.85023263  0.97246600  1
  H+  H353  1  0.41299934  0.58725826  0.59509785  1
  H+  H354  1  0.66727968  0.32084637  0.60321018  1
  H+  H355  1  0.11702429  0.96081704  0.06937087  1
  H+  H356  1  0.38284446  0.34864871  0.50780031  1
  H+  H357  1  0.78537135  0.64919743  0.67716702  1
  H+  H358  1  0.84890211  0.38482591  0.37874695  1
  H+  H359  1  0.91153065  0.58234656  0.59764208  1
  H+  H360  1  0.16514426  0.33160207  0.23221558  1
  H+  H361  1  0.45055477  0.37563458  0.89753135  1
  H+  H362  1  0.77897152  0.90453276  0.20455013  1
  H+  H363  1  0.33506963  0.42495074  0.73300056  1
  H+  H364  1  0.40590369  0.57585187  0.89451477  1
  H+  H365  1  0.94456524  0.07426917  0.32268324  1
  H+  H366  1  0.67411893  0.34840851  0.93969709  1
  H+  H367  1  0.59935737  0.99509358  0.05849948  1
  H+  H368  1  0.10159382  0.39159140  0.16217570  1
  H+  H369  1  0.41238102  0.09222820  0.93790095  1
  H+  H370  1  0.86352620  0.88692885  0.66374976  1
  H+  H371  1  0.15415102  0.14555991  0.50159430  1
  H+  H372  1  0.67396224  0.08316143  0.59187091  1
  H+  H373  1  0.33211230  0.90928739  0.77198395  1
  H+  H374  1  0.80463988  0.43234296  0.44139267  1
  H+  H375  1  0.07877628  0.65435263  0.76078056  1
  H+  H376  1  0.87627615  0.01580051  0.98566190  1
  H+  H377  1  0.08249779  0.65315085  0.43133892  1
  H+  H378  1  0.08115264  0.40890828  0.35183477  1
  H+  H379  1  0.89673296  0.31284767  0.21146335  1
  H+  H380  1  0.41540605  0.07403494  0.54271912  1
  H+  H381  1  0.30939797  0.15955815  0.39192129  1
  H+  H382  1  0.34424082  0.91139918  0.42139307  1
  H+  H383  1  0.65593390  0.12700856  0.92706394  1
  O2-  O384  1  0.08548214  0.18684759  0.13667757  1
  O2-  O385  1  0.11295542  0.15646234  0.52430324  1
  O2-  O386  1  0.07030831  0.15625456  0.80765179  1
  O2-  O387  1  0.07457826  0.42274616  0.14390469  1
  O2-  O388  1  0.08943389  0.41449341  0.49701381  1
  O2-  O389  1  0.05996485  0.38182116  0.82012342  1
  O2-  O390  1  0.07077089  0.66502165  0.14883560  1
  O2-  O391  1  0.08330726  0.65676325  0.47729723  1
  O2-  O392  1  0.07960969  0.64800112  0.80563093  1
  O2-  O393  1  0.07278989  0.92519175  0.18680494  1
  O2-  O394  1  0.12552437  0.93673640  0.49592790  1
  O2-  O395  1  0.07624864  0.89524941  0.83656718  1
  O2-  O396  1  0.34357891  0.17245364  0.16717774  1
  O2-  O397  1  0.31681873  0.15288210  0.47143540  1
  O2-  O398  1  0.34504790  0.18342194  0.82333588  1
  O2-  O399  1  0.33688545  0.42810351  0.15243240  1
  O2-  O400  1  0.33444143  0.40398489  0.48620997  1
  O2-  O401  1  0.33421419  0.41748162  0.81059294  1
  O2-  O402  1  0.33434168  0.66605778  0.13938136  1
  O2-  O403  1  0.38000496  0.75386214  0.49853667  1
  O2-  O404  1  0.31994260  0.65784676  0.81193980  1
  O2-  O405  1  0.36000798  0.93234978  0.14016670  1
  O2-  O406  1  0.34108527  0.91699130  0.46663416  1
  O2-  O407  1  0.32310653  0.90406578  0.81645682  1
  O2-  O408  1  0.60128075  0.18163329  0.15328456  1
  O2-  O409  1  0.58598762  0.15868977  0.46913810  1
  O2-  O410  1  0.60021693  0.15936537  0.86493158  1
  O2-  O411  1  0.58525443  0.42644897  0.15129401  1
  O2-  O412  1  0.56264635  0.37178455  0.47080338  1
  O2-  O413  1  0.61310846  0.45772987  0.81163683  1
  O2-  O414  1  0.57887283  0.67093565  0.14981000  1
  O2-  O415  1  0.58661618  0.68326507  0.48493849  1
  O2-  O416  1  0.57767127  0.65039396  0.80921743  1
  O2-  O417  1  0.58520596  0.91200907  0.16152768  1
  O2-  O418  1  0.58239706  0.91345140  0.48167083  1
  O2-  O419  1  0.58993826  0.91020908  0.83271282  1
  O2-  O420  1  0.81476411  0.15702028  0.12293103  1
  O2-  O421  1  0.84121221  0.16144204  0.47237231  1
  O2-  O422  1  0.84130316  0.16275543  0.80417251  1
  O2-  O423  1  0.77830780  0.39159296  0.16537910  1
  O2-  O424  1  0.82393353  0.42582545  0.48149290  1
  O2-  O425  1  0.83557547  0.40850556  0.81391168  1
  O2-  O426  1  0.84229173  0.67959061  0.16119589  1
  O2-  O427  1  0.81736075  0.65302689  0.47825772  1
  O2-  O428  1  0.82008329  0.64459531  0.81169465  1
  O2-  O429  1  0.84219956  0.94132631  0.21048801  1
  O2-  O430  1  0.85435123  0.92584851  0.45828162  1
  O2-  O431  1  0.83973603  0.90667484  0.80320090  1
  O2-  O432  1  0.16690149  0.10744768  0.18692309  1
  O2-  O433  1  0.23721698  0.11037805  0.50728879  1
  O2-  O434  1  0.15175284  0.06386269  0.82423461  1
  O2-  O435  1  0.16869557  0.34356121  0.18824293  1
  O2-  O436  1  0.16764616  0.33062027  0.53198160  1
  O2-  O437  1  0.16490741  0.31569875  0.85962906  1
  O2-  O438  1  0.16618766  0.59367280  0.17743762  1
  O2-  O439  1  0.15919499  0.58147545  0.52317030  1
  O2-  O440  1  0.15485071  0.56118704  0.85014610  1
  O2-  O441  1  0.13773296  0.82334647  0.20694326  1
  O2-  O442  1  0.18138230  0.82302270  0.51123296  1
  O2-  O443  1  0.16392597  0.80885700  0.84847592  1
  O2-  O444  1  0.42677925  0.09215821  0.19759939  1
  O2-  O445  1  0.41371778  0.08145865  0.49812991  1
  O2-  O446  1  0.41372814  0.07805700  0.85996147  1
  O2-  O447  1  0.42944541  0.35984393  0.19324164  1
  O2-  O448  1  0.41112428  0.31547006  0.52211469  1
  O2-  O449  1  0.45111438  0.37481240  0.84858527  1
  O2-  O450  1  0.41449139  0.58694004  0.17587161  1
  O2-  O451  1  0.41361111  0.57975688  0.51281399  1
  O2-  O452  1  0.41104704  0.58240123  0.84959803  1
  O2-  O453  1  0.41867966  0.82642141  0.18791580  1
  O2-  O454  1  0.42026032  0.84237014  0.52304973  1
  O2-  O455  1  0.38361679  0.81197942  0.85752393  1
  O2-  O456  1  0.67291263  0.08767354  0.18806564  1
  O2-  O457  1  0.67240144  0.07867970  0.51265388  1
  O2-  O458  1  0.66529758  0.07215824  0.79745832  1
  O2-  O459  1  0.68704033  0.34872697  0.18445943  1
  O2-  O460  1  0.66197375  0.31655879  0.52758010  1
  O2-  O461  1  0.67101062  0.34126284  0.85712134  1
  O2-  O462  1  0.66936777  0.59187297  0.18885796  1
  O2-  O463  1  0.66894154  0.60676953  0.53090377  1
  O2-  O464  1  0.64972809  0.54544778  0.83665343  1
  O2-  O465  1  0.66490500  0.82759993  0.20176714  1
  O2-  O466  1  0.65284521  0.83425089  0.52847539  1
  O2-  O467  1  0.68043043  0.81842724  0.84304513  1
  O2-  O468  1  0.92577431  0.10812572  0.15903687  1
  O2-  O469  1  0.93116752  0.08259111  0.51628333  1
  O2-  O470  1  0.90547689  0.06619055  0.84795023  1
  O2-  O471  1  0.89725217  0.32826228  0.16793546  1
  O2-  O472  1  0.91217368  0.33114554  0.52011540  1
  O2-  O473  1  0.90621835  0.31766940  0.86302910  1
  O2-  O474  1  0.91929179  0.59701058  0.19481264  1
  O2-  O475  1  0.91376347  0.58719580  0.51755426  1
  O2-  O476  1  0.91480990  0.57473861  0.85273240  1
  O2-  O477  1  0.91190078  0.83908100  0.22027183  1
  O2-  O478  1  0.89977050  0.82046581  0.51431995  1
  O2-  O479  1  0.90375314  0.81136688  0.85157705  1
  O2-  O480  1  0.18394293  0.17266380  0.29748410  1
  O2-  O481  1  0.15042819  0.10309549  0.63493383  1
  O2-  O482  1  0.16801995  0.08681472  0.94862200  1
  O2-  O483  1  0.17146275  0.30917250  0.31492234  1
  O2-  O484  1  0.16915087  0.34426436  0.65225446  1
  O2-  O485  1  0.15245901  0.31129399  0.98454432  1
  O2-  O486  1  0.17619726  0.59557101  0.29892290  1
  O2-  O487  1  0.17551358  0.59721659  0.63521453  1
  O2-  O488  1  0.16397044  0.57218772  0.97707946  1
  O2-  O489  1  0.16891682  0.82139558  0.32834418  1
  O2-  O490  1  0.16865168  0.83635077  0.63477509  1
  O2-  O491  1  0.16968480  0.81711671  0.96613948  1
  O2-  O492  1  0.42847021  0.06781719  0.31090734  1
  O2-  O493  1  0.42359604  0.06824597  0.62147805  1
  O2-  O494  1  0.40898214  0.09705360  0.98278346  1
  O2-  O495  1  0.42468736  0.34943077  0.30357546  1
  O2-  O496  1  0.41298939  0.33979003  0.65013857  1
  O2-  O497  1  0.44560839  0.37556339  0.96197553  1
  O2-  O498  1  0.40396717  0.58632570  0.37995777  1
  O2-  O499  1  0.41242031  0.58742960  0.64051330  1
  O2-  O500  1  0.38502024  0.55885408  0.97370370  1
  O2-  O501  1  0.40928706  0.81878535  0.30687449  1
  O2-  O502  1  0.41819974  0.82742941  0.63980021  1
  O2-  O503  1  0.43204243  0.84092503  0.96680468  1
  O2-  O504  1  0.66166988  0.07269523  0.31019044  1
  O2-  O505  1  0.66850957  0.08262495  0.63700435  1
  O2-  O506  1  0.66141899  0.09911045  0.96398402  1
  O2-  O507  1  0.67533072  0.33029612  0.30914291  1
  O2-  O508  1  0.66765496  0.31412894  0.64862982  1
  O2-  O509  1  0.66979765  0.34980842  0.98447472  1
  O2-  O510  1  0.65904333  0.57810867  0.31349001  1
  O2-  O511  1  0.68149766  0.60959849  0.65486063  1
  O2-  O512  1  0.70160354  0.60758724  0.99147838  1
  O2-  O513  1  0.65641747  0.82660613  0.32501629  1
  O2-  O514  1  0.66412383  0.83360887  0.64409135  1
  O2-  O515  1  0.67845149  0.83860057  0.96849838  1
  O2-  O516  1  0.88208769  0.03233938  0.31761059  1
  O2-  O517  1  0.90983931  0.08018338  0.63798929  1
  O2-  O518  1  0.90715282  0.07435126  0.96794605  1
  O2-  O519  1  0.90765361  0.30065205  0.28866191  1
  O2-  O520  1  0.92362730  0.33803206  0.64607736  1
  O2-  O521  1  0.89979637  0.32471984  0.98206251  1
  O2-  O522  1  0.91735144  0.57145457  0.31069806  1
  O2-  O523  1  0.91142185  0.57823201  0.64275644  1
  O2-  O524  1  0.91628932  0.57974504  0.97708842  1
  O2-  O525  1  0.92672381  0.82095418  0.34136680  1
  O2-  O526  1  0.91896074  0.83406874  0.63999382  1
  O2-  O527  1  0.91807606  0.83553501  0.97331968  1
  O2-  O528  1  0.06155892  0.13446022  0.00558636  1
  O2-  O529  1  0.04506881  0.14450081  0.35717454  1
  O2-  O530  1  0.07085230  0.17936656  0.68662832  1
  O2-  O531  1  0.07772119  0.40266497  0.01906805  1
  O2-  O532  1  0.08643874  0.40716847  0.30789407  1
  O2-  O533  1  0.09920544  0.43708950  0.67927180  1
  O2-  O534  1  0.08153688  0.65629051  0.01916678  1
  O2-  O535  1  0.07931644  0.65063102  0.35507275  1
  O2-  O536  1  0.07998413  0.66865623  0.67971461  1
  O2-  O537  1  0.09047249  0.91274696  -0.04406999  1
  O2-  O538  1  0.09072268  0.90565001  0.37587560  1
  O2-  O539  1  0.09042615  0.92934157  0.61813055  1
  O2-  O540  1  0.34036829  0.20563467  -0.01757494  1
  O2-  O541  1  0.31245862  0.16660741  0.34711550  1
  O2-  O542  1  0.31003492  0.19119336  0.70248236  1
  O2-  O543  1  0.30571845  0.40252612  0.04061954  1
  O2-  O544  1  0.34160789  0.41811991  0.36110912  1
  O2-  O545  1  0.33232505  0.42439912  0.68744843  1
  O2-  O546  1  0.33801413  0.67091904  0.01302265  1
  O2-  O547  1  0.32359004  0.66870793  0.34679386  1
  O2-  O548  1  0.32884564  0.66448052  0.68426714  1
  O2-  O549  1  0.41574040  0.96329034  0.02942923  1
  O2-  O550  1  0.34409645  0.90982621  0.34515962  1
  O2-  O551  1  0.39345080  0.93994076  0.69914384  1
  O2-  O552  1  0.55413599  0.11429540  0.03430257  1
  O2-  O553  1  0.58710757  0.16109141  0.34602754  1
  O2-  O554  1  0.58711035  0.16136243  0.66999645  1
  O2-  O555  1  0.60073254  0.43954486  0.01829772  1
  O2-  O556  1  0.58065163  0.40345824  0.34718191  1
  O2-  O557  1  0.59058230  0.44705368  0.68508180  1
  O2-  O558  1  0.60846666  0.69282471  0.02787452  1
  O2-  O559  1  0.57734560  0.66070628  0.36572615  1
  O2-  O560  1  0.57548402  0.66938833  0.68610603  1
  O2-  O561  1  0.59702109  0.92562746  -0.05253650  1
  O2-  O562  1  0.57625040  0.90913687  0.35614730  1
  O2-  O563  1  0.57246541  0.91349082  0.67622648  1
  O2-  O564  1  0.81011581  0.16677444  0.00938579  1
  O2-  O565  1  0.82570286  0.14327717  0.34803336  1
  O2-  O566  1  0.83146744  0.16445105  0.68220591  1
  O2-  O567  1  0.83016876  0.41756081  0.03586194  1
  O2-  O568  1  0.84153937  0.39824573  0.33701821  1
  O2-  O569  1  0.82947590  0.41024638  0.68603674  1
  O2-  O570  1  0.85844123  0.68254484  0.02807982  1
  O2-  O571  1  0.82501367  0.64890931  0.35555998  1
  O2-  O572  1  0.84687118  0.67569853  0.69056330  1
  O2-  O573  1  0.83869711  0.91327343  0.01878568  1
  O2-  O574  1  0.90380803  0.93814855  0.40217117  1
  O2-  O575  1  0.83051767  0.91413576  0.67928915  1
