# generated using pymatgen
data_H2O
_symmetry_space_group_name_H-M   'P 1'
_cell_length_a   17.99464726
_cell_length_b   17.99040378
_cell_length_c   22.00456882
_cell_angle_alpha   89.98245638
_cell_angle_beta   89.95687796
_cell_angle_gamma   120.03476288
_symmetry_Int_Tables_number   1
_chemical_formula_structural   H2O
_chemical_formula_sum   'H384 O192'
_cell_volume   6167.01845292
_cell_formula_units_Z   192
loop_
 _symmetry_equiv_pos_site_id
 _symmetry_equiv_pos_as_xyz
  1  'x, y, z'
loop_
 _atom_type_symbol
 _atom_type_oxidation_number
  H+  1.0
  O2-  -2.0
loop_
 _atom_site_type_symbol
 _atom_site_label
 _atom_site_symmetry_multiplicity
 _atom_site_fract_x
 _atom_site_fract_y
 _atom_site_fract_z
 _atom_site_occupancy
  H+  H0  1  0.77254830  0.38091718  0.00512011  1
  H+  H1  1  0.54598944  0.11601540  0.81075582  1
  H+  H2  1  0.62027162  0.51754207  0.65680741  1
  H+  H3  1  0.85438563  0.16925330  0.06582536  1
  H+  H4  1  0.40271073  0.18456608  0.99847583  1
  H+  H5  1  0.09693176  0.51957039  0.31942642  1
  H+  H6  1  0.63881331  0.23807497  0.32793849  1
  H+  H7  1  0.47173618  0.86824052  0.65133583  1
  H+  H8  1  0.51547790  0.11668783  0.55425431  1
  H+  H9  1  1.00966992  0.38042485  0.81509181  1
  H+  H10  1  0.85460760  0.29000675  0.83163718  1
  H+  H11  1  1.00247367  0.62389105  1.00289021  1
  H+  H12  1  0.64760393  0.11398221  0.32316538  1
  H+  H13  1  0.24049257  0.88823117  0.34140524  1
  H+  H14  1  0.14744378  0.57531448  0.22428210  1
  H+  H15  1  0.42762857  0.99429770  0.01799839  1
  H+  H16  1  0.49042442  0.42576521  0.63530369  1
  H+  H17  1  0.90850785  0.05248986  0.90208598  1
  H+  H18  1  0.57564560  0.91480044  0.72071006  1
  H+  H19  1  0.11656088  0.62894467  0.15214083  1
  H+  H20  1  0.25276418  0.38211502  0.35849058  1
  H+  H21  1  0.43613886  0.32265015  0.64971220  1
  H+  H22  1  0.63979855  0.76535664  0.98957138  1
  H+  H23  1  1.00478256  0.12565451  0.50211975  1
  H+  H24  1  0.40676767  0.64778956  0.18295431  1
  H+  H25  1  0.64425261  0.40924019  0.49964757  1
  H+  H26  1  0.32671521  0.37155162  0.32483501  1
  H+  H27  1  0.63335883  0.61007012  0.32508387  1
  H+  H28  1  0.22504162  0.62220624  0.98870183  1
  H+  H29  1  0.87085247  0.52086125  0.98802338  1
  H+  H30  1  0.85136808  0.79226236  0.82483243  1
  H+  H31  1  0.65806144  0.11760026  0.82954446  1
  H+  H32  1  0.86406172  0.22449992  0.67196272  1
  H+  H33  1  0.51911506  0.62366127  0.35336240  1
  H+  H34  1  0.45920095  0.62600652  0.69039101  1
  H+  H35  1  0.87929805  0.36090786  0.64776853  1
  H+  H36  1  0.38346053  0.60549165  0.48919292  1
  H+  H37  1  0.61884032  -0.02176702  0.81561511  1
  H+  H38  1  0.85502274  0.73650678  0.01008369  1
  H+  H39  1  0.10950597  0.01053827  0.53525030  1
  H+  H40  1  0.63025581  0.23594345  0.66998338  1
  H+  H41  1  0.62742177  0.09187259  0.51286508  1
  H+  H42  1  0.37892464  0.75552875  0.99223372  1
  H+  H43  1  0.26852152  0.39022438  0.66167993  1
  H+  H44  1  0.39333320  0.86597696  0.17680306  1
  H+  H45  1  0.38392331  0.53928104  0.83238822  1
  H+  H46  1  0.37509722  0.90501739  0.35146685  1
  H+  H47  1  0.27087495  0.40220133  0.81855296  1
  H+  H48  1  0.02780316  0.64838460  0.82298620  1
  H+  H49  1  0.63735190  0.60197403  0.16398881  1
  H+  H50  1  0.08604281  0.36369464  0.37434275  1
  H+  H51  1  0.52278012  0.65033045  0.83495556  1
  H+  H52  1  0.00998594  0.85471739  0.70080713  1
  H+  H53  1  0.42738330  0.08103849  0.23286946  1
  H+  H54  1  0.38540541  0.22424370  0.47662167  1
  H+  H55  1  0.10130553  0.38397114  0.65769945  1
  H+  H56  1  0.81081923  0.13351118  0.00199792  1
  H+  H57  1  -0.01794139  0.37479427  0.51256666  1
  H+  H58  1  0.36182213  0.12629262  0.46703953  1
  H+  H59  1  0.73584197  0.37641766  0.15897529  1
  H+  H60  1  0.89120633  0.11031083  0.17063016  1
  H+  H61  1  0.77593139  0.38367391  0.64557140  1
  H+  H62  1  0.86545807  0.47111719  0.15037675  1
  H+  H63  1  1.03244795  0.66534693  0.34992576  1
  H+  H64  1  0.44004955  0.14012844  0.62569714  1
  H+  H65  1  0.88500442  0.85772574  0.17794313  1
  H+  H66  1  0.38015921  0.52868632  0.98498643  1
  H+  H67  1  0.78392330  0.89958287  0.75000786  1
  H+  H68  1  0.99491188  0.62918317  0.50466286  1
  H+  H69  1  0.10250586  0.60983393  0.31739290  1
  H+  H70  1  0.40817286  0.04294829  0.32819940  1
  H+  H71  1  0.86695299  0.47268267  0.65031848  1
  H+  H72  1  0.10439409  0.47497966  0.66175232  1
  H+  H73  1  0.14043930  -0.03175853  0.63884253  1
  H+  H74  1  0.65722189  0.37924990  0.65369545  1
  H+  H75  1  0.27699395  0.64599176  0.50172609  1
  H+  H76  1  0.12797931  0.34817118  0.98390011  1
  H+  H77  1  0.36291364  0.73161980  0.16365301  1
  H+  H78  1  0.35651879  0.63147778  1.00695067  1
  H+  H79  1  0.27642196  0.63869489  0.16425824  1
  H+  H80  1  0.11891409  0.83044351  0.67536329  1
  H+  H81  1  0.14010948  0.89294100  0.84082810  1
  H+  H82  1  0.36622029  0.38312704  0.14603923  1
  H+  H83  1  0.77215577  0.64461411  0.33887889  1
  H+  H84  1  0.40985973  0.24628490  0.05456151  1
  H+  H85  1  0.44193352  0.05389905  0.48081941  1
  H+  H86  1  -0.00440054  0.10213369  -0.01450858  1
  H+  H87  1  0.05154495  0.05356360  0.68842635  1
  H+  H88  1  0.86574837  0.72196834  0.49892171  1
  H+  H89  1  0.35687456  0.89685518  0.67281159  1
  H+  H90  1  0.46969215  0.60093793  0.49079564  1
  H+  H91  1  0.62282635  0.71522415  0.50375301  1
  H+  H92  1  0.60989374  0.48912513  0.81903349  1
  H+  H93  1  -0.00794877  0.33543039  0.39307828  1
  H+  H94  1  0.64512437  0.77063547  0.15695434  1
  H+  H95  1  0.40206701  0.88042577  0.84208390  1
  H+  H96  1  0.48684554  0.85764337  0.50717034  1
  H+  H97  1  0.84065408  0.43490310  0.38858058  1
  H+  H98  1  0.65205779  0.27235704  0.84708911  1
  H+  H99  1  0.63464360  0.49361497  0.33649925  1
  H+  H100  1  0.14871015  0.08060063  0.27151362  1
  H+  H101  1  0.50505368  0.13838827  0.00255529  1
  H+  H102  1  0.77663955  0.13652532  0.33644800  1
  H+  H103  1  0.63876241  0.37499809  0.15851742  1
  H+  H104  1  0.37103467  0.47432414  0.14881583  1
  H+  H105  1  0.64447516  0.10353482  0.16755103  1
  H+  H106  1  0.10733318  0.13470701  0.34738026  1
  H+  H107  1  0.86065990  0.73530001  0.34557031  1
  H+  H108  1  0.26289075  0.15392490  0.99124842  1
  H+  H109  1  0.87603157  0.50039428  0.33273524  1
  H+  H110  1  0.88281498  0.76695556  0.18243132  1
  H+  H111  1  0.59623957  0.95305507  -0.00429704  1
  H+  H112  1  0.12221936  0.74572632  0.99391045  1
  H+  H113  1  0.88184947  0.10239416  0.66321004  1
  H+  H114  1  -0.02826460  0.36034305  0.65270254  1
  H+  H115  1  0.11821724  0.21858790  -0.00697261  1
  H+  H116  1  0.57667404  0.38567018  -0.02274980  1
  H+  H117  1  0.86716195  0.62803087  0.16399635  1
  H+  H118  1  0.48071776  0.15236769  0.85363286  1
  H+  H119  1  0.89848056  0.20425649  0.83117708  1
  H+  H120  1  0.36637434  0.64511802  0.35245392  1
  H+  H121  1  0.71122533  0.85432192  0.66550873  1
  H+  H122  1  0.12287774  0.26699792  0.37907877  1
  H+  H123  1  0.35654562  0.25664932  0.30647620  1
  H+  H124  1  0.38378888  0.62811360  0.83430675  1
  H+  H125  1  0.83479383  0.96310674  0.69327407  1
  H+  H126  1  0.53481374  0.63984816  0.15571600  1
  H+  H127  1  0.86975618  0.97086560  0.00615153  1
  H+  H128  1  0.95455247  0.07413249  0.65170100  1
  H+  H129  1  0.86725640  0.60753067  0.99328383  1
  H+  H130  1  0.98302807  0.60808600  0.65573455  1
  H+  H131  1  -0.02889949  0.85986905  0.51090620  1
  H+  H132  1  0.09528574  0.85642195  0.00822077  1
  H+  H133  1  0.36228513  0.40055969  0.66105615  1
  H+  H134  1  0.23918980  0.12596011  0.83030772  1
  H+  H135  1  0.10975190  0.22209266  0.13825713  1
  H+  H136  1  0.51569605  0.86037017  0.00141028  1
  H+  H137  1  0.15193847  0.63284667  0.51521516  1
  H+  H138  1  0.79279333  0.64429564  0.64476671  1
  H+  H139  1  0.13411876  0.13765931  -0.00288255  1
  H+  H140  1  0.86033579  -0.02484443  0.33782788  1
  H+  H141  1  0.33755159  0.17308649  0.38079091  1
  H+  H142  1  0.36762915  0.97665652  0.16566614  1
  H+  H143  1  0.11883285  0.10494281  0.17288211  1
  H+  H144  1  0.90111115  0.62259577  0.50414540  1
  H+  H145  1  0.12987345  0.02794447  0.33490766  1
  H+  H146  1  0.12021197  0.89616671  0.50992003  1
  H+  H147  1  0.88799786  0.63582413  0.33533575  1
  H+  H148  1  0.87685308  0.86231779  0.69044813  1
  H+  H149  1  0.01669565  0.13235315  0.34495668  1
  H+  H150  1  0.38773301  0.76237368  0.50628674  1
  H+  H151  1  0.36435861  0.40304245  0.98772532  1
  H+  H152  1  0.48013241  0.86178731  0.17532887  1
  H+  H153  1  0.37707544  0.78386271  0.65465092  1
  H+  H154  1  0.16363856  0.33026790  0.20394811  1
  H+  H155  1  0.21667085  0.84986830  0.67017049  1
  H+  H156  1  0.87971244  0.38684420  0.83829565  1
  H+  H157  1  0.75156511  0.38686863  0.31035859  1
  H+  H158  1  0.77733650  0.88388847  0.00868463  1
  H+  H159  1  0.68087143  0.08800041  0.98729160  1
  H+  H160  1  0.21537260  0.16497481  0.66385311  1
  H+  H161  1  0.26308798  0.65462729  0.67418520  1
  H+  H162  1  0.36321925  0.21520530  0.14937610  1
  H+  H163  1  -0.03563875  0.84282667  -0.00995567  1
  H+  H164  1  0.47348508  0.35588316  0.15648358  1
  H+  H165  1  0.87575725  0.49373332  0.47918783  1
  H+  H166  1  0.86022491  0.22884512  0.33200610  1
  H+  H167  1  0.36730036  0.73414199  0.35012702  1
  H+  H168  1  0.70424522  0.86241849  0.90667041  1
  H+  H169  1  0.72487710  0.59937253  0.17115223  1
  H+  H170  1  0.20571735  0.77276086  0.22606662  1
  H+  H171  1  0.77755727  0.40433367  0.83627276  1
  H+  H172  1  0.61189090  0.87717014  0.15418142  1
  H+  H173  1  0.61235753  0.87803654  0.35019436  1
  H+  H174  1  0.33212177  0.42104678  0.05114474  1
  H+  H175  1  0.63546593  0.84826928  0.50685091  1
  H+  H176  1  0.74258269  0.10818253  0.83855621  1
  H+  H177  1  0.22052757  0.35653043  -0.01751686  1
  H+  H178  1  0.73168286  0.10650588  0.66011187  1
  H+  H179  1  0.21291701  0.13709167  0.59707654  1
  H+  H180  1  0.37657318  0.99512214  0.83513534  1
  H+  H181  1  0.87127198  0.63190535  0.66279465  1
  H+  H182  1  0.88481193  0.37598361  0.31231934  1
  H+  H183  1  0.22826753  0.36614785  0.14901471  1
  H+  H184  1  0.96570550  0.36362754  0.31375620  1
  H+  H185  1  0.38108809  0.37744918  0.81987142  1
  H+  H186  1  0.63708815  0.85267008  0.99393742  1
  H+  H187  1  0.52731425  0.89095089  0.82030015  1
  H+  H188  1  0.11568681  0.90150430  0.35452354  1
  H+  H189  1  0.84231056  0.16564176  0.73221991  1
  H+  H190  1  0.39862299  0.36062476  0.49272194  1
  H+  H191  1  0.11402776  0.71627394  0.15513297  1
  H+  H192  1  0.87101275  -0.02512487  0.16194245  1
  H+  H193  1  0.11766166  0.71348532  0.67177453  1
  H+  H194  1  0.85524264  0.97344688  0.49579419  1
  H+  H195  1  0.15568937  0.77455292  0.83780078  1
  H+  H196  1  0.35001762  0.19468794  0.65003342  1
  H+  H197  1  0.66108326  0.38143548  0.31662610  1
  H+  H198  1  0.61769630  0.56040936  0.50014363  1
  H+  H199  1  0.39444927  0.85194577  0.99319199  1
  H+  H200  1  0.89124782  0.63606578  0.83306108  1
  H+  H201  1  0.23480009  0.33974206  0.50080424  1
  H+  H202  1  0.29340189  0.89991021  0.83598987  1
  H+  H203  1  0.63664179  0.62079293  0.84213268  1
  H+  H204  1  0.21114259  0.82833006  1.00789132  1
  H+  H205  1  -0.00969191  0.60208864  0.17274434  1
  H+  H206  1  0.61709654  0.96676544  0.49832723  1
  H+  H207  1  0.89237876  0.27181768  0.50643078  1
  H+  H208  1  0.20313713  0.10564358  0.93467556  1
  H+  H209  1  0.72148661  0.50693704  0.70396257  1
  H+  H210  1  1.02255825  0.38135990  0.99113078  1
  H+  H211  1  0.34210745  0.94127256  -0.01519051  1
  H+  H212  1  0.23632662  0.63800706  0.83520085  1
  H+  H213  1  1.02331151  0.89388755  0.35357229  1
  H+  H214  1  0.24158647  0.85111939  0.18171681  1
  H+  H215  1  0.62949832  0.26156591  1.00510715  1
  H+  H216  1  0.16740334  0.33621731  0.88659678  1
  H+  H217  1  0.83550568  0.17085778  0.43249503  1
  H+  H218  1  0.52075677  0.40370688  0.80424036  1
  H+  H219  1  0.36167015  0.46202383  0.48175420  1
  H+  H220  1  0.13142149  0.61513944  -0.01476516  1
  H+  H221  1  0.58500260  0.64650181  0.40920767  1
  H+  H222  1  0.55532641  0.39890243  0.34725051  1
  H+  H223  1  0.63662586  0.32182864  0.48112314  1
  H+  H224  1  0.13677407  0.75212582  0.50128214  1
  H+  H225  1  0.18749833  0.99358419  0.64582298  1
  H+  H226  1  0.60323938  0.88103555  0.66273807  1
  H+  H227  1  0.24065000  0.89993762  0.52666936  1
  H+  H228  1  0.86600050  0.22219044  0.15403857  1
  H+  H229  1  0.12618071  0.74800666  0.34791197  1
  H+  H230  1  0.63299106  0.76447450  0.34777113  1
  H+  H231  1  0.60437715  0.56424877  0.59899796  1
  H+  H232  1  0.62349919  0.76531985  0.66209346  1
  H+  H233  1  0.64196835  0.35651335  1.01205068  1
  H+  H234  1  0.13241290  0.27139863  0.64417714  1
  H+  H235  1  0.51889302  0.63227542  -0.00188779  1
  H+  H236  1  0.11264863  0.39135807  0.14189344  1
  H+  H237  1  0.97988968  0.11118803  0.16675146  1
  H+  H238  1  0.35270850  0.65831513  0.68558380  1
  H+  H239  1  0.39534376  0.10464273  0.17135299  1
  H+  H240  1  0.72025801  0.85428332  0.34004802  1
  H+  H241  1  0.57730183  0.61818275  0.67928519  1
  H+  H242  1  0.61639523  0.73628363  0.82795864  1
  H+  H243  1  0.10727585  0.49782542  0.50753791  1
  H+  H244  1  0.36790611  0.24156024  0.80852853  1
  H+  H245  1  0.88215270  0.85536547  0.99223921  1
  H+  H246  1  0.41615151  0.10805437  0.90882135  1
  H+  H247  1  0.15596298  0.33065524  0.43578089  1
  H+  H248  1  0.88844762  0.11519757  0.32354996  1
  H+  H249  1  0.40212312  0.12711955  0.31852389  1
  H+  H250  1  0.43154758  0.35457250  0.30425574  1
  H+  H251  1  0.02335952  0.39026144  0.14727127  1
  H+  H252  1  0.01391421  0.87403250  0.16723348  1
  H+  H253  1  0.64176638  0.87262119  0.81030591  1
  H+  H254  1  0.40467487  0.31249542  0.97478603  1
  H+  H255  1  0.13774924  0.52340112  0.16280698  1
  H+  H256  1  0.61045398  0.46890033  0.14553958  1
  H+  H257  1  0.11829951  0.62403267  0.67384009  1
  H+  H258  1  0.88473783  0.78384108  0.66858491  1
  H+  H259  1  0.36622766  0.06901806  0.99680395  1
  H+  H260  1  0.84840704  -0.01955663  0.85540871  1
  H+  H261  1  0.13379920  0.36438373  0.82882937  1
  H+  H262  1  0.86602579  0.10529144  0.82995405  1
  H+  H263  1  0.36335813  0.74287280  0.82558188  1
  H+  H264  1  0.26695553  0.13374167  0.32762288  1
  H+  H265  1  0.72828345  0.86172717  0.16484698  1
  H+  H266  1  0.14130446  0.10278326  0.83792039  1
  H+  H267  1  0.91334936  0.11261306  -0.00803214  1
  H+  H268  1  0.89152951  0.27914288  0.98653524  1
  H+  H269  1  0.13738856  0.62965742  0.83482260  1
  H+  H270  1  0.48149696  0.87017814  0.33587136  1
  H+  H271  1  0.53037984  0.41412008  0.48980025  1
  H+  H272  1  0.33492627  0.67652580  0.43928138  1
  H+  H273  1  0.86601829  0.39044272  -0.00110825  1
  H+  H274  1  0.88788149  0.86746980  0.33307975  1
  H+  H275  1  0.88365570  0.35702831  0.15738348  1
  H+  H276  1  0.62577982  0.50829899  -0.01065083  1
  H+  H277  1  0.88290983  0.85842613  0.50140247  1
  H+  H278  1  0.37063020  0.53896768  0.68006411  1
  H+  H279  1  0.61908240  -0.02873461  0.34489379  1
  H+  H280  1  0.53070960  0.12068543  0.15817111  1
  H+  H281  1  0.07137985  0.06848674  0.61736664  1
  H+  H282  1  0.21698955  0.55035245  0.63915248  1
  H+  H283  1  0.63538714  0.14898751  0.67134295  1
  H+  H284  1  0.77329271  0.13940218  0.49096657  1
  H+  H285  1  0.37839284  0.52132824  0.33154780  1
  H+  H286  1  0.60518499  0.62481321  0.99725246  1
  H+  H287  1  0.11856557  0.01711880  0.17916931  1
  H+  H288  1  0.66083846  0.34331427  0.58774450  1
  H+  H289  1  0.67473996  0.07712106  0.26635390  1
  H+  H290  1  0.15548263  0.30046298  0.27980983  1
  H+  H291  1  0.58237134  0.41173332  0.08319520  1
  H+  H292  1  0.76789692  0.68664685  0.04772706  1
  H+  H293  1  0.10486672  0.88008398  0.16815787  1
  H+  H294  1  0.91973756  0.83527643  0.27611530  1
  H+  H295  1  0.87399694  0.10743739  0.51054430  1
  H+  H296  1  0.13831950  0.98000875  0.83608644  1
  H+  H297  1  0.32969112  0.43389346  0.75859100  1
  H+  H298  1  0.18158300  0.81954800  0.90318271  1
  H+  H299  1  0.67586441  0.07620958  0.56581113  1
  H+  H300  1  0.39384601  0.20328120  0.71246315  1
  H+  H301  1  0.08061848  0.15494537  0.08413391  1
  H+  H302  1  0.77814830  0.13022548  0.15443189  1
  H+  H303  1  0.58495810  0.90957169  0.43782916  1
  H+  H304  1  0.62799883  0.44959389  0.73480212  1
  H+  H305  1  0.54718552  0.15528622  0.33074966  1
  H+  H306  1  0.64550929  0.01570751  0.16980034  1
  H+  H307  1  0.10266479  0.09560443  0.52630888  1
  H+  H308  1  0.58156578  0.65370683  0.09051079  1
  H+  H309  1  0.82621806  0.66894998  0.76031272  1
  H+  H310  1  0.48399232  0.40399943  -0.02345029  1
  H+  H311  1  0.06662999  0.40301646  0.75548083  1
  H+  H312  1  0.07199208  0.43659612  0.44890601  1
  H+  H313  1  0.08635297  0.66484185  0.76287817  1
  H+  H314  1  0.32403418  0.68635652  0.76507950  1
  H+  H315  1  0.40341067  0.32197602  0.21153652  1
  H+  H316  1  0.37016107  0.15460018  0.81619964  1
  H+  H317  1  0.45607805  0.54772116  0.58894976  1
  H+  H318  1  0.91489384  0.33483276  0.21871136  1
  H+  H319  1  0.91799899  0.60567553  0.89357473  1
  H+  H320  1  0.06457595  0.14583914  0.44256895  1
  H+  H321  1  0.08988172  0.92868355  0.45181485  1
  H+  H322  1  0.66421511  0.82227064  0.56800576  1
  H+  H323  1  0.89315133  0.06779247  0.57108940  1
  H+  H324  1  0.86478498  0.49735935  0.83063301  1
  H+  H325  1  0.88086191  0.83832055  0.88605950  1
  H+  H326  1  0.83234728  0.41574809  0.08793013  1
  H+  H327  1  0.59916110  0.45679286  0.43459726  1
  H+  H328  1  0.33427714  0.92124201  0.73656842  1
  H+  H329  1  0.90634926  0.33533662  0.92551919  1
  H+  H330  1  0.57887756  0.66581143  0.74199915  1
  H+  H331  1  0.83859288  0.66523583  0.10808509  1
  H+  H332  1  0.33875789  0.91932109  0.10502452  1
  H+  H333  1  0.35596435  0.95684514  0.40424325  1
  H+  H334  1  0.17163512  0.84113303  0.57772154  1
  H+  H335  1  0.83271027  0.91995995  0.39963293  1
  H+  H336  1  0.48025401  0.59551974  0.59085365  1
  H+  H337  1  0.94478805  0.53440815  0.22516484  1
  H+  H338  1  0.61085737  0.17638487  0.75932347  1
  H+  H339  1  0.42250402  0.59352543  0.27954381  1
  H+  H340  1  0.16359435  0.32941651  0.58534704  1
  H+  H341  1  0.92101500  0.08474563  0.26555159  1
  H+  H342  1  0.56444109  0.17125563  0.49481544  1
  H+  H343  1  0.42455440  0.83475731  0.89682133  1
  H+  H344  1  0.68026483  0.35598045  0.22607633  1
  H+  H345  1  0.66564898  0.58313760  0.89693165  1
  H+  H346  1  0.65012466  0.06578142  0.91917562  1
  H+  H347  1  0.06537911  0.64858940  0.06156874  1
  H+  H348  1  0.41833596  0.35442091  0.87723920  1
  H+  H349  1  0.57712690  0.90633429  0.09782300  1
  H+  H350  1  0.07200134  0.16982396  0.80113835  1
  H+  H351  1  0.13896962  0.25293789  0.50520612  1
  H+  H352  1  0.17422627  0.60518775  0.90107568  1
  H+  H353  1  0.41130503  0.59436442  0.92867560  1
  H+  H354  1  0.10785491  0.69281279  0.44140372  1
  H+  H355  1  -0.00104702  0.07895485  0.82146014  1
  H+  H356  1  0.42110154  0.84274301  0.27734772  1
  H+  H357  1  0.32937988  0.66261567  0.06809439  1
  H+  H358  1  0.76952120  0.64299116  0.82090324  1
  H+  H359  1  0.93092928  0.58936141  0.59263247  1
  H+  H360  1  0.07676391  0.87867191  0.75575405  1
  H+  H361  1  0.71746455  0.60060110  0.98694199  1
  H+  H362  1  0.58601282  0.12276464  -0.00695696  1
  H+  H363  1  0.63765843  0.02152688  0.65606656  1
  H+  H364  1  0.41887468  0.83377259  0.56865709  1
  H+  H365  1  0.49307355  0.70148613  0.21848091  1
  H+  H366  1  0.33353517  0.39936247  0.42646013  1
  H+  H367  1  0.18080216  0.85417997  0.28298806  1
  H+  H368  1  0.83351239  0.66043019  0.44226263  1
  H+  H369  1  0.91416539  0.32502761  0.57673495  1
  H+  H370  1  0.06463010  0.88604029  0.06661679  1
  H+  H371  1  0.67226729  0.32495132  0.90850010  1
  H+  H372  1  0.39964371  0.05468369  0.58389231  1
  H+  H373  1  0.43448486  0.34600046  0.55403244  1
  H+  H374  1  0.77044898  0.88099226  0.49394253  1
  H+  H375  1  0.08036786  0.41150724  0.05012818  1
  H+  H376  1  0.58192744  0.14846349  0.09639129  1
  H+  H377  1  0.14388713  0.33555275  0.28006258  1
  H+  H378  1  0.92930689  0.62054868  0.27571219  1
  H+  H379  1  0.30978776  0.13642895  0.10495704  1
  H+  H380  1  0.84295412  0.91549202  0.10241588  1
  H+  H381  1  0.66356640  0.58238205  0.26269984  1
  H+  H382  1  0.17540323  0.59056121  0.57463705  1
  H+  H383  1  0.78007669  0.41651048  0.47704849  1
  O2-  O384  1  0.07695754  0.15975601  0.12963106  1
  O2-  O385  1  0.06571936  0.15053820  0.48795714  1
  O2-  O386  1  0.05610123  0.10941820  0.80150997  1
  O2-  O387  1  0.08378691  0.42496177  0.13240605  1
  O2-  O388  1  0.06924238  0.43631347  0.49352123  1
  O2-  O389  1  0.06832577  0.40026521  0.80039382  1
  O2-  O390  1  0.08189159  0.65695569  0.13892140  1
  O2-  O391  1  0.10711444  0.69118562  0.48652493  1
  O2-  O392  1  0.08843359  0.67135943  0.80864280  1
  O2-  O393  1  0.07338839  0.90487852  0.14913549  1
  O2-  O394  1  0.08552968  0.92314625  0.49669865  1
  O2-  O395  1  0.10525951  0.91787219  0.82678408  1
  O2-  O396  1  0.34680374  0.15481534  0.14049684  1
  O2-  O397  1  0.34875870  0.17093610  0.45389699  1
  O2-  O398  1  0.34297631  0.18155890  0.79263000  1
  O2-  O399  1  0.33674690  0.41606304  0.13322777  1
  O2-  O400  1  0.33653204  0.39917270  0.47175832  1
  O2-  O401  1  0.33282566  0.43657806  0.80382749  1
  O2-  O402  1  0.33689385  0.67064261  0.14897760  1
  O2-  O403  1  0.33825975  0.67652457  0.48578145  1
  O2-  O404  1  0.32735410  0.68216217  0.81097230  1
  O2-  O405  1  0.33532056  0.91483996  0.14955569  1
  O2-  O406  1  0.33917735  0.98494353  0.52771507  1
  O2-  O407  1  0.35413301  0.93516290  0.82121679  1
  O2-  O408  1  0.58937471  0.14680676  0.14087851  1
  O2-  O409  1  0.54376255  0.11521312  0.51329160  1
  O2-  O410  1  0.60425191  0.16433492  0.80655985  1
  O2-  O411  1  0.58296342  0.40846748  0.12989201  1
  O2-  O412  1  0.59210521  0.46008849  0.47903318  1
  O2-  O413  1  0.58316721  0.43478691  0.79515563  1
  O2-  O414  1  0.59001124  0.65504664  0.13579476  1
  O2-  O415  1  0.59067030  0.65279186  0.48994427  1
  O2-  O416  1  0.58333719  0.67347272  0.82086525  1
  O2-  O417  1  0.57969333  0.90819495  0.14299455  1
  O2-  O418  1  0.58398763  0.90567723  0.48378341  1
  O2-  O419  1  0.58438918  0.91886091  0.79905325  1
  O2-  O420  1  0.83931043  0.16176992  0.13896376  1
  O2-  O421  1  0.83513264  0.17180330  0.47793166  1
  O2-  O422  1  0.85128607  0.15044943  0.81565049  1
  O2-  O423  1  0.82831330  0.41200846  0.13433347  1
  O2-  O424  1  0.83751966  0.43713382  0.45936531  1
  O2-  O425  1  0.83709368  0.43573390  0.81943162  1
  O2-  O426  1  0.83592534  0.65784839  0.15343577  1
  O2-  O427  1  0.84110969  0.66005623  0.48653663  1
  O2-  O428  1  0.82968774  0.67553913  0.80493568  1
  O2-  O429  1  0.84159299  0.91380511  0.14788293  1
  O2-  O430  1  0.82908972  0.91559805  0.47630229  1
  O2-  O431  1  0.72971547  0.90171148  0.87058240  1
  O2-  O432  1  0.14232919  0.07486023  0.19707466  1
  O2-  O433  1  0.12072034  0.06534975  0.55570451  1
  O2-  O434  1  0.18667537  0.09295142  0.85554174  1
  O2-  O435  1  0.16579758  0.33502472  0.15946563  1
  O2-  O436  1  0.17273178  0.31688103  0.51079302  1
  O2-  O437  1  0.17204964  0.34179126  0.84164774  1
  O2-  O438  1  0.16649285  0.58308898  0.18069749  1
  O2-  O439  1  0.17700033  0.59636814  0.52697770  1
  O2-  O440  1  0.17433864  0.60545279  0.85231549  1
  O2-  O441  1  0.18770108  0.80821312  0.20399355  1
  O2-  O442  1  0.17908425  0.85274294  0.53268127  1
  O2-  O443  1  0.19224378  0.83034089  0.85893827  1
  O2-  O444  1  0.42262339  0.07208106  0.18757346  1
  O2-  O445  1  0.37945905  0.02714998  0.46987294  1
  O2-  O446  1  0.42206903  0.10676132  0.86161296  1
  O2-  O447  1  0.41085938  0.32580246  0.16627478  1
  O2-  O448  1  0.43754931  0.33997477  0.50880683  1
  O2-  O449  1  0.41251655  0.34685645  0.83235291  1
  O2-  O450  1  0.45408902  0.64312145  0.20424441  1
  O2-  O451  1  0.40792393  0.56772380  0.48210955  1
  O2-  O452  1  0.41363617  0.59846914  0.85083234  1
  O2-  O453  1  0.42029415  0.83329950  0.19282588  1
  O2-  O454  1  0.42414776  0.82786021  0.52123977  1
  O2-  O455  1  0.42799094  0.84341076  0.85188503  1
  O2-  O456  1  0.67810712  0.07649875  0.18403035  1
  O2-  O457  1  0.67082651  0.07370564  0.52010535  1
  O2-  O458  1  0.68015494  0.08069492  0.84774761  1
  O2-  O459  1  0.67599374  0.35241454  0.17859191  1
  O2-  O460  1  0.66915786  0.37081180  0.50777691  1
  O2-  O461  1  0.67811477  0.33064940  0.86403081  1
  O2-  O462  1  0.66279116  0.56830676  0.18220991  1
  O2-  O463  1  0.63608137  0.61588117  0.52251559  1
  O2-  O464  1  0.66772203  0.58930482  0.85156129  1
  O2-  O465  1  0.66538972  0.82927740  0.17218478  1
  O2-  O466  1  0.66587199  0.81854374  0.52245409  1
  O2-  O467  1  0.68254645  0.84988932  0.81792121  1
  O2-  O468  1  0.92210769  0.08141989  0.18689206  1
  O2-  O469  1  0.90130649  0.07467863  0.52577532  1
  O2-  O470  1  0.89524820  0.04089844  0.85742544  1
  O2-  O471  1  0.91706807  0.33086590  0.17329414  1
  O2-  O472  1  0.91909104  0.32976240  0.52676746  1
  O2-  O473  1  0.89999216  0.34280062  0.84944705  1
  O2-  O474  1  0.93261909  0.56491556  0.19341007  1
  O2-  O475  1  0.93381023  0.59206457  0.51684126  1
  O2-  O476  1  0.92422513  0.60839354  0.84885740  1
  O2-  O477  1  0.91436361  0.82761745  0.19609652  1
  O2-  O478  1  0.90828630  0.82446504  0.51691471  1
  O2-  O479  1  0.85887659  0.84343364  0.84648132  1
  O2-  O480  1  0.15895987  0.08718951  0.31696087  1
  O2-  O481  1  0.25183955  0.17880671  0.62804364  1
  O2-  O482  1  0.20421586  0.11040123  0.97988104  1
  O2-  O483  1  0.15068742  0.32951461  0.39033927  1
  O2-  O484  1  0.15938852  0.33116154  0.63103776  1
  O2-  O485  1  0.16052574  0.31953494  0.96825973  1
  O2-  O486  1  0.09433221  0.56042864  0.29161064  1
  O2-  O487  1  0.17749469  0.57266042  0.64118511  1
  O2-  O488  1  0.17137103  0.60040111  0.96460099  1
  O2-  O489  1  0.17898564  0.85647940  0.32764662  1
  O2-  O490  1  0.15785029  0.81361982  0.65229184  1
  O2-  O491  1  0.16130583  0.80807833  0.98165558  1
  O2-  O492  1  0.43726708  0.10038077  0.30793959  1
  O2-  O493  1  0.45247023  0.09822102  0.60616601  1
  O2-  O494  1  0.41784949  0.11451684  0.97775436  1
  O2-  O495  1  0.37571244  0.31618216  0.28656184  1
  O2-  O496  1  0.43530039  0.37170101  0.62886464  1
  O2-  O497  1  0.42569186  0.37134202  0.95713405  1
  O2-  O498  1  0.41667976  0.58388746  0.32402381  1
  O2-  O499  1  0.39612363  0.60143398  0.68657712  1
  O2-  O500  1  0.41297957  0.59154541  0.97422356  1
  O2-  O501  1  0.42010686  0.84488444  0.32240804  1
  O2-  O502  1  0.41222492  0.84171586  0.63412015  1
  O2-  O503  1  0.41484115  0.81544782  0.97460230  1
  O2-  O504  1  0.67550694  0.07944589  0.31170462  1
  O2-  O505  1  0.67351851  0.08224978  0.64165229  1
  O2-  O506  1  0.62937199  0.05574733  0.96295812  1
  O2-  O507  1  0.69032392  0.35529452  0.29412945  1
  O2-  O508  1  0.66672261  0.33614695  0.63181324  1
  O2-  O509  1  0.66756591  0.32416964  0.99435368  1
  O2-  O510  1  0.66781164  0.58464612  0.30797591  1
  O2-  O511  1  0.58146478  0.53683632  0.63884311  1
  O2-  O512  1  0.65766110  0.57366662  0.97307442  1
  O2-  O513  1  0.65712687  0.82438414  0.33385497  1
  O2-  O514  1  0.65402955  0.82458016  0.64431988  1
  O2-  O515  1  0.67280299  0.82787500  0.97920534  1
  O2-  O516  1  0.91792033  0.08316566  0.31104870  1
  O2-  O517  1  0.89188327  0.05620010  0.64762272  1
  O2-  O518  1  0.93165910  0.07307432  0.97556548  1
  O2-  O519  1  0.90763435  0.33924237  0.29572951  1
  O2-  O520  1  0.90993234  0.32500064  0.63778940  1
  O2-  O521  1  0.91183599  0.33789871  0.97102977  1
  O2-  O522  1  0.92643069  0.61281206  0.31984727  1
  O2-  O523  1  0.92420154  0.58408929  0.63828412  1
  O2-  O524  1  0.90048134  0.58308288  0.97595584  1
  O2-  O525  1  0.92005100  0.83705470  0.32141764  1
  O2-  O526  1  0.91707566  0.84650435  0.67219481  1
  O2-  O527  1  0.90289912  0.81717494  0.97570219  1
  O2-  O528  1  0.09221653  0.15781357  0.00861767  1
  O2-  O529  1  0.07351480  0.15954826  0.36639009  1
  O2-  O530  1  0.05258714  0.08857365  0.65426193  1
  O2-  O531  1  0.08091187  0.39982190  0.00636303  1
  O2-  O532  1  0.04113435  0.38239786  0.37239344  1
  O2-  O533  1  0.06934356  0.41152293  0.67367666  1
  O2-  O534  1  0.06365674  0.64907446  0.01627729  1
  O2-  O535  1  0.09373268  0.68627901  0.36008793  1
  O2-  O536  1  0.08643412  0.65222829  0.68809920  1
  O2-  O537  1  0.05703926  0.87723599  0.02225176  1
  O2-  O538  1  0.08324685  0.92926885  0.36924652  1
  O2-  O539  1  0.05782216  0.84741751  0.71618409  1
  O2-  O540  1  0.38240096  0.22629964  0.01507948  1
  O2-  O541  1  0.33068764  0.16951632  0.33490530  1
  O2-  O542  1  0.40790655  0.21575329  0.66870722  1
  O2-  O543  1  0.32814556  0.42566071  0.00662525  1
  O2-  O544  1  0.31593123  0.41050382  0.35039836  1
  O2-  O545  1  0.32698761  0.42360365  0.67902669  1
  O2-  O546  1  0.32550462  0.66120503  0.02286367  1
  O2-  O547  1  0.33664054  0.67531980  0.36742705  1
  O2-  O548  1  0.32275784  0.69325842  0.69157430  1
  O2-  O549  1  0.37515824  0.93791050  0.01886580  1
  O2-  O550  1  0.34734489  0.94008004  0.36066033  1
  O2-  O551  1  0.31887078  0.91380612  0.69314305  1
  O2-  O552  1  0.56693858  0.15663649  0.01691067  1
  O2-  O553  1  0.60767114  0.17918635  0.34408681  1
  O2-  O554  1  0.61335613  0.18245868  0.69299619  1
  O2-  O555  1  0.57992790  0.42242173  0.01087445  1
  O2-  O556  1  0.61557560  0.43567350  0.35732354  1
  O2-  O557  1  0.66190277  0.46553396  0.69393616  1
  O2-  O558  1  0.57909518  0.65874303  0.01384378  1
  O2-  O559  1  0.58117021  0.64933995  0.36430819  1
  O2-  O560  1  0.57019547  0.66530001  0.69714234  1
  O2-  O561  1  0.57623164  0.89701958  0.01619849  1
  O2-  O562  1  0.58383900  0.91279944  0.36251369  1
  O2-  O563  1  0.57515751  0.91490001  0.67532270  1
  O2-  O564  1  0.86531482  0.17471765  0.02009919  1
  O2-  O565  1  0.83791753  0.17181829  0.35137743  1
  O2-  O566  1  0.83700482  0.16403462  0.68743720  1
  O2-  O567  1  0.83470516  0.41948006  0.01576910  1
  O2-  O568  1  0.84551751  0.43765110  0.34178879  1
  O2-  O569  1  0.83690000  0.40978998  0.65870208  1
  O2-  O570  1  0.81599826  0.67940259  0.03515370  1
  O2-  O571  1  0.83025737  0.67286683  0.35745962  1
  O2-  O572  1  0.83222657  0.65347167  0.67789462  1
  O2-  O573  1  0.83770374  0.91177312  0.02386842  1
  O2-  O574  1  0.83243355  0.91547748  0.35406335  1
  O2-  O575  1  0.80132139  0.90229371  0.70740671  1
