# generated using pymatgen
data_H2O
_symmetry_space_group_name_H-M   'P 1'
_cell_length_a   17.99556309
_cell_length_b   17.98341010
_cell_length_c   22.00206693
_cell_angle_alpha   90.01149742
_cell_angle_beta   89.97878659
_cell_angle_gamma   120.00977924
_symmetry_Int_Tables_number   1
_chemical_formula_structural   H2O
_chemical_formula_sum   'H384 O192'
_cell_volume   6165.79054281
_cell_formula_units_Z   192
loop_
 _symmetry_equiv_pos_site_id
 _symmetry_equiv_pos_as_xyz
  1  'x, y, z'
loop_
 _atom_type_symbol
 _atom_type_oxidation_number
  H+  1.0
  O2-  -2.0
loop_
 _atom_site_type_symbol
 _atom_site_label
 _atom_site_symmetry_multiplicity
 _atom_site_fract_x
 _atom_site_fract_y
 _atom_site_fract_z
 _atom_site_occupancy
  H+  H0  1  0.13793484  0.76681113  0.33228619  1
  H+  H1  1  0.59508034  0.67600489  0.09142307  1
  H+  H2  1  0.64183219  1.04425672  0.66551239  1
  H+  H3  1  0.61370713  0.61745484  0.00217981  1
  H+  H4  1  0.74151134  0.36811271  0.83642152  1
  H+  H5  1  0.88257057  0.36482571  0.99930482  1
  H+  H6  1  0.13092368  0.49979366  0.36879546  1
  H+  H7  1  0.52508126  0.89684885  0.01445060  1
  H+  H8  1  0.65729873  0.04500054  0.51146408  1
  H+  H9  1  0.87969719  0.85306090  0.84290966  1
  H+  H10  1  0.65237906  0.03860466  0.33483054  1
  H+  H11  1  0.27249523  0.14253621  0.67993006  1
  H+  H12  1  0.50802553  0.72128977  0.43661506  1
  H+  H13  1  0.55000277  0.63195160  0.31959859  1
  H+  H14  1  0.27107758  0.37262747  0.82345565  1
  H+  H15  1  0.65313331  0.61719538  0.32575396  1
  H+  H16  1  0.85546566  0.47857929  0.50108419  1
  H+  H17  1  0.64578588  0.77972329  0.84740710  1
  H+  H18  1  0.62421062  0.61633171  0.17228567  1
  H+  H19  1  0.25799753  0.12272340  0.85697067  1
  H+  H20  1  0.13062997  0.25738281  0.50029208  1
  H+  H21  1  0.96703335  0.10662990  0.83934978  1
  H+  H22  1  0.35248171  0.60036431  0.30939990  1
  H+  H23  1  0.77158831  0.89166344  0.16058342  1
  H+  H24  1  1.02569624  0.38497529  0.14203554  1
  H+  H25  1  0.52120675  0.63775070  0.13925459  1
  H+  H26  1  0.34504805  0.66530687  0.72779898  1
  H+  H27  1  0.10129823  0.73763603  0.70594909  1
  H+  H28  1  0.58644106  0.17226870  0.39996475  1
  H+  H29  1  0.61766143  0.64812944  0.64531265  1
  H+  H30  1  0.49953634  0.60366421  0.87027353  1
  H+  H31  1  0.39438149  0.63038959  0.32492212  1
  H+  H32  1  0.11610050  1.01732919  0.84612538  1
  H+  H33  1  0.92384600  0.34154367  0.08334814  1
  H+  H34  1  0.01147767  0.86739485  0.49127905  1
  H+  H35  1  1.00609677  0.35074609  0.50264244  1
  H+  H36  1  0.67874907  0.10364812  0.60711035  1
  H+  H37  1  0.41726664  0.03013546  0.65652015  1
  H+  H38  1  0.52994227  0.13409150  0.49186329  1
  H+  H39  1  0.38974607  0.38710720  0.33661552  1
  H+  H40  1  0.88779003  0.02499847  0.17677528  1
  H+  H41  1  0.00798793  0.60497645  0.17330856  1
  H+  H42  1  0.76796693  0.14060061  1.00502360  1
  H+  H43  1  0.14444641  0.48981108  0.18714781  1
  H+  H44  1  0.64242679  0.37240415  0.17375572  1
  H+  H45  1  0.38116131  0.77465136  0.66681343  1
  H+  H46  1  1.00015186  0.87715850  0.32785524  1
  H+  H47  1  0.64370280  0.51105016  0.98105808  1
  H+  H48  1  0.85404830  0.49998818  0.67094824  1
  H+  H49  1  0.74373229  0.13821118  0.51127363  1
  H+  H50  1  0.36533943  0.13528495  0.16156826  1
  H+  H51  1  0.72892843  0.63157141  0.65285768  1
  H+  H52  1  0.51168382  0.14428877  0.02695204  1
  H+  H53  1  1.03205541  0.39703998  1.00448394  1
  H+  H54  1  0.61591588  0.39201933  0.48462930  1
  H+  H55  1  0.42072061  0.32915257  0.93691358  1
  H+  H56  1  0.35598878  0.95715690  0.74646869  1
  H+  H57  1  0.23040336  0.36380986  0.99643289  1
  H+  H58  1  0.85353038  0.15178934  0.35313229  1
  H+  H59  1  0.33952078  0.62036011  0.50195064  1
  H+  H60  1  0.11057145  0.86573893  0.34023075  1
  H+  H61  1  0.63750832  0.87684432  0.17257479  1
  H+  H62  1  0.36963115  0.89810710  0.34629040  1
  H+  H63  1  0.40832773  0.25535583  0.48772834  1
  H+  H64  1  0.87854274  0.02956348  0.65998170  1
  H+  H65  1  0.21960527  0.29265763  0.32366090  1
  H+  H66  1  0.23106978  0.64249309  0.34425504  1
  H+  H67  1  0.56105943  0.67945972  0.41300874  1
  H+  H68  1  0.14048948  0.08729848  0.33413565  1
  H+  H69  1  0.53165141  0.89439528  0.49430572  1
  H+  H70  1  0.44742763  0.29922197  0.73348186  1
  H+  H71  1  0.85342304  0.98131794  0.49195849  1
  H+  H72  1  0.40296239  0.81128362  0.19725458  1
  H+  H73  1  0.61626480  0.23482582  0.17548736  1
  H+  H74  1  0.38633303  0.86280047  0.99624844  1
  H+  H75  1  0.02528252  0.64221020  0.34971436  1
  H+  H76  1  0.85734944  0.13366513  0.83144959  1
  H+  H77  1  0.10750477  0.37146425  0.15304329  1
  H+  H78  1  0.76774490  0.88795558  0.49743744  1
  H+  H79  1  0.57002036  0.65309604  0.70260888  1
  H+  H80  1  0.87527166  0.76839936  0.18150374  1
  H+  H81  1  0.88230252  0.86620087  0.50254065  1
  H+  H82  1  0.12535241  0.34681568  0.64779285  1
  H+  H83  1  0.73138311  0.86825867  0.82910313  1
  H+  H84  1  0.48851009  0.36070425  0.32154094  1
  H+  H85  1  0.00724948  0.12962763  0.48879879  1
  H+  H86  1  0.69187385  0.55335763  0.82262740  1
  H+  H87  1  0.22093536  0.34680345  0.49947868  1
  H+  H88  1  0.07224610  0.15851628  0.29646496  1
  H+  H89  1  0.25549054  0.36752852  0.18888865  1
  H+  H90  1  0.83741154  0.42313881  0.43970643  1
  H+  H91  1  0.69084418  0.57717178  0.92482014  1
  H+  H92  1  0.25202694  0.93676059  0.84395827  1
  H+  H93  1  0.38404397  1.01977725  0.49932668  1
  H+  H94  1  0.35885299  0.46457354  1.00670053  1
  H+  H95  1  0.89567214  0.57118774  0.61761646  1
  H+  H96  1  0.00668929  0.12998727  0.67036443  1
  H+  H97  1  0.61882033  0.76813156  0.49621400  1
  H+  H98  1  0.61692235  0.14481652  0.34031799  1
  H+  H99  1  0.95040422  0.61448044  0.81955135  1
  H+  H100  1  0.35100885  0.21171300  0.86201271  1
  H+  H101  1  0.48126129  0.11406677  0.32783307  1
  H+  H102  1  0.13451400  0.26004189  0.19706511  1
  H+  H103  1  0.47879639  0.85570594  0.84240322  1
  H+  H104  1  0.15459566  0.08094745  0.93655520  1
  H+  H105  1  0.77510470  0.63667698  0.48336388  1
  H+  H106  1  0.38590991  0.96486712  0.85181986  1
  H+  H107  1  0.59667542  0.27029259  0.66606328  1
  H+  H108  1  0.96818528  0.61248943  0.52121817  1
  H+  H109  1  0.30354222  0.61356638  0.81786810  1
  H+  H110  1  0.33055891  0.91685596  0.06758359  1
  H+  H111  1  0.38509338  0.70688288  0.82939045  1
  H+  H112  1  0.19363001  0.88152205  0.91065363  1
  H+  H113  1  0.82705209  0.62435317  0.16123179  1
  H+  H114  1  0.12853979  0.34733093  0.84678784  1
  H+  H115  1  0.40384131  0.53375206  0.08046037  1
  H+  H116  1  0.15602040  0.86525524  0.67021507  1
  H+  H117  1  0.11027545  0.99870391  0.50778004  1
  H+  H118  1  0.21290863  0.50738097  0.23800849  1
  H+  H119  1  0.10380048  0.20704078  0.66935301  1
  H+  H120  1  0.72857963  0.85338193  0.32509332  1
  H+  H121  1  0.76786107  0.89734278  0.68985341  1
  H+  H122  1  0.14027448  0.64115647  0.13958477  1
  H+  H123  1  0.47012894  0.23538351  0.45037597  1
  H+  H124  1  0.11561105  0.12284181  0.20290604  1
  H+  H125  1  0.37847089  0.82351296  0.83769588  1
  H+  H126  1  0.62003364  0.39104681  0.33749283  1
  H+  H127  1  0.83461458  0.19179601  0.41284571  1
  H+  H128  1  0.86421907  0.48527118  -0.00095360  1
  H+  H129  1  0.95364740  0.88233369  0.64477511  1
  H+  H130  1  0.28032186  0.13103469  0.34423129  1
  H+  H131  1  0.10239942  0.36561178  0.50636048  1
  H+  H132  1  0.10702357  0.72311378  0.50662936  1
  H+  H133  1  0.61881969  0.14675873  0.84164347  1
  H+  H134  1  0.35440075  0.68327712  0.15502448  1
  H+  H135  1  1.00350463  0.84897540  1.00820915  1
  H+  H136  1  0.12198354  0.10899205  0.84072875  1
  H+  H137  1  0.34918904  0.45369704  0.15800742  1
  H+  H138  1  0.45233380  0.31498198  0.82999219  1
  H+  H139  1  0.51855346  0.90035627  0.67951955  1
  H+  H140  1  0.43838228  0.51121139  0.30326333  1
  H+  H141  1  0.86769750  0.75749013  0.84481337  1
  H+  H142  1  0.14066308  0.52768755  0.66195604  1
  H+  H143  1  0.89507990  0.27692785  0.13895518  1
  H+  H144  1  0.00592820  0.37420677  0.64106901  1
  H+  H145  1  0.10457711  0.08398011  0.51151798  1
  H+  H146  1  0.35381119  0.97834899  0.16246500  1
  H+  H147  1  0.60793798  0.47923227  0.15583643  1
  H+  H148  1  0.35318059  0.46601880  0.49063774  1
  H+  H149  1  0.77484775  0.14257030  0.67711099  1
  H+  H150  1  0.14267322  1.00076589  0.33725302  1
  H+  H151  1  0.14593279  0.37408144  0.99363471  1
  H+  H152  1  -0.05619067  0.37810042  0.32061142  1
  H+  H153  1  0.38021039  0.61493848  0.65087907  1
  H+  H154  1  0.07406277  0.93016940  0.67973534  1
  H+  H155  1  0.88508853  0.12684940  0.50716594  1
  H+  H156  1  0.37875521  0.10959090  -0.00422909  1
  H+  H157  1  0.87540240  0.26842751  0.65529291  1
  H+  H158  1  0.97388550  0.12021458  0.99177974  1
  H+  H159  1  0.37727540  0.36418914  0.66009249  1
  H+  H160  1  0.64484271  0.52458350  0.32241624  1
  H+  H161  1  0.63437185  0.90346978  0.34673319  1
  H+  H162  1  0.86343634  0.89027050  0.00651931  1
  H+  H163  1  0.35555207  0.36546727  0.18249032  1
  H+  H164  1  0.86452234  0.48202656  0.82603600  1
  H+  H165  1  0.96884062  0.85381002  0.17572308  1
  H+  H166  1  0.24418148  0.88754149  -0.01011707  1
  H+  H167  1  0.38997566  0.26989681  0.99595896  1
  H+  H168  1  0.17528073  0.58704295  0.28639229  1
  H+  H169  1  0.10245298  0.36904860  0.33186596  1
  H+  H170  1  0.87557752  0.77030100  -0.00584681  1
  H+  H171  1  0.36994004  0.74739238  0.35936334  1
  H+  H172  1  0.74858412  0.63830470  0.16151663  1
  H+  H173  1  0.64437574  0.53233390  0.49394695  1
  H+  H174  1  0.87386196  0.47955639  0.34669113  1
  H+  H175  1  0.17024617  0.83221635  0.57591765  1
  H+  H176  1  0.89933824  0.07944205  0.23707973  1
  H+  H177  1  0.81611562  0.66860358  0.73811829  1
  H+  H178  1  0.86187453  0.22504676  0.83456961  1
  H+  H179  1  0.76934546  0.63178774  0.00308813  1
  H+  H180  1  0.03910181  0.83109543  0.70253409  1
  H+  H181  1  0.88661204  0.02819270  0.99374626  1
  H+  H182  1  0.58021440  0.17329828  0.11703415  1
  H+  H183  1  0.15139660  0.57094300  0.88600542  1
  H+  H184  1  0.52127176  0.17157106  0.66954786  1
  H+  H185  1  0.19115234  0.47961284  0.84190072  1
  H+  H186  1  0.86289465  0.72600845  0.48650505  1
  H+  H187  1  0.89509967  0.85981119  0.33414974  1
  H+  H188  1  0.29654297  0.14211109  0.65185868  1
  H+  H189  1  0.10218048  0.87064020  0.16552975  1
  H+  H190  1  0.11430243  0.64237869  0.35247280  1
  H+  H191  1  0.14525358  0.89920389  0.84391430  1
  H+  H192  1  0.36829350  0.10803850  0.85431017  1
  H+  H193  1  0.86482471  0.39007136  0.14198120  1
  H+  H194  1  -0.03660570  0.61000217  0.70928782  1
  H+  H195  1  0.35372577  0.47411133  0.66560809  1
  H+  H196  1  0.10856620  0.65054860  -0.00185163  1
  H+  H197  1  0.62499453  0.14767734  0.49309853  1
  H+  H198  1  0.22642697  0.85835350  0.32666393  1
  H+  H199  1  0.16743595  0.59196182  0.60894077  1
  H+  H200  1  0.13670403  0.00895808  0.17650916  1
  H+  H201  1  0.86440391  -0.02573952  0.83317961  1
  H+  H202  1  0.85061249  0.89085951  0.67193483  1
  H+  H203  1  0.11819021  0.60554884  0.51309149  1
  H+  H204  1  0.38997639  0.88920282  0.18010171  1
  H+  H205  1  0.12832119  1.02592924  -0.00282293  1
  H+  H206  1  0.27418800  0.12941809  0.16263263  1
  H+  H207  1  0.73288128  0.88837747  -0.00976350  1
  H+  H208  1  0.37139247  0.27293301  0.65177874  1
  H+  H209  1  0.89698427  0.61929030  0.32764970  1
  H+  H210  1  0.73478738  0.13420830  0.33587603  1
  H+  H211  1  0.10420046  0.14228060  0.00691477  1
  H+  H212  1  0.63841819  0.28081573  0.49713871  1
  H+  H213  1  0.50861815  0.26001583  0.73751476  1
  H+  H214  1  0.40236341  0.82154359  0.44288933  1
  H+  H215  1  0.02608931  0.12498058  0.20231943  1
  H+  H216  1  0.36088520  0.98096756  0.34095630  1
  H+  H217  1  0.27344125  0.63824256  0.67405034  1
  H+  H218  1  0.38807314  0.36627955  0.50657137  1
  H+  H219  1  0.63511263  1.02951232  0.84621259  1
  H+  H220  1  0.64227635  0.41409577  0.81387537  1
  H+  H221  1  0.39294081  0.11561665  0.32688783  1
  H+  H222  1  0.35101502  0.88511587  0.48867862  1
  H+  H223  1  0.85676518  0.13691384  0.00000532  1
  H+  H224  1  0.65463897  0.83111017  0.74505453  1
  H+  H225  1  0.07746125  0.41259875  0.59293235  1
  H+  H226  1  0.14439244  0.87217914  -0.01086893  1
  H+  H227  1  0.63232633  0.04125710  1.00108523  1
  H+  H228  1  0.31479438  0.40879079  0.33546816  1
  H+  H229  1  0.89476520  0.36245475  0.84627871  1
  H+  H230  1  0.88108876  0.78189406  0.66127844  1
  H+  H231  1  0.53762151  0.40531268  0.66761130  1
  H+  H232  1  0.63340658  0.12923391  0.18580807  1
  H+  H233  1  0.40416097  0.11803559  0.50076893  1
  H+  H234  1  0.88345054  0.61807038  0.98945836  1
  H+  H235  1  0.64216829  0.28083342  0.32905068  1
  H+  H236  1  0.38156327  0.26642228  0.17013799  1
  H+  H237  1  0.60647774  0.90004594  0.68877296  1
  H+  H238  1  0.65610530  0.66010377  0.86573795  1
  H+  H239  1  0.72853915  0.37298410  0.49606437  1
  H+  H240  1  0.01625945  0.64005668  0.00517514  1
  H+  H241  1  0.53372804  0.91582592  0.16551237  1
  H+  H242  1  0.87909516  0.14857780  0.15697318  1
  H+  H243  1  0.37339369  0.90142886  0.69681880  1
  H+  H244  1  0.89272255  0.27881748  0.32435883  1
  H+  H245  1  0.78791420  0.63807095  0.33225264  1
  H+  H246  1  0.73137046  0.37260514  0.17320631  1
  H+  H247  1  0.61724066  0.89091137  0.50586100  1
  H+  H248  1  0.87256491  0.47996314  0.15817148  1
  H+  H249  1  0.73560359  0.37664982  -0.01580993  1
  H+  H250  1  0.10166723  0.86807789  0.49816811  1
  H+  H251  1  0.93967126  0.63142843  0.18118564  1
  H+  H252  1  0.37714115  0.33683019  0.83879919  1
  H+  H253  1  0.22201907  0.62348601  -0.02390637  1
  H+  H254  1  0.52921386  0.39736512  0.49068820  1
  H+  H255  1  0.52828247  0.62469649  0.00461933  1
  H+  H256  1  0.36062607  0.72558888  1.00218591  1
  H+  H257  1  0.36766728  0.98038240  0.00983506  1
  H+  H258  1  0.62189690  0.73150276  0.32929022  1
  H+  H259  1  0.95134797  0.11443401  0.32923472  1
  H+  H260  1  0.84670709  0.63465869  0.68178804  1
  H+  H261  1  0.64447944  0.27546171  0.84243424  1
  H+  H262  1  0.90137553  0.82736687  0.56092456  1
  H+  H263  1  0.26639114  0.88527110  0.16325413  1
  H+  H264  1  0.50473819  0.89596855  0.33976925  1
  H+  H265  1  0.85971627  1.02983712  0.33818208  1
  H+  H266  1  0.06437496  0.22899874  0.33056209  1
  H+  H267  1  0.62146365  0.68519883  0.92439914  1
  H+  H268  1  0.46864569  0.61466976  0.64257242  1
  H+  H269  1  0.88135595  0.12048195  0.66114672  1
  H+  H270  1  0.60961357  0.89218281  0.82528411  1
  H+  H271  1  0.53179119  0.15094313  0.83504373  1
  H+  H272  1  0.88097709  0.27223603  0.00157042  1
  H+  H273  1  0.78702670  0.39140298  0.34551984  1
  H+  H274  1  0.41208108  0.59685283  0.85042425  1
  H+  H275  1  0.64095407  0.36849392  0.98216064  1
  H+  H276  1  0.88172062  0.61438740  0.51433939  1
  H+  H277  1  0.52481613  0.38095492  0.00172476  1
  H+  H278  1  0.20781257  0.30641002  0.35276677  1
  H+  H279  1  0.11588497  0.51463179  0.51755982  1
  H+  H280  1  0.05813558  0.04223001  0.66080386  1
  H+  H281  1  0.39644518  0.27059292  0.32212739  1
  H+  H282  1  0.63912937  0.03701564  0.18057057  1
  H+  H283  1  0.10355171  0.21728133  0.81473310  1
  H+  H284  1  0.47557533  0.11275086  0.17932828  1
  H+  H285  1  0.85805965  0.88728638  0.16360198  1
  H+  H286  1  0.44541653  0.87553690  0.28112647  1
  H+  H287  1  0.72665315  0.11654486  0.84448916  1
  H+  H288  1  0.06481902  0.15360609  0.42891496  1
  H+  H289  1  0.84616247  0.42380419  0.76677452  1
  H+  H290  1  0.63167121  0.78466097  0.16822746  1
  H+  H291  1  0.41339745  0.07974126  0.23617881  1
  H+  H292  1  0.36067256  0.37755960  0.00955946  1
  H+  H293  1  0.42037002  0.57106351  0.94539768  1
  H+  H294  1  0.83497011  0.92111402  0.06593282  1
  H+  H295  1  0.13695133  0.33202485  0.23809406  1
  H+  H296  1  0.82197549  0.66652687  0.06539877  1
  H+  H297  1  0.44493017  0.07609844  0.59209312  1
  H+  H298  1  0.08989255  0.66511931  0.08940210  1
  H+  H299  1  0.32145670  0.68801986  0.41942244  1
  H+  H300  1  0.37706478  0.76713878  0.50042158  1
  H+  H301  1  0.52390685  0.38729081  0.15373233  1
  H+  H302  1  0.65727125  0.58417695  0.23092304  1
  H+  H303  1  0.41912263  0.83088255  0.93921849  1
  H+  H304  1  0.26540122  0.38268817  0.66604222  1
  H+  H305  1  0.58893857  0.41569364  0.05856711  1
  H+  H306  1  0.13855201  0.76466452  0.17152048  1
  H+  H307  1  0.91849048  0.33158611  0.90654291  1
  H+  H308  1  0.65749858  0.67633626  0.76296161  1
  H+  H309  1  0.66305876  0.09637784  0.94043846  1
  H+  H310  1  0.91039472  0.82847948  0.93451105  1
  H+  H311  1  0.67510269  0.34267681  0.27089091  1
  H+  H312  1  0.67266408  0.84438773  0.26479752  1
  H+  H313  1  0.45187784  0.60740287  0.49426639  1
  H+  H314  1  0.26960774  0.13515746  0.00690499  1
  H+  H315  1  0.17625378  0.05941790  0.23867804  1
  H+  H316  1  0.42012276  0.32610797  0.23032826  1
  H+  H317  1  0.07330496  0.90712590  0.77902177  1
  H+  H318  1  0.36945895  0.57541069  0.12717413  1
  H+  H319  1  0.73501600  0.38497966  0.64264074  1
  H+  H320  1  0.69935614  0.71471551  0.75418455  1
  H+  H321  1  0.91184320  0.08031091  0.90157715  1
  H+  H322  1  0.67690831  0.87251511  0.93106220  1
  H+  H323  1  0.16343769  0.31480059  0.59690436  1
  H+  H324  1  0.59159593  0.94131427  0.10487388  1
  H+  H325  1  0.32889143  0.16167172  0.06648952  1
  H+  H326  1  0.31474298  0.65440326  0.05381184  1
  H+  H327  1  0.38467423  0.60822234  0.99701895  1
  H+  H328  1  0.83055757  0.42861115  0.06024402  1
  H+  H329  1  0.88148783  0.28005631  0.55364996  1
  H+  H330  1  0.57437291  0.92774939  0.77268570  1
  H+  H331  1  0.13458441  0.53655757  0.98195481  1
  H+  H332  1  0.40272689  0.57361398  0.55895944  1
  H+  H333  1  0.18337847  0.36917430  0.90729064  1
  H+  H334  1  0.93533295  0.58467672  0.27496022  1
  H+  H335  1  0.06874698  0.89346248  0.10577474  1
  H+  H336  1  0.40370176  0.84495431  0.61492963  1
  H+  H337  1  0.34272743  0.41155941  0.43145706  1
  H+  H338  1  0.61885403  0.44928890  0.75504181  1
  H+  H339  1  0.09809995  0.43206496  0.05904726  1
  H+  H340  1  0.83888764  0.16450090  0.09695251  1
  H+  H341  1  0.90832301  0.08651721  0.56396317  1
  H+  H342  1  0.16065194  0.81961622  0.23391331  1
  H+  H343  1  0.31964078  0.38426543  0.76118259  1
  H+  H344  1  0.83603073  0.17157639  0.73651511  1
  H+  H345  1  0.86898602  0.35375070  0.64691843  1
  H+  H346  1  0.07614906  0.89052445  0.40303906  1
  H+  H347  1  0.35544700  0.17829397  0.39541931  1
  H+  H348  1  0.01023311  0.87377948  0.83772290  1
  H+  H349  1  0.58413531  0.42112649  0.39396613  1
  H+  H350  1  0.03995275  0.79223287  0.03558015  1
  H+  H351  1  0.44746944  0.57686201  0.25224570  1
  H+  H352  1  0.31930613  0.91649506  0.43218858  1
  H+  H353  1  0.61921253  0.90919821  0.01081764  1
  H+  H354  1  0.60741376  0.16697621  0.02272243  1
  H+  H355  1  0.86317327  0.61030426  0.83822881  1
  H+  H356  1  0.02146979  0.31859359  0.29328322  1
  H+  H357  1  0.67580374  0.59531400  0.55067459  1
  H+  H358  1  0.07917167  0.01132237  0.59865493  1
  H+  H359  1  0.91413962  0.59209196  0.92819376  1
  H+  H360  1  0.92922015  0.84921574  0.26354879  1
  H+  H361  1  0.07657097  0.66756876  0.44550453  1
  H+  H362  1  0.67213340  0.35752895  0.58300534  1
  H+  H363  1  0.10721030  0.23122370  0.00137095  1
  H+  H364  1  0.68143164  0.34731642  0.90722849  1
  H+  H365  1  0.62972770  0.41450371  0.65569674  1
  H+  H366  1  0.63084920  0.78092803  0.68177110  1
  H+  H367  1  0.24444675  0.86933264  0.67051351  1
  H+  H368  1  0.67029700  0.09532106  0.24767324  1
  H+  H369  1  0.42188892  0.34179397  0.56730108  1
  H+  H370  1  0.84140165  0.92087091  0.77109221  1
  H+  H371  1  0.77698275  0.35286524  0.70572147  1
  H+  H372  1  0.60967200  0.93421755  0.40924512  1
  H+  H373  1  0.25232242  0.62611172  0.50682403  1
  H+  H374  1  0.78339495  0.78503515  0.38496053  1
  H+  H375  1  0.65382005  0.79854652  0.56305180  1
  H+  H376  1  0.06818557  0.15311912  0.75846703  1
  H+  H377  1  0.84376915  0.66813172  0.39270059  1
  H+  H378  1  0.21908924  0.86009202  0.51196055  1
  H+  H379  1  0.41748195  0.08304670  0.93964690  1
  H+  H380  1  0.09318480  0.43026499  0.42378007  1
  H+  H381  1  0.26574027  0.59696116  0.16508487  1
  H+  H382  1  0.82105798  0.87903155  0.41096804  1
  H+  H383  1  0.64147015  0.54219683  0.64726769  1
  O2-  O384  1  0.08739852  0.15558268  0.21670174  1
  O2-  O385  1  0.06776731  0.15345651  0.47350183  1
  O2-  O386  1  0.07034196  0.15630910  0.80504997  1
  O2-  O387  1  0.09092006  0.41430036  0.14071294  1
  O2-  O388  1  0.06831093  0.39577254  0.50360965  1
  O2-  O389  1  0.20162056  0.53396849  0.82179513  1
  O2-  O390  1  0.10096383  0.66338706  0.13573528  1
  O2-  O391  1  0.07420057  0.66292070  0.49082488  1
  O2-  O392  1  0.05018639  0.72862124  0.72883077  1
  O2-  O393  1  0.07199373  0.90145834  0.15067876  1
  O2-  O394  1  0.07149613  0.89363747  0.47528673  1
  O2-  O395  1  0.07130863  0.91339144  0.82443255  1
  O2-  O396  1  0.33380159  0.16449074  0.14639219  1
  O2-  O397  1  0.41004032  0.20899754  0.46257365  1
  O2-  O398  1  0.32018388  0.14698710  0.86526919  1
  O2-  O399  1  0.32260615  0.40074925  0.18548233  1
  O2-  O400  1  0.32966801  0.40554054  0.47564735  1
  O2-  O401  1  0.30614575  0.35412776  0.80060653  1
  O2-  O402  1  0.31426952  0.62965888  0.13511061  1
  O2-  O403  1  0.31420923  0.65769137  0.49339192  1
  O2-  O404  1  0.36558491  0.65222918  0.80731695  1
  O2-  O405  1  0.32687943  0.91734312  0.14779641  1
  O2-  O406  1  0.31948026  0.91541993  0.47795966  1
  O2-  O407  1  0.36153550  0.99435881  0.82877353  1
  O2-  O408  1  0.58581273  0.17250883  0.16342093  1
  O2-  O409  1  0.58927714  0.17120235  0.47556144  1
  O2-  O410  1  0.59455300  0.18435016  0.83097319  1
  O2-  O411  1  0.58454998  0.41936412  0.14034991  1
  O2-  O412  1  0.58560862  0.42347559  0.46963797  1
  O2-  O413  1  0.63362351  0.46061332  0.79887174  1
  O2-  O414  1  0.58395523  0.67596084  0.13620117  1
  O2-  O415  1  0.53897398  0.69329702  0.45163403  1
  O2-  O416  1  0.61830375  0.68243838  0.87955946  1
  O2-  O417  1  0.59429304  0.94340757  0.15109966  1
  O2-  O418  1  0.59448597  0.92579807  0.48734852  1
  O2-  O419  1  0.57497654  0.92072669  0.81817676  1
  O2-  O420  1  0.84893243  0.17782773  0.14115639  1
  O2-  O421  1  0.84538806  0.18913137  0.48774750  1
  O2-  O422  1  0.82842664  0.16536331  0.81702986  1
  O2-  O423  1  0.83366231  0.42336381  0.13953745  1
  O2-  O424  1  0.82451092  0.41960056  0.48405555  1
  O2-  O425  1  0.84059114  0.42105475  0.81205736  1
  O2-  O426  1  0.81176123  0.66680944  0.14841727  1
  O2-  O427  1  0.83792719  0.66650571  0.47067543  1
  O2-  O428  1  0.81019237  0.65870279  0.81871126  1
  O2-  O429  1  0.83266545  0.92072524  0.14680246  1
  O2-  O430  1  0.82604563  0.91927978  0.47924659  1
  O2-  O431  1  0.83649880  0.91402486  0.81632310  1
  O2-  O432  1  0.17198222  0.06746345  0.19439998  1
  O2-  O433  1  0.12373949  0.04887867  0.53387333  1
  O2-  O434  1  0.14793435  0.07788388  0.86120704  1
  O2-  O435  1  0.16003923  0.32445781  0.19773880  1
  O2-  O436  1  0.16226990  0.31689240  0.51749574  1
  O2-  O437  1  0.18590443  0.38544687  0.86243610  1
  O2-  O438  1  0.19058674  0.53740406  0.21372160  1
  O2-  O439  1  0.14998945  0.57614541  0.52804359  1
  O2-  O440  1  0.13323007  0.54832807  0.84361649  1
  O2-  O441  1  0.16034490  0.82343496  0.18833776  1
  O2-  O442  1  0.16086632  0.82841074  0.53077876  1
  O2-  O443  1  0.19472952  0.88999410  0.85781507  1
  O2-  O444  1  0.41339591  0.08046835  0.19040883  1
  O2-  O445  1  0.42466045  0.07899535  0.51443674  1
  O2-  O446  1  0.41206480  0.08205573  0.85406655  1
  O2-  O447  1  0.41064969  0.32785289  0.18518760  1
  O2-  O448  1  0.42486273  0.34279743  0.52206217  1
  O2-  O449  1  0.41249520  0.31651065  0.86098395  1
  O2-  O450  1  0.40303359  0.54488231  0.12428158  1
  O2-  O451  1  0.39561805  0.56838721  0.51335063  1
  O2-  O452  1  0.43676972  0.56903424  0.87587647  1
  O2-  O453  1  0.43194172  0.87359716  0.19943047  1
  O2-  O454  1  0.41119905  0.82879654  0.48698935  1
  O2-  O455  1  0.41976799  0.81397794  0.85986905  1
  O2-  O456  1  0.66452460  0.09636133  0.20058095  1
  O2-  O457  1  0.68117114  0.10515526  0.52442910  1
  O2-  O458  1  0.66685709  0.08937896  0.86173763  1
  O2-  O459  1  0.67237488  0.34317807  0.19104728  1
  O2-  O460  1  0.66412922  0.34254830  0.50791404  1
  O2-  O461  1  0.68092053  0.34182923  0.85366222  1
  O2-  O462  1  0.65348616  0.58407827  0.18512460  1
  O2-  O463  1  0.67694525  0.59397820  0.50563522  1
  O2-  O464  1  0.72154068  0.61094966  0.84571336  1
  O2-  O465  1  0.66462636  0.84302825  0.18645992  1
  O2-  O466  1  0.65906563  0.81922779  0.52143362  1
  O2-  O467  1  0.66668970  0.83856385  0.83027767  1
  O2-  O468  1  0.91928170  0.08407703  0.19442493  1
  O2-  O469  1  0.90671637  0.08590897  0.51840051  1
  O2-  O470  1  0.90760553  0.07563558  0.85570608  1
  O2-  O471  1  0.92412686  0.34166577  0.12833068  1
  O2-  O472  1  0.89616503  0.27929484  0.50964495  1
  O2-  O473  1  0.91665218  0.32558303  0.86207058  1
  O2-  O474  1  0.94925761  0.58406368  0.19104532  1
  O2-  O475  1  0.90775995  0.58400252  0.53579885  1
  O2-  O476  1  0.90273066  0.58671105  0.84927671  1
  O2-  O477  1  0.91060810  0.82934995  0.19526530  1
  O2-  O478  1  0.90824750  0.83130928  0.51572234  1
  O2-  O479  1  0.90609586  0.81952278  0.85901698  1
  O2-  O480  1  0.17411990  0.06120042  0.32102589  1
  O2-  O481  1  0.05128333  -0.00977830  0.64031330  1
  O2-  O482  1  0.16180546  0.08447115  0.98222859  1
  O2-  O483  1  0.07945237  0.32261018  0.29959123  1
  O2-  O484  1  0.16037816  0.31799386  0.64215784  1
  O2-  O485  1  0.17226596  0.34120113  0.97663130  1
  O2-  O486  1  0.17208008  0.59841967  0.32972997  1
  O2-  O487  1  0.17510671  0.58966702  0.65341500  1
  O2-  O488  1  0.16056077  0.59508805  0.96369696  1
  O2-  O489  1  0.16573403  0.82535399  0.31176468  1
  O2-  O490  1  0.18552895  0.83564787  0.65342437  1
  O2-  O491  1  0.18919710  0.86709879  0.96580151  1
  O2-  O492  1  0.42034077  0.08202879  0.31260748  1
  O2-  O493  1  0.46587372  0.07510753  0.63349087  1
  O2-  O494  1  0.41229079  0.08044247  0.98457518  1
  O2-  O495  1  0.42713152  0.33065457  0.30574446  1
  O2-  O496  1  0.41052000  0.33461240  0.64704455  1
  O2-  O497  1  0.42174604  0.33112162  0.98255217  1
  O2-  O498  1  0.48008991  0.55634469  0.27499962  1
  O2-  O499  1  0.40615731  0.58094293  0.63371908  1
  O2-  O500  1  0.41521955  0.57518711  0.99179207  1
  O2-  O501  1  0.44377792  0.86725088  0.32567889  1
  O2-  O502  1  0.41065682  0.83872712  0.65821171  1
  O2-  O503  1  0.41791598  0.83245237  0.98445491  1
  O2-  O504  1  0.67586619  0.09715305  0.31644146  1
  O2-  O505  1  0.68126829  0.10356565  0.65208075  1
  O2-  O506  1  0.66354814  0.10140306  0.98576761  1
  O2-  O507  1  0.67405731  0.34227982  0.31620333  1
  O2-  O508  1  0.67466217  0.36651543  0.62816049  1
  O2-  O509  1  0.67775091  0.34673278  0.96371845  1
  O2-  O510  1  0.67760054  0.58457663  0.30579999  1
  O2-  O511  1  0.67179139  0.60332599  0.63179491  1
  O2-  O512  1  0.67652928  0.57313668  0.96876641  1
  O2-  O513  1  0.67149227  0.84065659  0.31035897  1
  O2-  O514  1  0.65785410  0.83951982  0.70019093  1
  O2-  O515  1  0.67386313  0.86980165  0.97534836  1
  O2-  O516  1  0.88795993  0.08546266  0.31794120  1
  O2-  O517  1  0.90974231  0.08881976  0.64282887  1
  O2-  O518  1  0.91252223  0.08716914  0.97614221  1
  O2-  O519  1  0.93497144  0.32704701  0.29859845  1
  O2-  O520  1  0.89693117  0.32084946  0.62942405  1
  O2-  O521  1  0.91824375  0.33666589  0.99608894  1
  O2-  O522  1  0.92976233  0.58794218  0.31930928  1
  O2-  O523  1  0.88332829  0.56458737  0.66200873  1
  O2-  O524  1  0.91466396  0.58918947  0.97372969  1
  O2-  O525  1  0.94613601  0.87525573  0.30663400  1
  O2-  O526  1  0.89417281  0.83494109  0.63813282  1
  O2-  O527  1  0.91264336  0.83127749  0.98040948  1
  O2-  O528  1  0.07199604  0.17175484  0.01701202  1
  O2-  O529  1  0.05415302  0.16898087  0.33708037  1
  O2-  O530  1  0.06625964  0.14839321  0.68635976  1
  O2-  O531  1  0.09441404  0.43208258  0.01397970  1
  O2-  O532  1  0.11034729  0.43957897  0.38065333  1
  O2-  O533  1  0.07038524  0.40393988  0.63720212  1
  O2-  O534  1  0.07602924  0.67235959  0.02164956  1
  O2-  O535  1  0.08553196  0.67476705  0.36659713  1
  O2-  O536  1  0.00728716  0.63661260  0.74363348  1
  O2-  O537  1  0.05550652  0.85229736  0.02975551  1
  O2-  O538  1  0.07960223  0.89594375  0.35667350  1
  O2-  O539  1  0.08477769  0.89107382  0.70735397  1
  O2-  O540  1  0.33020349  0.16238942  0.02115842  1
  O2-  O541  1  0.34304179  0.16910091  0.35085597  1
  O2-  O542  1  0.48062373  0.28719630  0.76267700  1
  O2-  O543  1  0.32910316  0.40621636  0.02504456  1
  O2-  O544  1  0.37227875  0.42960967  0.35186742  1
  O2-  O545  1  0.32668998  0.41370250  0.68010338  1
  O2-  O546  1  0.32511029  0.66204703  0.00966784  1
  O2-  O547  1  0.31552072  0.71503682  0.38128666  1
  O2-  O548  1  0.33795959  0.67134681  0.68344507  1
  O2-  O549  1  0.33460880  0.91795947  0.02231279  1
  O2-  O550  1  0.32966997  0.91997414  0.35590727  1
  O2-  O551  1  0.34473568  0.93552276  0.70438029  1
  O2-  O552  1  0.56851068  0.17979414  0.04625775  1
  O2-  O553  1  0.58394727  0.17278664  0.35405824  1
  O2-  O554  1  0.55367372  0.22589120  0.69325242  1
  O2-  O555  1  0.58765331  0.41264117  0.01333150  1
  O2-  O556  1  0.58562507  0.41961939  0.34810550  1
  O2-  O557  1  0.59910913  0.44370477  0.67505234  1
  O2-  O558  1  0.59131161  0.65634639  0.01224013  1
  O2-  O559  1  0.59813958  0.67289436  0.34720099  1
  O2-  O560  1  0.58027054  0.67307293  0.66049601  1
  O2-  O561  1  0.58458180  0.93311008  0.03009310  1
  O2-  O562  1  0.60948656  0.93766324  0.36381715  1
  O2-  O563  1  0.57754407  0.93392887  0.69652589  1
  O2-  O564  1  0.82986884  0.16905980  0.01793054  1
  O2-  O565  1  0.82779612  0.18658396  0.36669049  1
  O2-  O566  1  0.83739166  0.17099383  0.69123209  1
  O2-  O567  1  0.83239414  0.42478227  0.01494288  1
  O2-  O568  1  0.84651794  0.41933794  0.36118639  1
  O2-  O569  1  0.82086023  0.40004582  0.68278305  1
  O2-  O570  1  0.82877541  0.66764902  0.02065427  1
  O2-  O571  1  0.84783772  0.67205533  0.34718766  1
  O2-  O572  1  0.82532166  0.67481530  0.69286491  1
  O2-  O573  1  0.83552208  0.92305977  0.02070458  1
  O2-  O574  1  0.81126766  0.84507315  0.37195413  1
  O2-  O575  1  0.83172407  0.92785090  0.69300497  1
