# generated using pymatgen
data_H2O
_symmetry_space_group_name_H-M   'P 1'
_cell_length_a   17.99586916
_cell_length_b   18.00525587
_cell_length_c   22.00761865
_cell_angle_alpha   90.00428169
_cell_angle_beta   89.98918478
_cell_angle_gamma   120.01839047
_symmetry_Int_Tables_number   1
_chemical_formula_structural   H2O
_chemical_formula_sum   'H384 O192'
_cell_volume   6174.40750967
_cell_formula_units_Z   192
loop_
 _symmetry_equiv_pos_site_id
 _symmetry_equiv_pos_as_xyz
  1  'x, y, z'
loop_
 _atom_type_symbol
 _atom_type_oxidation_number
  H+  1.0
  O2-  -2.0
loop_
 _atom_site_type_symbol
 _atom_site_label
 _atom_site_symmetry_multiplicity
 _atom_site_fract_x
 _atom_site_fract_y
 _atom_site_fract_z
 _atom_site_occupancy
  H+  H0  1  0.12108524  0.12781139  0.17470520  1
  H+  H1  1  0.63906724  0.88258886  0.65346196  1
  H+  H2  1  0.50040812  0.86038526  0.48924498  1
  H+  H3  1  0.10535340  0.13388507  0.66395940  1
  H+  H4  1  0.08378630  0.68276614  0.06850901  1
  H+  H5  1  0.14469728  0.61914024  0.49401703  1
  H+  H6  1  0.29793443  0.41492795  0.49744626  1
  H+  H7  1  0.52715704  0.21277075  1.03837435  1
  H+  H8  1  0.14475763  0.37044782  0.65879466  1
  H+  H9  1  0.38515904  0.03203780  0.17737377  1
  H+  H10  1  0.85137881  0.96108548  0.35151626  1
  H+  H11  1  0.39237432  0.36870300  0.33665900  1
  H+  H12  1  0.62955200  0.51607154  0.33046444  1
  H+  H13  1  0.37577437  -0.01181635  0.66910376  1
  H+  H14  1  0.83616569  0.43066564  0.08584038  1
  H+  H15  1  0.27734340  0.88893592  0.34666225  1
  H+  H16  1  0.61548237  0.99724384  0.81306161  1
  H+  H17  1  0.39787575  0.88087589  0.83359848  1
  H+  H18  1  0.34630573  0.43056663  0.40185751  1
  H+  H19  1  0.14313326  0.78428651  0.99164087  1
  H+  H20  1  0.01784796  0.88251400  0.81938020  1
  H+  H21  1  0.72768328  0.63194816  0.66898407  1
  H+  H22  1  0.25850041  0.63121212  0.83607812  1
  H+  H23  1  0.64133033  0.84369391  0.32999098  1
  H+  H24  1  0.95079741  0.10977054  0.83052388  1
  H+  H25  1  0.10386036  0.64044164  0.16650688  1
  H+  H26  1  0.76871290  0.39824061  0.34290487  1
  H+  H27  1  0.23471662  0.36678600  0.33419698  1
  H+  H28  1  1.03032791  0.64470097  0.84073422  1
  H+  H29  1  0.14268391  0.26974669  0.18907429  1
  H+  H30  1  0.42076374  0.54324470  0.49780292  1
  H+  H31  1  0.63090789  0.79037204  0.66483297  1
  H+  H32  1  0.35940933  0.22984349  0.49942628  1
  H+  H33  1  0.39869148  0.88012258  0.17494660  1
  H+  H34  1  0.37067981  0.73258474  1.00885081  1
  H+  H35  1  0.23444964  0.62873812  0.33288330  1
  H+  H36  1  0.10384134  0.97313244  0.81486376  1
  H+  H37  1  0.60761333  0.66183574  0.67362950  1
  H+  H38  1  0.38821728  0.53738478  0.64720041  1
  H+  H39  1  0.58148456  0.84566381  0.49264200  1
  H+  H40  1  0.77129122  0.89058242  0.66496390  1
  H+  H41  1  0.37623988  0.77545626  0.51053241  1
  H+  H42  1  0.72323796  0.36574753  0.83258606  1
  H+  H43  1  0.10120124  0.96402383  0.66551653  1
  H+  H44  1  0.91683815  0.39176504  0.16075997  1
  H+  H45  1  0.11300383  0.47062375  0.66568877  1
  H+  H46  1  0.84246551  0.21986880  0.82367212  1
  H+  H47  1  1.01940027  0.88153956  0.49569390  1
  H+  H48  1  0.11352980  0.71655864  0.66009377  1
  H+  H49  1  0.14291265  0.01478404  0.18286373  1
  H+  H50  1  0.88359450  0.26976682  0.65964980  1
  H+  H51  1  0.84013301  0.43200014  0.40427552  1
  H+  H52  1  0.17213051  0.82960052  0.59529009  1
  H+  H53  1  0.15501997  0.07228683  0.60060257  1
  H+  H54  1  0.17732598  0.68222312  0.86785921  1
  H+  H55  1  0.88206838  0.61312886  0.84287125  1
  H+  H56  1  0.35840133  0.22626670  0.82808258  1
  H+  H57  1  0.25565120  0.16766118  0.02182865  1
  H+  H58  1  0.85992626  0.72289142  -0.00179641  1
  H+  H59  1  0.62491327  0.37737704  0.66006722  1
  H+  H60  1  0.08359244  0.12964189  0.01692170  1
  H+  H61  1  0.88116843  0.61695064  0.32636474  1
  H+  H62  1  0.37665555  0.50902908  0.17963605  1
  H+  H63  1  0.38896947  0.12233116  0.17899869  1
  H+  H64  1  0.89678355  0.08369719  0.16929453  1
  H+  H65  1  0.32248480  0.77777849  0.94447909  1
  H+  H66  1  0.82760368  0.93686754  0.52043762  1
  H+  H67  1  0.64894092  0.28052261  0.17704403  1
  H+  H68  1  0.09324831  0.21023853  0.81775280  1
  H+  H69  1  0.87723760  0.85822693  0.98958310  1
  H+  H70  1  0.22386876  0.26752811  0.85098851  1
  H+  H71  1  0.66487550  0.33571157  0.89230947  1
  H+  H72  1  0.14937165  0.27401744  1.00104217  1
  H+  H73  1  0.45520633  0.60357248  0.17519729  1
  H+  H74  1  0.35997371  0.97771573  0.81881918  1
  H+  H75  1  0.08757467  0.69189186  0.39305056  1
  H+  H76  1  0.77713219  0.39262158  0.15710523  1
  H+  H77  1  0.47335252  0.62201193  0.84481136  1
  H+  H78  1  0.96614939  0.06600620  0.96262001  1
  H+  H79  1  0.92125368  0.33623263  0.60357516  1
  H+  H80  1  0.07233926  -0.00649941  0.99203005  1
  H+  H81  1  0.13455355  0.40105490  0.49421878  1
  H+  H82  1  0.76380657  0.62990988  0.33818469  1
  H+  H83  1  0.87310963  0.17115782  0.49190771  1
  H+  H84  1  0.61557974  0.38893046  0.82156958  1
  H+  H85  1  0.63497227  0.51635510  0.17489799  1
  H+  H86  1  0.61293876  0.07103781  0.88034909  1
  H+  H87  1  0.61437062  0.60315637  0.17940668  1
  H+  H88  1  0.88337586  0.86508366  0.83027771  1
  H+  H89  1  -0.03574053  0.85334872  -0.01041188  1
  H+  H90  1  0.37033334  0.38360339  0.17169552  1
  H+  H91  1  0.16001312  0.07791232  0.98985060  1
  H+  H92  1  0.12164609  0.13907695  0.35039442  1
  H+  H93  1  0.23302324  0.10195850  0.18145067  1
  H+  H94  1  0.60869634  0.13604809  0.81379641  1
  H+  H95  1  0.11086039  0.73843890  0.83732428  1
  H+  H96  1  0.72787999  0.83962519  0.33610316  1
  H+  H97  1  0.64404630  0.37173092  0.33015158  1
  H+  H98  1  0.48657388  0.85255011  0.31968668  1
  H+  H99  1  0.02049473  0.16504047  0.02928162  1
  H+  H100  1  0.73194089  0.87200688  0.81901578  1
  H+  H101  1  0.56087707  0.65003910  0.40275160  1
  H+  H102  1  0.04950393  0.24648797  0.45736153  1
  H+  H103  1  0.08335836  0.51848471  0.20533270  1
  H+  H104  1  0.89374282  0.85252784  0.17411735  1
  H+  H105  1  0.08137606  0.11927214  0.81235888  1
  H+  H106  1  0.47690660  0.36905177  0.50462672  1
  H+  H107  1  0.64022108  0.52783702  -0.01105093  1
  H+  H108  1  0.41264512  0.29074516  0.18501365  1
  H+  H109  1  0.63039546  0.06139583  0.42480811  1
  H+  H110  1  -0.01681224  0.61917409  -0.00594188  1
  H+  H111  1  0.85623272  0.97763010  0.81572988  1
  H+  H112  1  0.60924753  0.70971202  0.17022231  1
  H+  H113  1  0.24242578  0.63342531  0.01633927  1
  H+  H114  1  0.22839690  0.86506592  0.50249748  1
  H+  H115  1  0.64079426  0.28794528  0.99438258  1
  H+  H116  1  0.39177790  0.77608628  0.31932299  1
  H+  H117  1  0.16573247  0.36609118  0.98592493  1
  H+  H118  1  0.87548977  0.14814983  0.00688157  1
  H+  H119  1  0.52400312  0.38358530  0.34293663  1
  H+  H120  1  0.13610342  0.86053425  0.50312455  1
  H+  H121  1  0.44221895  0.60828679  0.58696673  1
  H+  H122  1  0.13643682  0.01848515  0.51137561  1
  H+  H123  1  0.35740508  0.13622210  0.83100652  1
  H+  H124  1  1.02006919  0.63566448  0.65698915  1
  H+  H125  1  0.38488818  0.03603874  0.33404193  1
  H+  H126  1  0.63942036  0.40204672  0.15844441  1
  H+  H127  1  0.63348985  0.52651131  0.83384761  1
  H+  H128  1  0.50560628  0.39529224  0.65455706  1
  H+  H129  1  0.27409548  0.89832237  0.00986894  1
  H+  H130  1  0.39102648  0.87794681  0.65970300  1
  H+  H131  1  0.52685793  0.91138287  0.16231451  1
  H+  H132  1  0.76518183  0.15293713  0.15726683  1
  H+  H133  1  0.88651991  0.85598522  0.33347609  1
  H+  H134  1  0.85482577  0.13022315  0.67127018  1
  H+  H135  1  0.48020457  0.87865233  0.65130775  1
  H+  H136  1  0.60978665  0.64344493  0.82408308  1
  H+  H137  1  0.38243740  0.39804207  0.00968936  1
  H+  H138  1  0.39095357  1.01877625  -0.00806973  1
  H+  H139  1  0.47480546  0.11776872  0.82959231  1
  H+  H140  1  0.96509699  0.36526739  0.83236056  1
  H+  H141  1  0.97319588  0.85805318  0.65706910  1
  H+  H142  1  0.30702378  0.21185607  0.13037842  1
  H+  H143  1  0.87550720  0.61708365  0.65459402  1
  H+  H144  1  0.80098757  0.40244281  0.50086813  1
  H+  H145  1  0.38017272  0.48959028  0.83745716  1
  H+  H146  1  0.33792547  0.67320350  0.39775332  1
  H+  H147  1  0.33985546  0.18773261  0.67580955  1
  H+  H148  1  0.63477046  0.11948593  0.64075494  1
  H+  H149  1  0.60938553  0.22574690  0.81633827  1
  H+  H150  1  0.14513937  0.55222446  1.00453703  1
  H+  H151  1  0.51876974  0.88842781  0.00512818  1
  H+  H152  1  0.74075204  0.13365445  0.48579168  1
  H+  H153  1  0.88549799  0.86365613  0.65590454  1
  H+  H154  1  0.12458616  0.65791693  0.01411138  1
  H+  H155  1  0.39311287  0.52923521  1.00195257  1
  H+  H156  1  0.85382010  0.63575956  0.49119648  1
  H+  H157  1  0.83612845  0.90334840  0.10060331  1
  H+  H158  1  0.96233680  0.37686467  0.98634995  1
  H+  H159  1  0.85886377  0.72698602  0.82428257  1
  H+  H160  1  0.35547870  0.88769602  0.00639167  1
  H+  H161  1  0.64760946  0.28457599  0.33214729  1
  H+  H162  1  0.51251823  0.12970447  0.66247707  1
  H+  H163  1  0.98663601  0.09499657  0.18648852  1
  H+  H164  1  0.41099325  0.15231706  0.00917993  1
  H+  H165  1  0.85786764  0.73145009  0.67291042  1
  H+  H166  1  0.42508830  0.24816362  1.00671855  1
  H+  H167  1  0.22311982  0.10859209  0.51415396  1
  H+  H168  1  0.12390659  0.59576753  0.65172200  1
  H+  H169  1  0.89109013  0.40657649  0.49289744  1
  H+  H170  1  0.02368789  0.81624938  0.05056112  1
  H+  H171  1  0.38273195  0.42889197  0.66003960  1
  H+  H172  1  0.85065999  -0.03326236  1.00279730  1
  H+  H173  1  0.84884404  0.86363790  0.50458553  1
  H+  H174  1  0.41136875  0.32835745  0.67241051  1
  H+  H175  1  0.20383427  0.09279579  0.66546613  1
  H+  H176  1  0.13277423  0.39901671  0.34052384  1
  H+  H177  1  0.21489182  0.11136246  0.83719659  1
  H+  H178  1  1.02908066  0.64997076  0.48302882  1
  H+  H179  1  0.60070910  0.14279289  0.36220130  1
  H+  H180  1  0.61291499  0.71737086  1.02588796  1
  H+  H181  1  0.57386750  0.70296116  0.50563471  1
  H+  H182  1  0.86409029  0.39059276  0.66978728  1
  H+  H183  1  0.77258805  0.38353592  0.66521774  1
  H+  H184  1  0.35888546  0.63611665  0.33770214  1
  H+  H185  1  0.97438753  0.62518057  0.32376717  1
  H+  H186  1  0.97491328  0.11490722  0.65002302  1
  H+  H187  1  0.38153880  0.40618757  0.49510133  1
  H+  H188  1  0.37559261  0.10984517  0.51862604  1
  H+  H189  1  0.72793352  0.83423109  0.17659752  1
  H+  H190  1  0.85771873  0.16982535  0.17244739  1
  H+  H191  1  0.86571950  0.49179763  0.15741622  1
  H+  H192  1  0.37609750  0.64843557  0.49022850  1
  H+  H193  1  0.85785174  0.20909958  0.42966055  1
  H+  H194  1  0.68763587  0.34572857  0.46861105  1
  H+  H195  1  0.80516761  0.03838774  0.30659799  1
  H+  H196  1  0.16120340  0.29701397  0.50731762  1
  H+  H197  1  0.86655653  0.49638470  0.34110231  1
  H+  H198  1  0.38715292  0.27619290  0.33765429  1
  H+  H199  1  0.61611613  0.96579595  -0.00375389  1
  H+  H200  1  0.42216333  0.34834626  0.56533984  1
  H+  H201  1  0.39372539  0.75333310  0.69862829  1
  H+  H202  1  0.86838031  0.95579266  0.16296205  1
  H+  H203  1  0.31770232  0.59206957  0.82623087  1
  H+  H204  1  0.52309469  0.15539188  0.34215259  1
  H+  H205  1  0.89800050  0.54027566  0.50056571  1
  H+  H206  1  0.91037544  0.83494030  0.89115699  1
  H+  H207  1  -0.00224936  0.38660444  0.50752591  1
  H+  H208  1  0.52745366  0.14828486  0.16827101  1
  H+  H209  1  0.10066525  0.86409145  0.34879568  1
  H+  H210  1  0.62074804  0.85276313  1.00805584  1
  H+  H211  1  0.72289571  0.11898003  0.64245622  1
  H+  H212  1  0.88463085  0.16835411  0.34498542  1
  H+  H213  1  0.76296790  0.87783409  1.01117318  1
  H+  H214  1  0.12433538  0.22926404  0.34314757  1
  H+  H215  1  0.87877366  0.76611277  0.50600104  1
  H+  H216  1  0.60762124  0.71302357  0.34581265  1
  H+  H217  1  0.88355296  0.61386511  0.16728319  1
  H+  H218  1  0.87162960  0.49020052  1.00879974  1
  H+  H219  1  0.61227503  0.95193915  0.35193728  1
  H+  H220  1  1.02712629  0.37854168  0.67072055  1
  H+  H221  1  0.61705163  0.90697753  0.80350144  1
  H+  H222  1  0.85975183  0.10741468  0.83501245  1
  H+  H223  1  0.66257719  0.58530540  0.89383054  1
  H+  H224  1  0.20619533  0.65132547  0.92586505  1
  H+  H225  1  0.11463296  0.47746484  0.81725798  1
  H+  H226  1  0.69750771  0.82562305  0.51092844  1
  H+  H227  1  0.62980368  0.25995590  0.64972520  1
  H+  H228  1  0.48307040  0.61429924  1.00333904  1
  H+  H229  1  0.37179049  0.64563774  1.01456814  1
  H+  H230  1  0.65528150  0.58777932  0.57232100  1
  H+  H231  1  0.36615283  0.48092310  0.33868156  1
  H+  H232  1  0.12021705  0.73562138  0.48448103  1
  H+  H233  1  0.10476101  0.86821814  0.00951552  1
  H+  H234  1  0.29110333  0.55103921  0.15340256  1
  H+  H235  1  0.02764200  0.88249069  0.17380124  1
  H+  H236  1  0.27352015  0.89137538  0.17141806  1
  H+  H237  1  0.63297023  0.02939691  0.16453304  1
  H+  H238  1  0.14619920  0.63251444  0.33564721  1
  H+  H239  1  0.09260320  0.42848245  -0.03483704  1
  H+  H240  1  0.87493752  0.72435723  0.15837224  1
  H+  H241  1  0.86070800  0.39318564  1.00908563  1
  H+  H242  1  0.60705652  0.38916428  0.49443258  1
  H+  H243  1  0.23055567  0.35754695  0.18338095  1
  H+  H244  1  0.28073747  0.63772338  0.49084669  1
  H+  H245  1  0.61233177  0.73414963  0.82348756  1
  H+  H246  1  0.64764263  0.47440040  0.65755848  1
  H+  H247  1  0.13926739  0.01526938  0.33692737  1
  H+  H248  1  0.28714164  0.41649078  0.66001354  1
  H+  H249  1  0.88110111  0.05274498  0.48160901  1
  H+  H250  1  0.97325161  0.13199381  0.49670758  1
  H+  H251  1  0.88188768  0.76544439  0.32916040  1
  H+  H252  1  0.34927585  0.68018472  0.74752671  1
  H+  H253  1  0.91782868  0.59881775  0.55910461  1
  H+  H254  1  0.43105188  0.84490671  0.22869253  1
  H+  H255  1  0.36003583  0.88978606  0.49820055  1
  H+  H256  1  0.94883100  0.35540359  0.25838601  1
  H+  H257  1  0.89444023  0.26155659  0.33613565  1
  H+  H258  1  0.39602706  0.37456547  0.83665733  1
  H+  H259  1  0.74999117  0.13283064  0.82676461  1
  H+  H260  1  0.13794044  0.85693431  0.19644104  1
  H+  H261  1  0.34385228  0.27815387  0.96798065  1
  H+  H262  1  0.04970701  0.38293952  0.12752528  1
  H+  H263  1  0.00288606  0.38403627  0.31980091  1
  H+  H264  1  0.64668551  0.81553869  0.57264339  1
  H+  H265  1  0.90193539  0.29887474  0.16006517  1
  H+  H266  1  0.74212971  0.09626050  -0.01797955  1
  H+  H267  1  0.14160686  0.87568955  0.83838568  1
  H+  H268  1  0.29066102  0.38785840  0.01140268  1
  H+  H269  1  0.49080954  0.88882234  0.83091299  1
  H+  H270  1  0.26774688  0.15202012  0.99342361  1
  H+  H271  1  0.27438400  0.13775068  0.34831785  1
  H+  H272  1  0.13191755  0.48964560  0.34360940  1
  H+  H273  1  0.87699247  0.52879681  0.65132802  1
  H+  H274  1  0.35895274  0.97934273  0.50263797  1
  H+  H275  1  0.61972330  0.39388644  0.00004431  1
  H+  H276  1  0.59175277  0.41906837  0.76035691  1
  H+  H277  1  0.61596849  0.14593195  0.16435769  1
  H+  H278  1  0.61804201  0.63220493  0.01292536  1
  H+  H279  1  1.01884852  0.87510681  0.34188415  1
  H+  H280  1  0.46779252  0.61007334  0.32436651  1
  H+  H281  1  0.62496670  0.60333686  0.33239823  1
  H+  H282  1  0.86591679  0.63661175  0.00138125  1
  H+  H283  1  0.53133771  0.39379659  1.00753010  1
  H+  H284  1  0.29473822  0.40066434  0.82378076  1
  H+  H285  1  0.23050983  0.87379374  0.83753787  1
  H+  H286  1  0.38560344  0.09716306  0.66518439  1
  H+  H287  1  0.61787714  0.99180643  0.65220930  1
  H+  H288  1  0.01763228  0.64228685  0.16060658  1
  H+  H289  1  0.91970682  0.58342949  0.93502366  1
  H+  H290  1  0.58056668  0.16653190  0.71913772  1
  H+  H291  1  0.90362180  0.33616848  0.89085908  1
  H+  H292  1  0.67074786  0.09341703  0.22568765  1
  H+  H293  1  0.17256469  0.84865962  0.93324508  1
  H+  H294  1  0.82808702  0.90267448  0.41192445  1
  H+  H295  1  0.63042956  0.56416239  0.68772874  1
  H+  H296  1  0.32670163  0.92296551  0.10859121  1
  H+  H297  1  0.88162011  0.52459618  0.84040112  1
  H+  H298  1  0.42347632  0.34119198  0.24643169  1
  H+  H299  1  0.33219635  0.16929878  0.44140763  1
  H+  H300  1  0.64998732  0.57243634  0.24250025  1
  H+  H301  1  0.91110647  0.82469576  0.56682278  1
  H+  H302  1  0.34093315  0.41102279  0.10980972  1
  H+  H303  1  0.18934912  0.35168552  0.56891579  1
  H+  H304  1  0.91957009  0.82529646  0.23703638  1
  H+  H305  1  0.32447988  0.93133214  0.40893768  1
  H+  H306  1  0.57203481  0.87648095  0.39898880  1
  H+  H307  1  0.84277436  0.66782682  0.09698313  1
  H+  H308  1  0.57618444  0.64742559  0.11103682  1
  H+  H309  1  0.41655918  0.33005825  0.91956771  1
  H+  H310  1  0.83518039  0.92014371  0.75458655  1
  H+  H311  1  0.28440172  0.89442159  0.66980922  1
  H+  H312  1  0.07825822  0.91068372  0.43641826  1
  H+  H313  1  0.47945024  0.63923289  0.65712037  1
  H+  H314  1  0.15215518  0.28519772  0.65608156  1
  H+  H315  1  0.90891526  0.57979673  0.22907357  1
  H+  H316  1  0.55844808  0.17415668  0.44113009  1
  H+  H317  1  0.76915356  0.63812554  0.82471777  1
  H+  H318  1  0.14048175  0.07289413  0.88765162  1
  H+  H319  1  0.58622879  0.18935561  0.07533962  1
  H+  H320  1  0.68607174  0.34470850  0.23441426  1
  H+  H321  1  0.60822602  0.43204182  0.09901337  1
  H+  H322  1  0.82193979  0.65974728  0.39830544  1
  H+  H323  1  0.89959830  0.07310574  0.92230088  1
  H+  H324  1  0.48381782  0.10345324  0.98731986  1
  H+  H325  1  0.40977278  0.07876843  0.57913126  1
  H+  H326  1  0.33319462  0.91871814  0.75961245  1
  H+  H327  1  0.08753287  0.16202716  0.11928970  1
  H+  H328  1  0.83929140  0.17470421  0.06426818  1
  H+  H329  1  0.72951383  0.61535061  0.98830243  1
  H+  H330  1  0.13831880  0.85509160  0.65357910  1
  H+  H331  1  0.36634004  0.14449374  0.34577401  1
  H+  H332  1  0.63596782  0.80143595  0.95585697  1
  H+  H333  1  0.31432377  0.14789044  0.74206484  1
  H+  H334  1  0.69381628  0.06167732  0.91874526  1
  H+  H335  1  0.76285210  0.63414262  0.49434723  1
  H+  H336  1  0.61301026  0.60378998  0.51441659  1
  H+  H337  1  0.40901142  0.83797938  0.56974856  1
  H+  H338  1  0.14136621  0.78689222  0.28528904  1
  H+  H339  1  0.82910245  0.67075018  0.73312443  1
  H+  H340  1  0.18565091  0.30601947  0.89686006  1
  H+  H341  1  0.58620846  0.93916633  0.10164201  1
  H+  H342  1  0.73008871  0.37603685  0.98954963  1
  H+  H343  1  0.16105620  0.57111286  0.59511654  1
  H+  H344  1  0.07596018  0.90366752  0.72385509  1
  H+  H345  1  0.10000989  0.42244818  0.43185408  1
  H+  H346  1  0.66343198  0.08193771  0.53062659  1
  H+  H347  1  0.13470829  0.76879926  0.18531737  1
  H+  H348  1  0.57065036  0.67908936  0.73489619  1
  H+  H349  1  0.58507639  0.41856716  0.40115233  1
  H+  H350  1  0.82889586  0.42300069  0.76181231  1
  H+  H351  1  0.50121146  0.14036833  0.50351369  1
  H+  H352  1  0.15121413  0.44258107  0.11734894  1
  H+  H353  1  0.54229127  0.01019267  0.38986458  1
  H+  H354  1  0.60825947  0.47987319  0.49756275  1
  H+  H355  1  0.07136258  0.16582872  0.71943056  1
  H+  H356  1  0.90474615  0.30211926  0.50394629  1
  H+  H357  1  0.40449894  0.57909034  0.26563790  1
  H+  H358  1  0.17486800  0.33573870  0.27444808  1
  H+  H359  1  0.08106094  0.41979673  0.04092534  1
  H+  H360  1  0.86277490  0.97776170  0.66277822  1
  H+  H361  1  0.58981569  0.93852228  0.71562802  1
  H+  H362  1  0.41178479  0.84580363  0.92227995  1
  H+  H363  1  0.67738183  0.87254352  0.87439761  1
  H+  H364  1  0.87939627  0.28228897  0.99214955  1
  H+  H365  1  0.81756760  0.15613822  0.72881577  1
  H+  H366  1  0.42112046  0.59013284  0.90747191  1
  H+  H367  1  0.37013063  0.18857271  0.09769838  1
  H+  H368  1  0.66709836  0.32395013  0.59121309  1
  H+  H369  1  0.08995663  0.91001378  0.11629148  1
  H+  H370  1  0.88960667  0.05874699  0.27247611  1
  H+  H371  1  0.85572293  0.38922246  0.82027753  1
  H+  H372  1  0.15098332  0.58880006  0.24940680  1
  H+  H373  1  0.67233915  0.80792972  0.23736415  1
  H+  H374  1  0.07970504  0.18635574  0.42801921  1
  H+  H375  1  0.17040348  0.07563530  0.27885580  1
  H+  H376  1  0.42028191  0.08392689  0.89133019  1
  H+  H377  1  0.21012872  0.56161169  0.16332849  1
  H+  H378  1  0.61084334  0.26286924  0.50085966  1
  H+  H379  1  0.41809151  0.09232116  0.27276648  1
  H+  H380  1  0.91017374  0.08489629  0.59374739  1
  H+  H381  1  0.48036584  0.36402077  0.83225894  1
  H+  H382  1  0.14469553  0.52994335  0.49562663  1
  H+  H383  1  0.07659958  0.41586610  0.76187685  1
  O2-  O384  1  0.08521157  0.15428234  0.16385941  1
  O2-  O385  1  0.06647330  0.20497094  0.46955468  1
  O2-  O386  1  0.05369114  0.15277139  0.80019951  1
  O2-  O387  1  0.09676762  0.39357903  0.09945895  1
  O2-  O388  1  0.09777025  0.42333443  0.47767833  1
  O2-  O389  1  0.06885926  0.41977643  0.80655881  1
  O2-  O390  1  0.07914801  0.67438944  0.14811373  1
  O2-  O391  1  0.08751430  0.67650402  0.46489380  1
  O2-  O392  1  0.09186937  0.67716238  0.83081970  1
  O2-  O393  1  0.09043430  0.91430396  0.16101032  1
  O2-  O394  1  0.08003508  0.91121971  0.48178954  1
  O2-  O395  1  0.07781196  0.91190426  0.80320011  1
  O2-  O396  1  0.34005781  0.18316589  0.13768892  1
  O2-  O397  1  0.32992255  0.16879369  0.48680983  1
  O2-  O398  1  0.32288841  0.16392997  0.81811262  1
  O2-  O399  1  0.33473315  0.40813712  0.15460829  1
  O2-  O400  1  0.35811330  0.44381632  0.48114019  1
  O2-  O401  1  0.35722319  0.43031355  0.81927375  1
  O2-  O402  1  0.23453680  0.53546567  0.13637102  1
  O2-  O403  1  0.34153717  0.67353126  0.47608029  1
  O2-  O404  1  0.26916658  0.59439568  0.80772445  1
  O2-  O405  1  0.33096892  0.92962539  0.15354554  1
  O2-  O406  1  0.32926905  0.92047098  0.48380746  1
  O2-  O407  1  0.32865686  0.91686044  0.80581836  1
  O2-  O408  1  0.58781320  0.18029460  0.15292903  1
  O2-  O409  1  0.56115519  0.17771328  0.48603992  1
  O2-  O410  1  0.57696901  0.16665786  0.79972215  1
  O2-  O411  1  0.61559362  0.43778749  0.14371637  1
  O2-  O412  1  0.57828347  0.42123648  0.47929460  1
  O2-  O413  1  0.58593471  0.41979584  0.80498281  1
  O2-  O414  1  0.57203369  0.64691569  0.15646896  1
  O2-  O415  1  0.54130443  0.64144629  0.48812307  1
  O2-  O416  1  0.57877373  0.67335256  0.81004498  1
  O2-  O417  1  0.58911202  0.94783769  0.14602597  1
  O2-  O418  1  0.55336914  0.86994116  0.46767148  1
  O2-  O419  1  0.58718157  0.93751915  0.79086002  1
  O2-  O420  1  0.82825030  0.18688063  0.14337507  1
  O2-  O421  1  0.85173114  0.20842007  0.47602822  1
  O2-  O422  1  0.81127744  0.15855828  0.81124313  1
  O2-  O423  1  0.83685086  0.42974227  0.13784016  1
  O2-  O424  1  0.85378724  0.43161024  0.47681805  1
  O2-  O425  1  0.82641440  0.42157821  0.80719491  1
  O2-  O426  1  0.84648320  0.66494711  0.14187068  1
  O2-  O427  1  0.82111957  0.66409978  0.47624042  1
  O2-  O428  1  0.82981901  0.66613431  0.80989033  1
  O2-  O429  1  0.83868618  0.89719696  0.14540799  1
  O2-  O430  1  0.81151751  0.88952019  0.49217373  1
  O2-  O431  1  0.83227448  0.91753196  0.80040086  1
  O2-  O432  1  0.17414857  0.07644161  0.19710854  1
  O2-  O433  1  0.16334827  0.07648942  0.52982836  1
  O2-  O434  1  0.15106670  0.08074826  0.84373987  1
  O2-  O435  1  0.17253726  0.32998396  0.20226276  1
  O2-  O436  1  0.19490221  0.35637472  0.52306073  1
  O2-  O437  1  0.18747036  0.29333235  0.85319277  1
  O2-  O438  1  0.13208500  0.57678340  0.20523656  1
  O2-  O439  1  0.17612182  0.59096358  0.50959395  1
  O2-  O440  1  0.22926347  0.68767715  0.88908923  1
  O2-  O441  1  0.16532519  0.82339442  0.20943268  1
  O2-  O442  1  0.16631272  0.82907391  0.51566524  1
  O2-  O443  1  0.17350060  0.85085091  0.85883797  1
  O2-  O444  1  0.41959545  0.09304030  0.19240743  1
  O2-  O445  1  0.40700872  0.07988977  0.53084733  1
  O2-  O446  1  0.41482139  0.08856904  0.84673375  1
  O2-  O447  1  0.42724735  0.34706375  0.20115113  1
  O2-  O448  1  0.41649180  0.34210017  0.52059545  1
  O2-  O449  1  0.42073634  0.33572458  0.84908524  1
  O2-  O450  1  0.39598958  0.57005801  0.19121601  1
  O2-  O451  1  0.45286268  0.60668979  0.51147123  1
  O2-  O452  1  0.41553640  0.58504318  0.86240083  1
  O2-  O453  1  0.43476306  0.85451310  0.18345148  1
  O2-  O454  1  0.40631692  0.83647745  0.52328838  1
  O2-  O455  1  0.43806300  0.86803292  0.85595883  1
  O2-  O456  1  0.67060362  0.09736161  0.18147473  1
  O2-  O457  1  0.68206965  0.08355961  0.48841016  1
  O2-  O458  1  0.65003471  0.08105732  0.84547739  1
  O2-  O459  1  0.68687436  0.34265001  0.18920313  1
  O2-  O460  1  0.65634092  0.33188736  0.50696155  1
  O2-  O461  1  0.66204686  0.33476256  0.84718215  1
  O2-  O462  1  0.64993342  0.57475960  0.19615120  1
  O2-  O463  1  0.65229178  0.58304009  0.52745605  1
  O2-  O464  1  0.66213915  0.58714535  0.84838666  1
  O2-  O465  1  0.66865082  0.80348448  0.19232778  1
  O2-  O466  1  0.63878602  0.79800184  0.52820519  1
  O2-  O467  1  0.67078371  0.84654075  0.83457532  1
  O2-  O468  1  0.92281290  0.06006692  0.19611076  1
  O2-  O469  1  0.91197711  0.09696509  0.51205595  1
  O2-  O470  1  0.89200115  0.07724473  0.84859396  1
  O2-  O471  1  0.94526608  0.35870082  0.17078464  1
  O2-  O472  1  0.93690576  0.36247454  0.52150215  1
  O2-  O473  1  0.90339169  0.33306222  0.84596858  1
  O2-  O474  1  0.91020558  0.57783900  0.18389353  1
  O2-  O475  1  0.92095890  0.60075469  0.51330931  1
  O2-  O476  1  0.91015904  0.58223956  0.86019048  1
  O2-  O477  1  0.92694454  0.82651209  0.19178283  1
  O2-  O478  1  0.90911076  0.82667841  0.52109136  1
  O2-  O479  1  0.91264057  0.83410717  0.84592326  1
  O2-  O480  1  0.16976592  0.07641427  0.32391605  1
  O2-  O481  1  0.14592998  0.06876910  0.64690885  1
  O2-  O482  1  0.09959194  0.05296187  0.97739746  1
  O2-  O483  1  0.17352000  0.33734397  0.32073510  1
  O2-  O484  1  0.18224678  0.34642778  0.64340008  1
  O2-  O485  1  0.18790673  0.32746217  0.97790740  1
  O2-  O486  1  0.17117878  0.59789131  0.32086191  1
  O2-  O487  1  0.15237741  0.56233080  0.63919725  1
  O2-  O488  1  0.18245269  0.61484732  1.00028756  1
  O2-  O489  1  0.13441033  0.78391814  0.33091827  1
  O2-  O490  1  0.17419615  0.83032898  0.64062585  1
  O2-  O491  1  0.17022329  0.84624040  0.97941481  1
  O2-  O492  1  0.42011005  0.09640040  0.31788534  1
  O2-  O493  1  0.41980858  0.07571720  0.64525788  1
  O2-  O494  1  0.42421701  0.07734098  0.97229532  1
  O2-  O495  1  0.42223714  0.33700908  0.32297089  1
  O2-  O496  1  0.44381536  0.37609609  0.64480539  1
  O2-  O497  1  0.40493739  0.32082031  0.96582582  1
  O2-  O498  1  0.40648141  0.58069198  0.31165340  1
  O2-  O499  1  0.42580918  0.60473876  0.63099531  1
  O2-  O500  1  0.42380567  0.58904395  0.98647510  1
  O2-  O501  1  0.42852185  0.83510336  0.30390072  1
  O2-  O502  1  0.41797094  0.84538141  0.64120231  1
  O2-  O503  1  0.37780925  0.82184846  0.96220149  1
  O2-  O504  1  0.60309118  0.05042075  0.38280182  1
  O2-  O505  1  0.66558159  0.09133187  0.62279903  1
  O2-  O506  1  0.69712230  0.04488565  0.96110004  1
  O2-  O507  1  0.68063620  0.34629339  0.31736291  1
  O2-  O508  1  0.66557949  0.32336093  0.63601048  1
  O2-  O509  1  0.67086562  0.34541448  0.97335697  1
  O2-  O510  1  0.65764015  0.57666660  0.31455156  1
  O2-  O511  1  0.66443449  0.60296523  0.65504570  1
  O2-  O512  1  0.66866366  0.58813360  0.97366214  1
  O2-  O513  1  0.66947343  0.80934330  0.31780531  1
  O2-  O514  1  0.66657627  0.84602274  0.64338073  1
  O2-  O515  1  0.65261722  0.82101770  0.99752171  1
  O2-  O516  1  0.86464297  0.05357590  0.31368769  1
  O2-  O517  1  0.91239920  0.08132256  0.63854566  1
  O2-  O518  1  0.91433989  0.07020260  0.96673955  1
  O2-  O519  1  0.94356970  0.35572867  0.30288073  1
  O2-  O520  1  0.91666695  0.33197973  0.64850381  1
  O2-  O521  1  0.89928912  0.34135562  0.97659329  1
  O2-  O522  1  0.91325346  0.58728155  0.31180537  1
  O2-  O523  1  0.90373308  0.58802410  0.63463215  1
  O2-  O524  1  0.92153069  0.58436851  0.98108509  1
  O2-  O525  1  0.91539673  0.82629468  0.31496613  1
  O2-  O526  1  0.91135884  0.82841959  0.64249948  1
  O2-  O527  1  0.90680745  0.82929543  0.97059104  1
  O2-  O528  1  0.07908578  0.17697849  0.03690896  1
  O2-  O529  1  0.09163588  0.17068978  0.36131531  1
  O2-  O530  1  0.07917701  0.17035248  0.67458471  1
  O2-  O531  1  0.06619825  0.44019553  -0.00038743  1
  O2-  O532  1  0.10163635  0.42858977  0.35671603  1
  O2-  O533  1  0.08828830  0.40978982  0.68351463  1
  O2-  O534  1  0.08628616  0.68304204  0.02316971  1
  O2-  O535  1  0.08576585  0.69132068  0.34601039  1
  O2-  O536  1  0.07916848  0.65466865  0.66996425  1
  O2-  O537  1  0.05792749  0.87360787  0.03305091  1
  O2-  O538  1  0.07902778  0.90369965  0.35793929  1
  O2-  O539  1  0.07356184  0.90217040  0.67855492  1
  O2-  O540  1  0.42587447  0.20485290  0.03430445  1
  O2-  O541  1  0.33517345  0.17323962  0.36245855  1
  O2-  O542  1  0.30570703  0.13412816  0.69747119  1
  O2-  O543  1  0.34932470  0.42210070  0.02858416  1
  O2-  O544  1  0.34135459  0.42191245  0.35700490  1
  O2-  O545  1  0.34930851  0.45740790  0.66917995  1
  O2-  O546  1  0.34431038  0.67741864  0.03078038  1
  O2-  O547  1  0.33172453  0.66966598  0.35252413  1
  O2-  O548  1  0.40379404  0.71601189  0.72596095  1
  O2-  O549  1  0.33399506  0.92404578  0.02578015  1
  O2-  O550  1  0.31987707  0.94284524  0.36492518  1
  O2-  O551  1  0.34300212  0.92493616  0.68739772  1
  O2-  O552  1  0.57401072  0.19926895  0.03260204  1
  O2-  O553  1  0.58270247  0.18711829  0.35964240  1
  O2-  O554  1  0.57834426  0.16613572  0.67384757  1
  O2-  O555  1  0.59194579  0.42525438  0.01889885  1
  O2-  O556  1  0.58651239  0.41521891  0.35577461  1
  O2-  O557  1  0.60509300  0.41904811  0.67461934  1
  O2-  O558  1  0.58451609  0.65495801  0.03476947  1
  O2-  O559  1  0.57001256  0.65099388  0.35845888  1
  O2-  O560  1  0.57183941  0.68520580  0.68915206  1
  O2-  O561  1  0.57739519  0.91204334  0.02025652  1
  O2-  O562  1  0.58876157  0.88945745  0.35394594  1
  O2-  O563  1  0.59041619  0.93244548  0.67010623  1
  O2-  O564  1  0.84363836  0.17687320  0.01910850  1
  O2-  O565  1  0.86270521  0.20547101  0.35887694  1
  O2-  O566  1  0.82480312  0.16150532  0.68381767  1
  O2-  O567  1  0.83675974  0.42972117  0.02694806  1
  O2-  O568  1  0.83246686  0.43476154  0.35852048  1
  O2-  O569  1  0.83181225  0.42039717  0.68122481  1
  O2-  O570  1  0.83279663  0.66422071  0.01608694  1
  O2-  O571  1  0.82471747  0.65919126  0.35278936  1
  O2-  O572  1  0.82361629  0.67015415  0.68754325  1
  O2-  O573  1  0.82561279  0.90836736  0.02067905  1
  O2-  O574  1  0.83226401  0.90216243  0.36687362  1
  O2-  O575  1  0.83276805  0.91732125  0.67860909  1
