# generated using pymatgen
data_H2O
_symmetry_space_group_name_H-M   'P 1'
_cell_length_a   17.99157227
_cell_length_b   17.99392096
_cell_length_c   22.00604306
_cell_angle_alpha   89.99844768
_cell_angle_beta   90.00015098
_cell_angle_gamma   119.98193718
_symmetry_Int_Tables_number   1
_chemical_formula_structural   H2O
_chemical_formula_sum   'H384 O192'
_cell_volume   6170.87194933
_cell_formula_units_Z   192
loop_
 _symmetry_equiv_pos_site_id
 _symmetry_equiv_pos_as_xyz
  1  'x, y, z'
loop_
 _atom_type_symbol
 _atom_type_oxidation_number
  H+  1.0
  O2-  -2.0
loop_
 _atom_site_type_symbol
 _atom_site_label
 _atom_site_symmetry_multiplicity
 _atom_site_fract_x
 _atom_site_fract_y
 _atom_site_fract_z
 _atom_site_occupancy
  H+  H0  1  0.02838918  0.15601667  0.13278346  1
  H+  H1  1  1.01558914  0.62893407  0.34675931  1
  H+  H2  1  0.07616534  0.91656210  0.40258360  1
  H+  H3  1  0.37879969  1.00551713  0.67043896  1
  H+  H4  1  0.37059172  0.40242711  0.48452235  1
  H+  H5  1  0.63576385  0.61252391  0.84210777  1
  H+  H6  1  0.47330769  0.61762496  0.83966288  1
  H+  H7  1  0.63549368  0.51398533  0.31871199  1
  H+  H8  1  0.53008234  0.89038830  0.67249773  1
  H+  H9  1  0.86115460  0.38439839  0.33724108  1
  H+  H10  1  0.63540783  0.27837365  0.17043923  1
  H+  H11  1  0.36268056  0.13904745  0.49414638  1
  H+  H12  1  0.11017554  0.48258320  0.33993632  1
  H+  H13  1  0.97073983  0.62788956  0.66541154  1
  H+  H14  1  0.86696210  0.88524226  0.67432107  1
  H+  H15  1  0.23705362  0.37882683  0.15907149  1
  H+  H16  1  0.61998676  0.97834313  -0.01274196  1
  H+  H17  1  0.26969556  0.12730119  0.49110770  1
  H+  H18  1  0.06739133  0.47271183  0.66726445  1
  H+  H19  1  0.88406045  0.52185857  0.17694811  1
  H+  H20  1  0.86409008  0.62599904  0.33402257  1
  H+  H21  1  0.11816053  0.57741240  0.46018619  1
  H+  H22  1  0.86637015  0.25132740  0.65644999  1
  H+  H23  1  0.38984765  0.28867481  0.99177154  1
  H+  H24  1  0.61581427  0.39760862  0.82838686  1
  H+  H25  1  0.48269534  0.37217602  0.99081490  1
  H+  H26  1  0.12723330  0.10415492  0.32852320  1
  H+  H27  1  0.11825595  0.75324988  0.50353824  1
  H+  H28  1  0.36139006  0.48429202  0.82837376  1
  H+  H29  1  0.60987567  0.14170169  0.49450241  1
  H+  H30  1  0.61382414  0.89622425  0.14822502  1
  H+  H31  1  0.82181770  0.15729051  0.05732457  1
  H+  H32  1  0.72594605  0.36367506  0.32534044  1
  H+  H33  1  0.40204237  0.05845723  0.00021516  1
  H+  H34  1  -0.07289199  0.07864371  0.90124130  1
  H+  H35  1  0.21934134  0.85161609  0.32771969  1
  H+  H36  1  0.07496704  0.67043159  0.40706283  1
  H+  H37  1  0.11318368  -0.02540305  0.50133671  1
  H+  H38  1  0.12974664  0.77209068  0.66884571  1
  H+  H39  1  0.58659764  0.91853453  0.73326473  1
  H+  H40  1  0.92211618  0.09576584  0.25805863  1
  H+  H41  1  -0.02503563  0.85129900  0.84387769  1
  H+  H42  1  0.61612111  0.47446555  0.49117359  1
  H+  H43  1  0.10152761  0.63516121  0.15739204  1
  H+  H44  1  0.64228050  0.61793067  0.65695513  1
  H+  H45  1  0.34290792  0.42206495  0.73830747  1
  H+  H46  1  0.14510180  0.10752981  0.51583449  1
  H+  H47  1  0.62604001  0.74994396  -0.01137728  1
  H+  H48  1  0.35928391  0.87301406  0.68078610  1
  H+  H49  1  0.06894661  0.89716823  0.77522731  1
  H+  H50  1  0.61749393  0.72771549  0.67686301  1
  H+  H51  1  0.88943041  0.75813384  0.50628896  1
  H+  H52  1  0.10248773  0.86822020  0.83302713  1
  H+  H53  1  0.35967165  0.97282343  0.35792600  1
  H+  H54  1  0.96676175  0.10436987  0.99791998  1
  H+  H55  1  0.61461613  0.72727681  0.82833504  1
  H+  H56  1  0.48349234  0.61871154  0.33565024  1
  H+  H57  1  0.86076988  0.38284821  0.00979984  1
  H+  H58  1  0.77926161  0.63474042  0.84334591  1
  H+  H59  1  0.70126452  0.33530647  0.66268363  1
  H+  H60  1  0.14917711  0.07081012  0.22696219  1
  H+  H61  1  0.53054342  0.63713446  0.67224412  1
  H+  H62  1  0.90229432  0.53490334  0.83860625  1
  H+  H63  1  0.09935350  0.97062879  0.34069269  1
  H+  H64  1  0.52623300  0.89619633  0.14815184  1
  H+  H65  1  0.52147414  0.14765643  -0.00475222  1
  H+  H66  1  0.33720045  0.13198537  0.00785984  1
  H+  H67  1  0.26723401  0.16511567  0.02794685  1
  H+  H68  1  0.81730328  0.15541377  0.73431677  1
  H+  H69  1  0.75897800  0.13641464  0.83664977  1
  H+  H70  1  0.46932873  0.61856512  0.16720387  1
  H+  H71  1  0.64016215  0.86596048  0.66722793  1
  H+  H72  1  0.88695171  0.52311175  0.98516286  1
  H+  H73  1  0.61175276  0.48376548  0.83159294  1
  H+  H74  1  1.02578393  0.88207112  0.49986325  1
  H+  H75  1  0.61902543  0.23025069  0.33760557  1
  H+  H76  1  0.63191328  0.85955588  0.51155392  1
  H+  H77  1  0.38141838  0.27374165  0.32511696  1
  H+  H78  1  0.10358828  0.63786327  0.82480364  1
  H+  H79  1  0.60574912  0.63397690  0.15322863  1
  H+  H80  1  0.61181926  0.88132323  0.82778834  1
  H+  H81  1  0.22881081  0.35331736  0.49699438  1
  H+  H82  1  0.86119669  0.38532663  0.15685108  1
  H+  H83  1  0.36852027  0.64279698  0.00793444  1
  H+  H84  1  0.47906981  0.36173800  0.16815117  1
  H+  H85  1  0.08637527  0.43225173  0.09948156  1
  H+  H86  1  0.82489146  0.91665566  0.21447119  1
  H+  H87  1  0.35214348  0.72324387  0.50080861  1
  H+  H88  1  0.97639399  0.85765459  0.66708744  1
  H+  H89  1  0.35535438  0.13145486  0.33292404  1
  H+  H90  1  0.88977753  0.03145481  0.17004684  1
  H+  H91  1  0.85734945  0.71924460  0.15885597  1
  H+  H92  1  0.53317488  0.37985386  0.49227932  1
  H+  H93  1  0.66188320  0.03833723  0.51595214  1
  H+  H94  1  0.11063816  0.63688649  0.00302316  1
  H+  H95  1  0.35581295  0.88462636  0.34909124  1
  H+  H96  1  0.88797115  0.26617001  0.99969174  1
  H+  H97  1  0.48305347  0.13910057  0.52339683  1
  H+  H98  1  0.10658677  0.24929599  0.13196869  1
  H+  H99  1  0.85899579  0.72551389  0.67218356  1
  H+  H100  1  0.00913585  0.63535637  0.83131858  1
  H+  H101  1  0.64854877  0.36785739  0.50074451  1
  H+  H102  1  0.35040080  0.61826122  0.49770580  1
  H+  H103  1  0.36533337  0.51912281  0.49787097  1
  H+  H104  1  0.47859907  0.86624896  0.99014321  1
  H+  H105  1  0.08064492  0.41369172  0.39512428  1
  H+  H106  1  0.38475315  0.11003477  0.83936926  1
  H+  H107  1  0.37160251  0.40582047  1.00439753  1
  H+  H108  1  0.27562750  0.88039858  0.51028867  1
  H+  H109  1  0.48206541  0.86401860  0.32858129  1
  H+  H110  1  0.14114615  0.26165453  0.50389654  1
  H+  H111  1  0.38323706  0.53044574  0.17179633  1
  H+  H112  1  0.38281341  0.61640980  0.84125537  1
  H+  H113  1  0.32890001  0.90150718  0.74142502  1
  H+  H114  1  0.62892012  0.10965564  0.66526757  1
  H+  H115  1  0.77433758  0.13628653  -0.00886642  1
  H+  H116  1  0.13485809  0.77003552  0.83863925  1
  H+  H117  1  0.82736983  0.22968760  0.81418795  1
  H+  H118  1  0.55080575  0.96171380  0.48181442  1
  H+  H119  1  0.73652663  0.36662476  0.50450765  1
  H+  H120  1  0.87453394  0.48360619  0.49440194  1
  H+  H121  1  0.76834497  0.13923331  0.15269367  1
  H+  H122  1  0.02357777  0.37421837  0.49398007  1
  H+  H123  1  0.85694736  0.97643889  0.30167569  1
  H+  H124  1  0.36479348  0.21376864  0.67733560  1
  H+  H125  1  0.13672211  0.76021773  0.32309190  1
  H+  H126  1  0.42330593  0.10531915  0.58341324  1
  H+  H127  1  0.86005219  0.71379363  0.33659729  1
  H+  H128  1  0.44333889  0.03290639  0.28790568  1
  H+  H129  1  0.88038848  0.82886299  0.37754511  1
  H+  H130  1  1.01929908  0.63290054  1.00019973  1
  H+  H131  1  0.39358934  0.53540419  0.34916133  1
  H+  H132  1  0.83105584  0.65502157  0.42837779  1
  H+  H133  1  0.46875091  0.85356539  0.84310603  1
  H+  H134  1  0.84675345  0.71121845  -0.00909001  1
  H+  H135  1  0.19839842  0.05978257  0.98033488  1
  H+  H136  1  0.71623759  0.86140245  0.30362691  1
  H+  H137  1  0.12535844  0.40482992  1.00791373  1
  H+  H138  1  0.76926207  0.13499230  0.33006649  1
  H+  H139  1  0.86993807  0.85990575  0.98475204  1
  H+  H140  1  0.38806225  0.76939988  0.33264243  1
  H+  H141  1  0.42511867  0.81686542  0.26205981  1
  H+  H142  1  0.35658276  -0.03291284  0.16531304  1
  H+  H143  1  0.10926146  0.96963051  0.68004535  1
  H+  H144  1  0.94983022  0.14896030  0.51237235  1
  H+  H145  1  0.13222743  0.61547211  0.33424818  1
  H+  H146  1  0.03213882  0.39697807  0.01360656  1
  H+  H147  1  0.12937627  0.36724621  0.83862228  1
  H+  H148  1  0.64051826  0.60865538  0.50874821  1
  H+  H149  1  0.47636043  0.37106671  0.83655644  1
  H+  H150  1  0.35744864  0.21975526  0.15879404  1
  H+  H151  1  0.23598423  0.38757523  -0.00549326  1
  H+  H152  1  0.36934262  0.23240866  0.82702990  1
  H+  H153  1  0.26667227  0.63510545  0.82652511  1
  H+  H154  1  0.17349584  0.36843299  0.64966052  1
  H+  H155  1  0.76714942  0.63303516  0.66583312  1
  H+  H156  1  0.84366860  0.93114633  0.56538427  1
  H+  H157  1  0.74050846  0.45324026  0.87869845  1
  H+  H158  1  0.63577996  0.11122874  0.32410173  1
  H+  H159  1  0.63306655  0.11988007  0.16983764  1
  H+  H160  1  0.13818832  0.29938648  0.29600690  1
  H+  H161  1  0.36134554  0.88072204  0.83509249  1
  H+  H162  1  0.41380879  0.82176632  0.60739242  1
  H+  H163  1  0.10970727  0.88137603  0.67928903  1
  H+  H164  1  0.25553578  0.62490374  0.48854701  1
  H+  H165  1  0.63391803  0.03149379  0.16627498  1
  H+  H166  1  0.85692385  0.63122182  0.16926274  1
  H+  H167  1  1.00254820  0.11960653  0.34307173  1
  H+  H168  1  0.87999360  0.76009596  0.84806573  1
  H+  H169  1  0.79166254  0.38693762  0.83026760  1
  H+  H170  1  0.46956279  0.09348847  0.67483745  1
  H+  H171  1  0.96579316  0.85632541  0.99107488  1
  H+  H172  1  0.27187990  0.88055730  0.83235734  1
  H+  H173  1  0.38253075  0.11539199  0.17182716  1
  H+  H174  1  0.10782817  0.23503367  0.82459001  1
  H+  H175  1  0.84811809  0.95939511  -0.00604829  1
  H+  H176  1  0.72282563  0.61115419  0.16563514  1
  H+  H177  1  -0.00784111  0.11582165  0.83738684  1
  H+  H178  1  0.63324938  0.10907287  -0.03951706  1
  H+  H179  1  0.61279728  0.39131088  0.00220252  1
  H+  H180  1  0.77231557  0.38673465  0.15941088  1
  H+  H181  1  0.63900308  0.27071862  -0.00935867  1
  H+  H182  1  0.39026776  0.77751842  0.99491070  1
  H+  H183  1  0.17104583  0.59189109  0.63173473  1
  H+  H184  1  0.26476075  0.64841110  0.67155513  1
  H+  H185  1  0.02821244  0.10755984  0.50900902  1
  H+  H186  1  0.85152244  0.62561937  -0.01157464  1
  H+  H187  1  0.97005290  0.86603028  0.34364223  1
  H+  H188  1  0.88815888  0.28049175  0.49992495  1
  H+  H189  1  -0.00134239  0.39146667  0.82997112  1
  H+  H190  1  0.25870209  0.60383739  0.67592799  1
  H+  H191  1  0.39234356  0.26115730  0.50456767  1
  H+  H192  1  0.15476958  0.14215460  0.99918175  1
  H+  H193  1  0.14478008  0.12525872  0.83630776  1
  H+  H194  1  0.60795528  0.88384670  0.33448343  1
  H+  H195  1  0.36685619  0.84187082  0.51039092  1
  H+  H196  1  0.63440131  0.02290072  0.65951660  1
  H+  H197  1  0.76224974  0.12582676  0.67291289  1
  H+  H198  1  0.77388558  0.62847678  0.48973658  1
  H+  H199  1  -0.05599186  0.34795505  0.66187012  1
  H+  H200  1  0.41226975  0.65968832  0.69051351  1
  H+  H201  1  0.14239092  0.87587602  0.51592061  1
  H+  H202  1  0.35533836  0.63466758  0.16028844  1
  H+  H203  1  0.38652462  0.74934096  0.18202968  1
  H+  H204  1  0.88558583  0.84376165  0.51848970  1
  H+  H205  1  0.72991941  0.86316849  0.84327484  1
  H+  H206  1  0.13013526  0.76704126  0.98931550  1
  H+  H207  1  0.60877876  0.12566369  0.84106764  1
  H+  H208  1  0.12536002  0.50115683  0.48879651  1
  H+  H209  1  0.12371374  0.66937620  0.50691584  1
  H+  H210  1  0.63270472  0.76978109  0.31444688  1
  H+  H211  1  0.89947269  1.01120898  0.83924941  1
  H+  H212  1  0.72772991  0.35879101  0.99880658  1
  H+  H213  1  0.63692562  0.52579405  0.66049217  1
  H+  H214  1  0.11737905  0.39992234  0.15560361  1
  H+  H215  1  0.38106707  0.01841520  0.84326099  1
  H+  H216  1  0.36851284  0.39097145  0.15729210  1
  H+  H217  1  0.56973406  0.91512069  0.42862650  1
  H+  H218  1  0.71180779  0.60533713  -0.01289032  1
  H+  H219  1  0.60057094  0.20629994  0.67730230  1
  H+  H220  1  0.41569780  0.78133199  0.67293606  1
  H+  H221  1  0.88209158  0.10954168  0.98823337  1
  H+  H222  1  0.23178651  0.62190203  0.99076532  1
  H+  H223  1  0.62220000  0.61259233  0.99018956  1
  H+  H224  1  0.29204195  0.38402849  0.67558116  1
  H+  H225  1  0.13375031  0.52886546  0.17335195  1
  H+  H226  1  0.71123647  0.84408190  0.51730518  1
  H+  H227  1  0.08605038  0.63420848  0.67694378  1
  H+  H228  1  0.87274586  0.88335667  0.83076022  1
  H+  H229  1  0.85666763  0.88627831  0.30590000  1
  H+  H230  1  0.39461142  0.52050997  0.66311094  1
  H+  H231  1  0.61826958  0.23373828  0.49055085  1
  H+  H232  1  0.97639784  0.36417097  0.16486435  1
  H+  H233  1  0.13907827  0.38361019  0.31968542  1
  H+  H234  1  0.22384622  0.85634514  0.67011967  1
  H+  H235  1  0.45509965  0.83487492  0.50481892  1
  H+  H236  1  0.61339950  0.47859240  0.15397824  1
  H+  H237  1  0.10509760  0.88966215  0.15236353  1
  H+  H238  1  0.60947555  0.48063353  0.00135196  1
  H+  H239  1  0.85899443  0.22618757  0.14909468  1
  H+  H240  1  0.21698576  0.10666450  0.32444831  1
  H+  H241  1  0.27725309  0.39754556  0.33369645  1
  H+  H242  1  0.88619944  0.51908972  0.32602128  1
  H+  H243  1  0.17481438  0.07747687  0.57536809  1
  H+  H244  1  0.23267592  0.12318287  0.83670489  1
  H+  H245  1  0.22092828  0.37117919  0.83569091  1
  H+  H246  1  0.39231146  0.35634126  0.66926752  1
  H+  H247  1  0.37171450  0.64679960  0.34804101  1
  H+  H248  1  0.88908932  0.61354785  0.50492095  1
  H+  H249  1  0.58108871  0.72456570  0.48348996  1
  H+  H250  1  0.69066864  0.36128297  0.90671790  1
  H+  H251  1  -0.02640797  0.36365720  0.32055159  1
  H+  H252  1  0.09935415  0.97581780  0.14969706  1
  H+  H253  1  0.21257469  0.10411769  0.17192606  1
  H+  H254  1  0.71686951  0.86310962  0.16469690  1
  H+  H255  1  0.36118214  0.12201534  0.68111155  1
  H+  H256  1  0.08548841  -0.04869735  0.99284437  1
  H+  H257  1  0.51958539  0.14198086  0.15875925  1
  H+  H258  1  0.60887307  0.38176114  0.33440382  1
  H+  H259  1  0.36085561  0.39439114  0.82871238  1
  H+  H260  1  0.60585581  0.72306847  0.15043725  1
  H+  H261  1  0.45181760  0.61259864  0.49980247  1
  H+  H262  1  0.85060291  0.95192192  0.49678009  1
  H+  H263  1  0.14002375  0.10689069  0.66626038  1
  H+  H264  1  0.26792100  0.64187739  0.16280684  1
  H+  H265  1  0.22902008  0.10533685  0.66878543  1
  H+  H266  1  0.76445649  0.15791492  0.48836819  1
  H+  H267  1  0.53074313  0.39529478  0.67648754  1
  H+  H268  1  0.15131178  0.19315685  0.05596244  1
  H+  H269  1  0.12569861  0.52467814  0.84200981  1
  H+  H270  1  0.87630324  0.39568113  0.49448726  1
  H+  H271  1  0.63850387  0.36874369  0.17016518  1
  H+  H272  1  0.83225917  0.35951798  0.66536409  1
  H+  H273  1  0.90020703  1.09070729  0.56855622  1
  H+  H274  1  0.49240453  0.11106438  0.33206458  1
  H+  H275  1  0.85859010  0.88723127  0.16058052  1
  H+  H276  1  0.15337472  0.05760135  0.91634742  1
  H+  H277  1  0.07367169  0.38994960  0.67917678  1
  H+  H278  1  0.86881783  0.63148111  0.66240706  1
  H+  H279  1  0.52102150  0.12551488  0.83252292  1
  H+  H280  1  0.11391912  0.21976475  0.66802789  1
  H+  H281  1  0.66959863  0.58075442  0.56909883  1
  H+  H282  1  0.75935095  0.86728589  -0.00676130  1
  H+  H283  1  0.49002232  0.62555545  0.99203335  1
  H+  H284  1  0.98295905  0.62612588  0.51115961  1
  H+  H285  1  0.62406749  0.62907497  0.32007461  1
  H+  H286  1  0.97799098  0.86552497  0.15893181  1
  H+  H287  1  0.87204086  0.63789716  0.84182688  1
  H+  H288  1  0.41681367  0.34147777  0.89526636  1
  H+  H289  1  0.58440346  0.66648672  0.76976125  1
  H+  H290  1  0.58186729  0.66526065  0.05182322  1
  H+  H291  1  0.37554988  0.49700936  0.00746257  1
  H+  H292  1  0.35370824  0.92737291  0.10312819  1
  H+  H293  1  0.33271170  0.67045761  0.06546108  1
  H+  H294  1  0.40980951  0.57822429  0.60380005  1
  H+  H295  1  0.36314744  0.38958245  0.33560859  1
  H+  H296  1  0.42045587  0.09876831  0.23178879  1
  H+  H297  1  0.85400303  0.33913437  0.87791092  1
  H+  H298  1  0.87805819  0.10820705  0.66294126  1
  H+  H299  1  0.21669958  0.87100205  0.16566647  1
  H+  H300  1  0.33827848  0.16733543  0.77022145  1
  H+  H301  1  0.06746170  0.65803035  0.09744951  1
  H+  H302  1  0.82614974  0.16994422  0.38995972  1
  H+  H303  1  0.17996089  0.36051597  0.21752111  1
  H+  H304  1  0.10712126  0.55853425  0.57715333  1
  H+  H305  1  0.63383892  0.84841221  0.98765927  1
  H+  H306  1  0.78866261  0.89685103  0.40848515  1
  H+  H307  1  0.84639260  0.91896149  0.77131300  1
  H+  H308  1  0.41915640  0.59242389  0.93704170  1
  H+  H309  1  0.88520583  0.27392511  0.31912694  1
  H+  H310  1  0.47156620  0.36144047  0.32596318  1
  H+  H311  1  0.57760947  0.16735129  0.09911759  1
  H+  H312  1  0.32783533  0.15756471  0.39425734  1
  H+  H313  1  0.59042600  0.17325689  0.39946834  1
  H+  H314  1  0.61151879  0.96851884  0.83551564  1
  H+  H315  1  0.08758179  0.20417572  0.36216004  1
  H+  H316  1  0.33106482  0.67607318  0.39950364  1
  H+  H317  1  0.88605727  0.11781398  0.16485106  1
  H+  H318  1  0.59355821  0.93312231  0.05251613  1
  H+  H319  1  0.17406993  0.35452308  0.93663673  1
  H+  H320  1  0.02066508  0.13522002  0.66937143  1
  H+  H321  1  0.51732362  0.67531873  0.42717536  1
  H+  H322  1  0.58777817  0.43391590  0.73550745  1
  H+  H323  1  0.52089761  0.07621409  0.03146517  1
  H+  H324  1  0.12062615  0.84903310  0.98679681  1
  H+  H325  1  0.91042332  0.82977881  0.91988417  1
  H+  H326  1  0.06692427  0.13857602  0.44281777  1
  H+  H327  1  0.65513570  0.57774230  0.90411025  1
  H+  H328  1  0.65068612  0.83150422  0.21921195  1
  H+  H329  1  0.16114533  0.58818558  0.23264083  1
  H+  H330  1  0.77757598  0.88603650  0.67725470  1
  H+  H331  1  0.88486590  0.02260263  0.66008605  1
  H+  H332  1  0.16385085  0.82733026  0.90012875  1
  H+  H333  1  0.16472462  0.58895146  0.89819977  1
  H+  H334  1  0.66762300  0.33511815  0.26475940  1
  H+  H335  1  0.11375188  0.37316612  0.49068590  1
  H+  H336  1  0.18554637  0.32512972  0.59181287  1
  H+  H337  1  0.15808396  0.83864716  0.22426368  1
  H+  H338  1  0.91543373  0.33116904  0.22311317  1
  H+  H339  1  0.45959883  0.26223469  0.54592976  1
  H+  H340  1  0.33191691  0.90403931  0.44974097  1
  H+  H341  1  0.60711971  0.66351591  0.38102706  1
  H+  H342  1  0.14273280  0.53336145  0.99262695  1
  H+  H343  1  0.91535007  0.32706367  0.56450701  1
  H+  H344  1  0.83096449  0.41661093  0.06663962  1
  H+  H345  1  0.66678627  0.09292004  0.57407107  1
  H+  H346  1  0.66037826  0.08104400  0.26188601  1
  H+  H347  1  0.92027565  0.82352717  0.60608296  1
  H+  H348  1  0.58057550  0.15025408  0.74045818  1
  H+  H349  1  0.81819877  0.39145579  0.72806808  1
  H+  H350  1  0.65001821  0.30505604  0.60143254  1
  H+  H351  1  0.33285571  0.41963890  0.42315170  1
  H+  H352  1  0.66603874  0.82684850  0.90064445  1
  H+  H353  1  0.22304541  0.61906585  0.32815026  1
  H+  H354  1  0.06024793  0.90368483  0.05897066  1
  H+  H355  1  0.35601702  0.72423869  0.83580416  1
  H+  H356  1  0.60892584  0.97484858  0.33340818  1
  H+  H357  1  0.72760535  0.60112279  0.31761050  1
  H+  H358  1  0.47938820  0.77870760  0.20995595  1
  H+  H359  1  0.58286991  0.41491476  0.39375530  1
  H+  H360  1  0.91760972  0.59681802  0.60046312  1
  H+  H361  1  0.65947196  0.57707275  0.22178798  1
  H+  H362  1  0.05689233  0.42011438  0.77260552  1
  H+  H363  1  0.82538846  0.94243565  0.40983090  1
  H+  H364  1  0.84234520  0.14253823  0.48743614  1
  H+  H365  1  0.16668850  0.84139518  0.57766747  1
  H+  H366  1  0.91968658  0.58037519  0.26646565  1
  H+  H367  1  0.41840485  0.32245693  0.60970939  1
  H+  H368  1  0.37961041  0.69024847  0.74816364  1
  H+  H369  1  0.92187808  0.83115420  0.21940655  1
  H+  H370  1  0.92188825  0.58395423  0.92341163  1
  H+  H371  1  0.66187684  0.82771216  0.60898040  1
  H+  H372  1  0.07849057  0.17231308  0.76521754  1
  H+  H373  1  0.83637920  0.41623121  0.39853712  1
  H+  H374  1  0.06824814  0.66707073  0.74245941  1
  H+  H375  1  0.93684418  0.33203555  0.94731936  1
  H+  H376  1  0.41452858  0.82867639  0.90601335  1
  H+  H377  1  0.31648811  0.14642307  0.10652973  1
  H+  H378  1  0.58359219  0.41664688  0.09608287  1
  H+  H379  1  0.34466040  0.42796340  0.09820501  1
  H+  H380  1  0.97332335  0.61073780  0.17339345  1
  H+  H381  1  0.88292865  0.11450230  0.31878476  1
  H+  H382  1  0.41898002  0.33306316  0.22723797  1
  H+  H383  1  0.40699751  0.09420858  0.93212687  1
  O2-  O384  1  0.07259182  0.19890233  0.10578294  1
  O2-  O385  1  0.08024653  0.14902654  0.48752952  1
  O2-  O386  1  0.07722184  0.17334042  0.81063575  1
  O2-  O387  1  0.08168912  0.42683313  0.14518269  1
  O2-  O388  1  0.08337839  0.40315317  0.47561414  1
  O2-  O389  1  0.05886529  0.41450386  0.81728602  1
  O2-  O390  1  0.06173565  0.65381573  0.14254603  1
  O2-  O391  1  0.08907521  0.69089023  0.48810964  1
  O2-  O392  1  0.07315349  0.66768395  0.80996370  1
  O2-  O393  1  0.06981234  0.91501361  0.13395644  1
  O2-  O394  1  0.08547966  0.91531782  0.48382520  1
  O2-  O395  1  0.06244158  0.88875981  0.81968111  1
  O2-  O396  1  0.32586982  0.15676880  0.15176374  1
  O2-  O397  1  0.32715868  0.15828669  0.47101700  1
  O2-  O398  1  0.33937928  0.17046671  0.81560654  1
  O2-  O399  1  0.34020056  0.42373280  0.14384464  1
  O2-  O400  1  0.33169294  0.42181617  0.47013706  1
  O2-  O401  1  0.32978445  0.42341476  0.81230441  1
  O2-  O402  1  0.32956069  0.67228637  0.14871015  1
  O2-  O403  1  0.31952130  0.65657587  0.48124561  1
  O2-  O404  1  0.32935948  0.66523298  0.81696625  1
  O2-  O405  1  0.32937467  0.91083531  0.14497749  1
  O2-  O406  1  0.33394600  0.89640634  0.49449236  1
  O2-  O407  1  0.33294687  0.91164170  0.81725377  1
  O2-  O408  1  0.58092589  0.17259618  0.14405519  1
  O2-  O409  1  0.58206789  0.17214520  0.47669831  1
  O2-  O410  1  0.58081179  0.15163000  0.81696647  1
  O2-  O411  1  0.58436043  0.41613876  0.14154061  1
  O2-  O412  1  0.58995451  0.41638531  0.47245687  1
  O2-  O413  1  0.58116971  0.42283269  0.81451448  1
  O2-  O414  1  0.57256313  0.66171428  0.13908359  1
  O2-  O415  1  0.54184993  0.66721855  0.46477695  1
  O2-  O416  1  0.58149896  0.66591578  0.81492895  1
  O2-  O417  1  0.58604962  0.93007979  0.13469312  1
  O2-  O418  1  0.56192787  0.91463136  0.47394065  1
  O2-  O419  1  0.58257787  0.91302001  0.81344359  1
  O2-  O420  1  0.82687833  0.16535638  0.13422716  1
  O2-  O421  1  0.82236590  0.18010722  0.46952747  1
  O2-  O422  1  0.81029738  0.16894438  0.80963152  1
  O2-  O423  1  0.83219889  0.41741501  0.14298903  1
  O2-  O424  1  0.84478513  0.42378056  0.47816355  1
  O2-  O425  1  0.84804929  0.40346054  0.80940283  1
  O2-  O426  1  0.82200596  0.65634457  0.15459585  1
  O2-  O427  1  0.83393012  0.65872074  0.47398974  1
  O2-  O428  1  0.84023137  0.67005595  0.83163075  1
  O2-  O429  1  0.82659365  0.91837459  0.16899276  1
  O2-  O430  1  0.82804330  0.90379401  0.52541036  1
  O2-  O431  1  0.84910506  0.92139343  0.81653713  1
  O2-  O432  1  0.15065027  0.07346142  0.18219625  1
  O2-  O433  1  0.17385007  0.07580480  0.52944308  1
  O2-  O434  1  0.17101061  0.09107221  0.84853720  1
  O2-  O435  1  0.17556125  0.35346286  0.17314003  1
  O2-  O436  1  0.17079692  0.32295185  0.51645715  1
  O2-  O437  1  0.16033277  0.33699431  0.85057027  1
  O2-  O438  1  0.16610399  0.59000657  0.18782330  1
  O2-  O439  1  0.14714396  0.56580140  0.49351464  1
  O2-  O440  1  0.16112539  0.58626717  0.85249743  1
  O2-  O441  1  0.15895285  0.85490189  0.18124369  1
  O2-  O442  1  0.17128020  0.84421886  0.53191472  1
  O2-  O443  1  0.16810442  0.83055829  0.85374103  1
  O2-  O444  1  0.41925438  0.09117802  0.18770560  1
  O2-  O445  1  0.43407419  0.13808919  0.54459233  1
  O2-  O446  1  0.41284680  0.07935384  0.85739670  1
  O2-  O447  1  0.41781087  0.33143785  0.18218482  1
  O2-  O448  1  0.44073860  0.30219827  0.53113878  1
  O2-  O449  1  0.41474097  0.34068698  0.84997544  1
  O2-  O450  1  0.40957553  0.59185405  0.18372036  1
  O2-  O451  1  0.39038376  0.57885014  0.51559018  1
  O2-  O452  1  0.41299194  0.58496922  0.85486626  1
  O2-  O453  1  0.43918541  0.80021611  0.20674758  1
  O2-  O454  1  0.39603670  0.80348018  0.52169488  1
  O2-  O455  1  0.40946499  0.82456617  0.85919974  1
  O2-  O456  1  0.66407349  0.09000547  0.18499432  1
  O2-  O457  1  0.66983986  0.09430429  0.52725969  1
  O2-  O458  1  0.66447326  0.07860317  0.88060532  1
  O2-  O459  1  0.66794636  0.33806707  0.18694483  1
  O2-  O460  1  0.67467787  0.33399412  0.51597923  1
  O2-  O461  1  0.71149215  0.39278162  0.86696847  1
  O2-  O462  1  0.65895844  0.58000994  0.17680347  1
  O2-  O463  1  0.67058865  0.57917161  0.52236555  1
  O2-  O464  1  0.66228536  0.57921246  0.85794300  1
  O2-  O465  1  0.65374803  0.83459701  0.17406829  1
  O2-  O466  1  0.64824323  0.81706655  0.52362899  1
  O2-  O467  1  0.66853253  0.83208358  0.85418556  1
  O2-  O468  1  0.92046676  0.09328864  0.18207729  1
  O2-  O469  1  0.89975705  0.09380964  0.52245830  1
  O2-  O470  1  0.93054478  0.07488036  0.85528158  1
  O2-  O471  1  0.91454559  0.33013098  0.17786185  1
  O2-  O472  1  0.92606667  0.33742151  0.51938776  1
  O2-  O473  1  0.87724545  0.34729958  0.83655942  1
  O2-  O474  1  0.91425907  0.58056044  0.19456177  1
  O2-  O475  1  0.92223397  0.58852701  0.52412501  1
  O2-  O476  1  0.92748550  0.59221443  0.85605541  1
  O2-  O477  1  0.91581890  0.83363307  0.17558941  1
  O2-  O478  1  0.92058290  0.81636096  0.52587258  1
  O2-  O479  1  0.91171010  0.82631540  0.85951923  1
  O2-  O480  1  0.15581362  0.07425936  0.31148934  1
  O2-  O481  1  0.16893052  0.07567436  0.65147533  1
  O2-  O482  1  0.14225300  0.04215921  0.96136959  1
  O2-  O483  1  0.17600697  0.36065333  0.30212337  1
  O2-  O484  1  0.18839954  0.32548842  0.63760935  1
  O2-  O485  1  0.17551144  0.36340240  0.98082200  1
  O2-  O486  1  0.16184790  0.58518492  0.31691643  1
  O2-  O487  1  0.10948831  0.56224792  0.62195237  1
  O2-  O488  1  0.17156144  0.59239126  0.97469846  1
  O2-  O489  1  0.17383131  0.81284603  0.29994880  1
  O2-  O490  1  0.16415070  0.83238899  0.65320612  1
  O2-  O491  1  0.15681119  0.82605077  0.97186921  1
  O2-  O492  1  0.43282624  0.06908329  0.31562113  1
  O2-  O493  1  0.40966930  0.06741515  0.65804071  1
  O2-  O494  1  0.41042927  0.11013879  0.97625178  1
  O2-  O495  1  0.41080213  0.33451269  0.31126174  1
  O2-  O496  1  0.41715178  0.32082053  0.65461461  1
  O2-  O497  1  0.42174393  0.34623845  0.97470459  1
  O2-  O498  1  0.42646625  0.59887152  0.35444884  1
  O2-  O499  1  0.42356369  0.58085865  0.64716951  1
  O2-  O500  1  0.42351271  0.59525137  0.98206929  1
  O2-  O501  1  0.41989344  0.82985788  0.31230336  1
  O2-  O502  1  0.42482059  0.83551385  0.65088385  1
  O2-  O503  1  0.41856505  0.83507581  0.97557838  1
  O2-  O504  1  0.66065337  0.07641478  0.30762942  1
  O2-  O505  1  0.66237495  0.08369826  0.64480574  1
  O2-  O506  1  0.67154416  0.08634763  0.94810110  1
  O2-  O507  1  0.66524896  0.33237796  0.31043379  1
  O2-  O508  1  0.64234925  0.29786796  0.64566838  1
  O2-  O509  1  0.66822443  0.33174764  0.98019873  1
  O2-  O510  1  0.66729614  0.57393397  0.30210555  1
  O2-  O511  1  0.67087467  0.58630850  0.64077428  1
  O2-  O512  1  0.64876851  0.57456359  0.97603313  1
  O2-  O513  1  0.65184243  0.82992320  0.30157413  1
  O2-  O514  1  0.67084627  0.83472127  0.65331441  1
  O2-  O515  1  0.66236262  0.81718343  0.97246637  1
  O2-  O516  1  0.91618088  0.08711721  0.30380439  1
  O2-  O517  1  0.91050857  0.08213014  0.64308036  1
  O2-  O518  1  0.91399863  0.07977593  0.97402581  1
  O2-  O519  1  0.91391271  0.33453259  0.30452274  1
  O2-  O520  1  0.89203984  0.31021716  0.63779871  1
  O2-  O521  1  0.92080114  0.32950288  0.98978282  1
  O2-  O522  1  0.91845562  0.58052750  0.31305550  1
  O2-  O523  1  0.91190910  0.59927419  0.64568192  1
  O2-  O524  1  0.91797854  0.58314784  0.97118898  1
  O2-  O525  1  0.90317560  0.83131498  0.33693658  1
  O2-  O526  1  0.91539103  0.82815301  0.65084623  1
  O2-  O527  1  0.90462176  0.82909204  0.97023570  1
  O2-  O528  1  0.19002798  0.19455357  0.02324486  1
  O2-  O529  1  0.05841005  0.14215101  0.36711988  1
  O2-  O530  1  0.07994412  0.16199885  0.68636317  1
  O2-  O531  1  0.09291848  0.43379923  0.02499014  1
  O2-  O532  1  0.08111732  0.41950588  0.35013728  1
  O2-  O533  1  0.04436758  0.41988897  0.69302982  1
  O2-  O534  1  0.07802808  0.66402159  0.01889935  1
  O2-  O535  1  0.07564391  0.65665207  0.36363352  1
  O2-  O536  1  0.06562206  0.67069683  0.69470568  1
  O2-  O537  1  0.05222098  0.89354212  0.01368381  1
  O2-  O538  1  0.06346802  0.91237643  0.35846453  1
  O2-  O539  1  0.07539598  0.90838177  0.69276269  1
  O2-  O540  1  0.29017837  0.12551755  0.03547562  1
  O2-  O541  1  0.32665164  0.16152082  0.34864404  1
  O2-  O542  1  0.33065340  0.15389744  0.69319994  1
  O2-  O543  1  0.34295077  0.43534410  0.02250304  1
  O2-  O544  1  0.33503641  0.42162604  0.35282157  1
  O2-  O545  1  0.35009799  0.41998673  0.69263551  1
  O2-  O546  1  0.33394477  0.67029580  0.02045690  1
  O2-  O547  1  0.33854809  0.67840722  0.35485371  1
  O2-  O548  1  0.41840065  0.71055267  0.71205132  1
  O2-  O549  1  0.42557046  0.99706526  0.04762470  1
  O2-  O550  1  0.32884116  0.91213027  0.37154249  1
  O2-  O551  1  0.32559227  0.89979349  0.69551451  1
  O2-  O552  1  0.56473245  0.13663267  0.01561249  1
  O2-  O553  1  0.59087346  0.16979674  0.35380726  1
  O2-  O554  1  0.57472993  0.14574637  0.69476631  1
  O2-  O555  1  0.58009689  0.41849392  0.01706767  1
  O2-  O556  1  0.57838159  0.41259905  0.34838559  1
  O2-  O557  1  0.58837251  0.43903114  0.69047387  1
  O2-  O558  1  0.58243909  0.66527242  0.00705247  1
  O2-  O559  1  0.59802531  0.66391065  0.33722902  1
  O2-  O560  1  0.59014015  0.66602322  0.68858663  1
  O2-  O561  1  0.59248109  0.92229576  0.00828956  1
  O2-  O562  1  0.57750240  0.91429267  0.35037356  1
  O2-  O563  1  0.59084084  0.92005932  0.68778361  1
  O2-  O564  1  0.83086801  0.16101397  0.01187764  1
  O2-  O565  1  0.82991833  0.16676997  0.34491247  1
  O2-  O566  1  0.82274258  0.15337827  0.68878717  1
  O2-  O567  1  0.82790310  0.41148066  0.02093773  1
  O2-  O568  1  0.83098408  0.41426443  0.35326481  1
  O2-  O569  1  0.80500061  0.38955129  0.68457787  1
  O2-  O570  1  0.81416342  0.64965388  0.00000673  1
  O2-  O571  1  0.82965051  0.65290883  0.34965730  1
  O2-  O572  1  0.82876465  0.66223613  0.68138979  1
  O2-  O573  1  0.82272793  0.89876563  0.00556123  1
  O2-  O574  1  0.82362464  0.91397551  0.29124300  1
  O2-  O575  1  0.83984194  0.91929732  0.68836291  1
