# generated using pymatgen
data_H2O
_symmetry_space_group_name_H-M   'P 1'
_cell_length_a   17.98923051
_cell_length_b   17.98872510
_cell_length_c   21.98918205
_cell_angle_alpha   90.00982266
_cell_angle_beta   90.00840398
_cell_angle_gamma   120.03501887
_symmetry_Int_Tables_number   1
_chemical_formula_structural   H2O
_chemical_formula_sum   'H384 O192'
_cell_volume   6160.26361400
_cell_formula_units_Z   192
loop_
 _symmetry_equiv_pos_site_id
 _symmetry_equiv_pos_as_xyz
  1  'x, y, z'
loop_
 _atom_type_symbol
 _atom_type_oxidation_number
  H+  1.0
  O2-  -2.0
loop_
 _atom_site_type_symbol
 _atom_site_label
 _atom_site_symmetry_multiplicity
 _atom_site_fract_x
 _atom_site_fract_y
 _atom_site_fract_z
 _atom_site_occupancy
  H+  H0  1  0.75012272  0.37147620  0.17156271  1
  H+  H1  1  -0.01887426  0.36294438  0.50952958  1
  H+  H2  1  0.96172519  0.08230273  0.50903267  1
  H+  H3  1  0.64362166  0.27997350  0.32628093  1
  H+  H4  1  0.61747308  0.14438540  0.67175612  1
  H+  H5  1  0.36080397  0.64057390  0.15913774  1
  H+  H6  1  0.37046043  0.34561440  0.64573687  1
  H+  H7  1  0.64636550  0.39982900  0.15882038  1
  H+  H8  1  0.02104567  0.39393172  0.83193284  1
  H+  H9  1  0.89429738  0.27860371  0.32166564  1
  H+  H10  1  0.61785014  -0.01571531  0.33998466  1
  H+  H11  1  0.39972190  0.85816577  0.31262472  1
  H+  H12  1  0.10755756  0.63657334  0.49704243  1
  H+  H13  1  0.88316015  0.28945596  0.83243451  1
  H+  H14  1  0.86064070  0.37850894  0.49301560  1
  H+  H15  1  0.87397252  0.00814300  0.17776187  1
  H+  H16  1  0.89446868  0.53975084  0.82917041  1
  H+  H17  1  0.13426796  0.85849462  0.99116078  1
  H+  H18  1  0.11197730  0.13698140  0.34096094  1
  H+  H19  1  0.73978361  0.87532398  0.32280747  1
  H+  H20  1  0.90663950  0.76420203  0.82918109  1
  H+  H21  1  0.68277885  0.83731583  0.22724302  1
  H+  H22  1  0.37081312  0.62347082  0.49638769  1
  H+  H23  1  0.22571336  0.61559534  0.84826754  1
  H+  H24  1  0.79116612  0.62950647  0.77267461  1
  H+  H25  1  0.05719187  0.17163180  0.77481477  1
  H+  H26  1  0.16722173  0.32662030  0.23696668  1
  H+  H27  1  0.88598887  0.36756296  0.66062684  1
  H+  H28  1  0.10285374  0.87568494  0.49955338  1
  H+  H29  1  0.13634169  0.96337286  0.82158317  1
  H+  H30  1  0.13917193  0.77393821  0.33414356  1
  H+  H31  1  0.91628345  0.85504232  0.83344914  1
  H+  H32  1  0.14069283  0.52854319  0.32932010  1
  H+  H33  1  0.93942134  -0.00114713  0.85417473  1
  H+  H34  1  0.02199946  0.87717953  0.00652040  1
  H+  H35  1  0.22119832  0.10888990  0.51258930  1
  H+  H36  1  0.11061330  0.96672954  0.00643409  1
  H+  H37  1  0.36125572  0.13421872  -0.00297036  1
  H+  H38  1  0.62310479  0.73441006  0.67396542  1
  H+  H39  1  0.32733516  0.91733196  0.58749626  1
  H+  H40  1  0.08822157  0.23382345  0.83472231  1
  H+  H41  1  0.59383306  0.73448616  0.82764048  1
  H+  H42  1  0.09745947  0.47096649  1.02485088  1
  H+  H43  1  0.65334136  0.87818351  0.31940549  1
  H+  H44  1  0.78298715  0.13418613  0.49269498  1
  H+  H45  1  0.77193033  0.38879931  0.67525601  1
  H+  H46  1  0.76964503  0.63351740  1.01454178  1
  H+  H47  1  0.03604725  0.39303109  0.11708561  1
  H+  H48  1  0.87246862  0.88595103  0.34255786  1
  H+  H49  1  0.88797241  0.02152329  0.33446050  1
  H+  H50  1  0.13844840  0.52465624  0.84674411  1
  H+  H51  1  0.89503307  0.27081998  0.50922592  1
  H+  H52  1  0.59707692  0.70785741  0.50242894  1
  H+  H53  1  0.90421692  0.63060861  0.81545109  1
  H+  H54  1  0.26567887  0.13630963  0.33797964  1
  H+  H55  1  0.83225828  0.40898989  0.43307528  1
  H+  H56  1  0.97427929  0.11240117  0.32803772  1
  H+  H57  1  0.63205204  0.22102692  1.00332890  1
  H+  H58  1  0.86812534  0.47749653  0.33999980  1
  H+  H59  1  0.97286877  0.60611528  0.65912916  1
  H+  H60  1  -0.00381994  0.13281470  0.17036219  1
  H+  H61  1  0.88719900  0.85182489  0.99286684  1
  H+  H62  1  0.74758034  0.69924199  0.45206069  1
  H+  H63  1  0.62541817  0.38875454  0.34401045  1
  H+  H64  1  0.71620016  0.84175445  0.50512675  1
  H+  H65  1  0.57948124  0.61023080  0.50408235  1
  H+  H66  1  0.41455243  0.60359229  0.60461933  1
  H+  H67  1  0.36924635  0.97995901  0.64329071  1
  H+  H68  1  0.61633063  0.64229816  0.67252348  1
  H+  H69  1  0.10890965  0.02210142  0.66504118  1
  H+  H70  1  0.39682762  0.26748630  0.32601357  1
  H+  H71  1  0.42071726  0.09767487  0.60130074  1
  H+  H72  1  0.28914405  0.40993797  0.60199330  1
  H+  H73  1  0.37794321  0.53116578  0.84595928  1
  H+  H74  1  0.22656748  0.61603340  0.66766785  1
  H+  H75  1  0.65072745  0.76654940  0.17521031  1
  H+  H76  1  0.36748682  0.00321599  0.32178729  1
  H+  H77  1  0.26721353  0.88218995  0.50031718  1
  H+  H78  1  0.36487239  0.39160005  1.00947153  1
  H+  H79  1  0.53070328  0.38400416  0.01333479  1
  H+  H80  1  0.50537739  0.12244948  0.16519701  1
  H+  H81  1  0.86871703  0.63985610  0.64225416  1
  H+  H82  1  0.84123222  0.06095393  0.86220972  1
  H+  H83  1  0.43959083  0.26642501  0.17767128  1
  H+  H84  1  0.38692079  0.48926281  0.47379671  1
  H+  H85  1  0.35079535  0.21084777  0.67948929  1
  H+  H86  1  0.36789715  0.66226515  0.83262407  1
  H+  H87  1  0.91691971  0.57331560  0.59652368  1
  H+  H88  1  0.66757006  0.09559233  0.44594279  1
  H+  H89  1  0.71908590  0.63785010  0.85456032  1
  H+  H90  1  0.85891749  0.23173981  0.66275619  1
  H+  H91  1  0.27450302  0.87809312  0.34513041  1
  H+  H92  1  -0.01986721  0.36917287  0.32425633  1
  H+  H93  1  0.85029085  -0.05087975  0.50214505  1
  H+  H94  1  0.62944934  0.13777051  0.82815303  1
  H+  H95  1  0.64239372  0.52053356  0.32706820  1
  H+  H96  1  0.13004596  0.40935090  0.50138795  1
  H+  H97  1  0.47777912  0.11700945  0.66226294  1
  H+  H98  1  0.86800368  0.38840593  0.33539084  1
  H+  H99  1  0.60439608  0.47387603  0.66440356  1
  H+  H100  1  0.39514472  0.01199223  0.85693770  1
  H+  H101  1  0.34917943  0.88057407  -0.00762447  1
  H+  H102  1  0.60633837  0.50344037  0.82558526  1
  H+  H103  1  0.11002840  0.25403306  0.67789720  1
  H+  H104  1  1.01167067  0.13370951  0.67603701  1
  H+  H105  1  0.13122816  0.01792972  0.33827656  1
  H+  H106  1  1.03466342  0.64640955  0.82632262  1
  H+  H107  1  0.38976970  0.27738841  0.99694833  1
  H+  H108  1  0.37936974  0.72594616  0.31495120  1
  H+  H109  1  0.20406565  0.35063175  0.66308710  1
  H+  H110  1  0.73747614  0.87240262  0.66177859  1
  H+  H111  1  0.62983943  0.63418354  0.84546369  1
  H+  H112  1  0.22682102  0.08853920  0.19454149  1
  H+  H113  1  0.08783492  0.95583370  0.16399751  1
  H+  H114  1  0.37125701  0.37687312  0.18220129  1
  H+  H115  1  0.12498832  0.60692085  1.00404950  1
  H+  H116  1  0.37312498  0.65783841  0.67676374  1
  H+  H117  1  0.22939998  0.11083906  -0.00911704  1
  H+  H118  1  0.13517291  0.27782013  0.33126541  1
  H+  H119  1  0.26925751  0.63122045  0.15539046  1
  H+  H120  1  0.59940626  0.14357773  0.49385378  1
  H+  H121  1  0.89363438  0.09559359  0.99179621  1
  H+  H122  1  0.42467475  0.83065000  0.55506976  1
  H+  H123  1  0.46948224  0.61727101  0.83927553  1
  H+  H124  1  0.37771399  0.12052607  0.50685785  1
  H+  H125  1  0.87905715  0.09278682  0.50751837  1
  H+  H126  1  0.63592795  0.23598976  0.15557594  1
  H+  H127  1  0.85722962  0.47543625  0.00042586  1
  H+  H128  1  0.26806312  0.89206300  0.00059308  1
  H+  H129  1  0.36943097  -0.02534893  0.15421310  1
  H+  H130  1  0.77796773  0.39908058  0.83045501  1
  H+  H131  1  0.86665160  0.13954874  0.34275055  1
  H+  H132  1  0.53256455  0.89113275  0.33156273  1
  H+  H133  1  0.20711705  0.09846744  0.67482151  1
  H+  H134  1  0.63209488  0.60260288  0.32887856  1
  H+  H135  1  0.64313032  0.35304658  0.99856230  1
  H+  H136  1  0.65424665  0.12352280  0.18307575  1
  H+  H137  1  0.48200567  0.87483575  0.65667185  1
  H+  H138  1  0.20016912  0.86329952  0.66092217  1
  H+  H139  1  0.16136512  0.77250044  0.84020486  1
  H+  H140  1  0.88868464  0.61083091  0.33023663  1
  H+  H141  1  0.12975322  0.36685378  0.84840834  1
  H+  H142  1  0.61743874  0.62336991  0.16829871  1
  H+  H143  1  0.52355968  0.14399344  0.34004970  1
  H+  H144  1  0.40651589  0.56221294  0.23105942  1
  H+  H145  1  0.87700810  0.74926032  0.17988169  1
  H+  H146  1  0.38381420  0.87194164  0.64191171  1
  H+  H147  1  0.62991636  1.02673291  0.83490916  1
  H+  H148  1  0.53234501  0.36156111  0.18331161  1
  H+  H149  1  0.64949659  0.88335852  0.88442125  1
  H+  H150  1  0.10953850  0.63742936  0.16443620  1
  H+  H151  1  0.14431910  0.77677563  0.18273827  1
  H+  H152  1  0.42138966  0.89126128  0.16855014  1
  H+  H153  1  -0.02517547  0.62010477  0.17941978  1
  H+  H154  1  0.44745223  0.85016717  0.25312997  1
  H+  H155  1  0.38182549  0.39849718  0.47424401  1
  H+  H156  1  0.11828586  0.63566878  0.83103333  1
  H+  H157  1  0.83838295  0.15039853  0.05709516  1
  H+  H158  1  0.97001055  0.83886467  0.17579191  1
  H+  H159  1  0.86824483  0.87421279  0.16499145  1
  H+  H160  1  0.48328608  0.37195759  0.50394930  1
  H+  H161  1  0.10491104  0.72307218  0.00679604  1
  H+  H162  1  0.47422290  0.37040315  0.84193312  1
  H+  H163  1  0.05235424  0.87142824  0.82522273  1
  H+  H164  1  0.60911788  0.71928406  0.02365821  1
  H+  H165  1  0.35849994  0.23052046  0.48975460  1
  H+  H166  1  0.64269710  0.12283394  0.33439530  1
  H+  H167  1  0.84041683  0.90308710  0.07663387  1
  H+  H168  1  0.10574143  0.38780417  1.02637925  1
  H+  H169  1  0.32205749  0.02781832  0.27249968  1
  H+  H170  1  0.29189767  0.87794850  0.83967089  1
  H+  H171  1  0.98442658  0.10327289  1.00669052  1
  H+  H172  1  0.60879456  0.62934294  1.01570796  1
  H+  H173  1  0.27451182  0.69015912  0.43717965  1
  H+  H174  1  0.34857802  0.12707669  0.33861264  1
  H+  H175  1  0.77718815  0.87303989  0.16209211  1
  H+  H176  1  0.62362601  0.42874370  0.81171587  1
  H+  H177  1  0.86156064  0.47766349  0.67258541  1
  H+  H178  1  0.43748781  0.09796754  1.03359541  1
  H+  H179  1  0.43631469  0.08612649  0.22064279  1
  H+  H180  1  0.47696373  0.60405859  0.17848762  1
  H+  H181  1  0.72565790  0.12011624  0.64731093  1
  H+  H182  1  0.72715109  0.61201299  0.64165280  1
  H+  H183  1  1.01158823  0.10739789  0.85243725  1
  H+  H184  1  0.63324439  0.23435336  0.83132293  1
  H+  H185  1  0.86382155  0.72319372  0.33768467  1
  H+  H186  1  0.49956113  0.91312367  0.81368666  1
  H+  H187  1  0.11658640  0.88636553  0.34919322  1
  H+  H188  1  0.89680324  0.91225969  0.67543720  1
  H+  H189  1  0.76774107  0.14643574  0.81979665  1
  H+  H190  1  0.09530941  0.21707352  0.17413252  1
  H+  H191  1  0.84093834  0.04350432  0.83094095  1
  H+  H192  1  0.77332697  0.63408115  0.33288117  1
  H+  H193  1  0.47755170  0.62487065  0.66138876  1
  H+  H194  1  0.28344386  0.49140225  0.53819442  1
  H+  H195  1  0.14591553  0.31180019  0.44066510  1
  H+  H196  1  0.64906985  0.87422260  0.66094870  1
  H+  H197  1  0.66891421  0.07902515  0.89844594  1
  H+  H198  1  0.73508696  0.36679554  0.32699005  1
  H+  H199  1  0.51270348  0.14714632  0.49676903  1
  H+  H200  1  0.38837607  0.51120799  -0.00788791  1
  H+  H201  1  0.63019978  -0.01618400  1.01133485  1
  H+  H202  1  0.37986337  0.35501414  0.84772777  1
  H+  H203  1  0.38715215  0.85092690  0.88963749  1
  H+  H204  1  0.13432914  0.28016897  0.00526974  1
  H+  H205  1  0.49031014  0.35625774  0.33255188  1
  H+  H206  1  0.08503992  0.66215973  0.73522465  1
  H+  H207  1  0.62713091  0.33800557  0.86295098  1
  H+  H208  1  0.85994271  0.15891321  0.81416662  1
  H+  H209  1  0.00897282  -0.00884162  0.22066833  1
  H+  H210  1  -0.02913461  0.60632696  0.50663190  1
  H+  H211  1  0.24915042  0.41263192  0.14179205  1
  H+  H212  1  0.34694419  0.75014601  0.98271908  1
  H+  H213  1  0.09818692  0.96106635  0.50324456  1
  H+  H214  1  0.51528279  0.90376282  0.15655063  1
  H+  H215  1  0.81497080  0.89057062  0.82474698  1
  H+  H216  1  0.36194330  0.88892493  0.49808982  1
  H+  H217  1  0.73404956  0.85923126  1.01927847  1
  H+  H218  1  0.85797849  0.68866138  0.72538067  1
  H+  H219  1  0.38597412  0.77615846  0.66440933  1
  H+  H220  1  0.88121580  0.61715847  0.17985094  1
  H+  H221  1  0.22780228  0.30630166  0.19852109  1
  H+  H222  1  0.48234747  0.86420572  0.49462639  1
  H+  H223  1  0.63455647  0.28886491  0.50946813  1
  H+  H224  1  0.26084811  0.38492207  0.84344426  1
  H+  H225  1  0.54715093  0.12818268  0.00090061  1
  H+  H226  1  0.57125427  0.88814598  0.81600989  1
  H+  H227  1  0.86321221  0.13242712  0.15754861  1
  H+  H228  1  0.61695707  0.23366358  0.67602929  1
  H+  H229  1  0.63748844  0.48690647  0.16416257  1
  H+  H230  1  0.10855494  0.51067325  0.17902996  1
  H+  H231  1  0.95594353  0.83076714  0.52036200  1
  H+  H232  1  0.86448618  0.74808522  0.50899325  1
  H+  H233  1  0.72955607  0.36930094  0.50897613  1
  H+  H234  1  0.60989597  0.87693023  0.48645397  1
  H+  H235  1  0.63363824  0.51698168  0.00164559  1
  H+  H236  1  0.06915367  0.07901370  0.18776712  1
  H+  H237  1  0.73908683  0.36317020  -0.00002760  1
  H+  H238  1  0.10113250  0.10911571  0.49766470  1
  H+  H239  1  0.33918345  0.50043018  0.14320652  1
  H+  H240  1  0.87589399  0.49060910  0.16208900  1
  H+  H241  1  0.85070349  0.86007064  0.50484362  1
  H+  H242  1  0.59633334  0.41626661  0.07016698  1
  H+  H243  1  0.74493504  0.61480850  0.17616453  1
  H+  H244  1  0.24087798  0.10024062  0.83532812  1
  H+  H245  1  0.88082417  0.11586853  0.65669991  1
  H+  H246  1  0.26952670  0.63329835  0.01298888  1
  H+  H247  1  0.65262915  0.56463769  0.59376898  1
  H+  H248  1  -0.02109011  0.85750491  0.32907581  1
  H+  H249  1  0.22629877  0.13050941  0.19356887  1
  H+  H250  1  0.66257308  0.09327736  0.59012449  1
  H+  H251  1  0.14298681  0.10646419  0.96579885  1
  H+  H252  1  0.84560112  0.16738395  0.43583040  1
  H+  H253  1  0.39455996  0.10936240  0.84879505  1
  H+  H254  1  0.14393836  0.86431908  0.18114935  1
  H+  H255  1  0.68095482  0.09838459  0.27686380  1
  H+  H256  1  0.10869793  0.39063241  0.34242839  1
  H+  H257  1  0.22208069  0.62060515  0.51533702  1
  H+  H258  1  0.74141573  0.12337565  0.18242233  1
  H+  H259  1  0.13893501  0.30191843  0.47416996  1
  H+  H260  1  0.63107766  0.01409700  0.48660595  1
  H+  H261  1  0.60757191  -0.01614764  0.65945529  1
  H+  H262  1  0.65370235  0.10527686  0.99176541  1
  H+  H263  1  0.87553839  0.60879883  0.98901711  1
  H+  H264  1  0.87397212  0.20294516  -0.00571017  1
  H+  H265  1  0.78099093  0.14581009  0.34577248  1
  H+  H266  1  0.55594998  0.81557563  0.90514762  1
  H+  H267  1  0.16504893  0.86327447  0.83810044  1
  H+  H268  1  1.01800754  0.38880014  0.67522192  1
  H+  H269  1  0.10328600  0.13622852  0.68204977  1
  H+  H270  1  0.74000288  0.09881617  -0.01223619  1
  H+  H271  1  0.10630291  0.71783060  0.67448195  1
  H+  H272  1  0.59838347  0.42405637  0.40310376  1
  H+  H273  1  0.50196976  0.59522685  0.34632413  1
  H+  H274  1  0.86107204  0.71893472  1.01061073  1
  H+  H275  1  0.35651836  0.74385521  0.47897644  1
  H+  H276  1  0.87478514  0.98676548  0.67597667  1
  H+  H277  1  0.28446098  0.88721483  0.16863228  1
  H+  H278  1  0.86811893  0.92585927  0.76355739  1
  H+  H279  1  0.12711918  0.15652056  0.04050590  1
  H+  H280  1  0.57335070  0.93015062  0.72164281  1
  H+  H281  1  0.13161042  0.76804666  0.50532135  1
  H+  H282  1  0.86685902  0.96164953  0.01598019  1
  H+  H283  1  0.88953528  0.38011734  0.84103412  1
  H+  H284  1  0.86561741  0.72221000  0.61810935  1
  H+  H285  1  0.02463109  0.63648739  0.34070324  1
  H+  H286  1  0.36269024  0.38568958  0.21413116  1
  H+  H287  1  0.39972077  0.14344099  0.14917175  1
  H+  H288  1  0.26917347  0.41069825  0.50630279  1
  H+  H289  1  0.88492013  0.51509154  0.50706563  1
  H+  H290  1  0.34304877  0.46419396  0.65770806  1
  H+  H291  1  0.65653443  0.58117008  0.94471641  1
  H+  H292  1  0.35449803  0.12526385  0.67956772  1
  H+  H293  1  0.41537355  0.33265194  0.55760439  1
  H+  H294  1  0.42221414  0.08063328  0.91640485  1
  H+  H295  1  0.83550050  0.66105608  0.11608557  1
  H+  H296  1  0.08113073  0.66468755  0.43445455  1
  H+  H297  1  0.83099331  0.42350388  0.76730677  1
  H+  H298  1  0.60845133  0.17017455  0.09856066  1
  H+  H299  1  0.17163522  0.83566973  0.27576320  1
  H+  H300  1  0.33896544  0.91620427  0.40129077  1
  H+  H301  1  0.58278719  0.67845962  0.76703269  1
  H+  H302  1  0.66052504  0.82495184  0.56452518  1
  H+  H303  1  0.17084933  0.83004648  0.93318200  1
  H+  H304  1  0.91895308  0.33912221  0.60100249  1
  H+  H305  1  0.35775667  0.74659878  0.82747017  1
  H+  H306  1  0.11297705  0.35693992  0.67590925  1
  H+  H307  1  0.35207922  0.16037538  0.77446127  1
  H+  H308  1  0.37973431  0.00191546  0.99935391  1
  H+  H309  1  0.68556311  0.33870655  0.22930522  1
  H+  H310  1  0.67381465  0.57864467  0.23269056  1
  H+  H311  1  0.58357774  0.90958589  0.42485850  1
  H+  H312  1  0.08273945  0.90560280  0.10232205  1
  H+  H313  1  0.23121912  0.61564328  0.31956881  1
  H+  H314  1  0.16248352  0.08000914  0.57319319  1
  H+  H315  1  0.07690223  0.15886130  0.39973102  1
  H+  H316  1  0.66636546  0.33787654  0.60439551  1
  H+  H317  1  0.21736867  0.37375874  0.32450403  1
  H+  H318  1  0.11509014  0.63850819  0.34031424  1
  H+  H319  1  0.08344763  0.42335663  0.40252389  1
  H+  H320  1  0.68856045  0.56923061  0.48896541  1
  H+  H321  1  0.97959712  0.33921183  0.99299755  1
  H+  H322  1  0.55939981  0.63483315  0.40494146  1
  H+  H323  1  0.33685373  0.67844926  0.06541826  1
  H+  H324  1  0.88610156  0.40670368  0.15552975  1
  H+  H325  1  0.46007716  0.31674544  0.25280829  1
  H+  H326  1  0.79947828  0.66108281  0.42083653  1
  H+  H327  1  0.08146965  0.67262105  0.10763852  1
  H+  H328  1  0.89703248  0.06853781  0.23799381  1
  H+  H329  1  0.57949907  0.65049955  0.11257124  1
  H+  H330  1  0.34251922  0.69021892  0.73591843  1
  H+  H331  1  0.91862234  0.82455572  0.26859573  1
  H+  H332  1  0.31871788  0.15674397  0.15489674  1
  H+  H333  1  0.87969020  0.22776908  0.14928750  1
  H+  H334  1  0.13526450  0.61155351  0.66797310  1
  H+  H335  1  0.07799622  0.90959014  0.40774183  1
  H+  H336  1  0.82151887  0.17140483  0.72051287  1
  H+  H337  1  0.32274547  0.16542101  0.43389466  1
  H+  H338  1  0.15417616  0.33244812  0.90872189  1
  H+  H339  1  0.45553398  0.61749398  0.50780265  1
  H+  H340  1  0.91983845  0.82061649  0.93388955  1
  H+  H341  1  0.38094447  0.03262860  0.50947965  1
  H+  H342  1  0.10200153  0.84115925  0.66017946  1
  H+  H343  1  0.42392937  0.58558023  0.93263300  1
  H+  H344  1  0.42297732  0.33936602  0.94041158  1
  H+  H345  1  0.08167364  0.42004522  0.77367487  1
  H+  H346  1  0.57394244  0.17494538  0.40291903  1
  H+  H347  1  0.95609095  0.05479443  0.91969832  1
  H+  H348  1  0.11286732  0.48619554  0.50131380  1
  H+  H349  1  0.36665619  0.58319315  0.32311207  1
  H+  H350  1  0.09090726  0.19125341  0.49540962  1
  H+  H351  1  0.67664668  0.32208328  0.91574660  1
  H+  H352  1  0.83776511  0.42424039  0.06320594  1
  H+  H353  1  0.15595432  0.57666573  0.23241150  1
  H+  H354  1  0.93991713  0.34355211  0.22304664  1
  H+  H355  1  0.92770954  0.31740210  0.92991327  1
  H+  H356  1  0.63118476  0.36303621  0.66278724  1
  H+  H357  1  0.28216037  0.76553373  0.94338311  1
  H+  H358  1  0.15539210  0.57411704  0.94726078  1
  H+  H359  1  0.38171600  0.22170092  0.83406495  1
  H+  H360  1  0.56762802  0.42199301  0.72507739  1
  H+  H361  1  0.91050087  0.07780515  0.60100529  1
  H+  H362  1  0.91850954  0.58364536  0.26976880  1
  H+  H363  1  0.22268578  0.36773497  0.99557449  1
  H+  H364  1  0.13512754  0.06421618  0.27652181  1
  H+  H365  1  0.16524314  0.58809731  0.57627583  1
  H+  H366  1  0.83842568  0.90706068  0.40384070  1
  H+  H367  1  0.60287158  0.17672964  0.76311511  1
  H+  H368  1  0.31940177  0.41268107  0.78507170  1
  H+  H369  1  0.01428207  0.63576410  0.00632769  1
  H+  H370  1  0.62743311  0.89226223  1.03200860  1
  H+  H371  1  0.15436754  0.82404405  0.56644450  1
  H+  H372  1  0.63237873  0.41787901  0.50626378  1
  H+  H373  1  0.06955043  0.17186010  0.08502083  1
  H+  H374  1  0.66912910  0.82755322  0.96414474  1
  H+  H375  1  0.90996676  0.58944752  0.92674569  1
  H+  H376  1  0.34794065  0.45453556  0.37849581  1
  H+  H377  1  0.46211209  0.35245767  0.65397385  1
  H+  H378  1  0.35275034  0.67699451  0.37767858  1
  H+  H379  1  0.32245172  0.43333766  0.05782903  1
  H+  H380  1  0.11219522  0.47515991  0.67654957  1
  H+  H381  1  0.48601341  0.61029649  -0.00238308  1
  H+  H382  1  0.17766609  0.06278726  0.89003346  1
  H+  H383  1  0.34520870  0.16877414  0.05861363  1
  O2-  O384  1  0.05757201  0.15897844  0.15566880  1
  O2-  O385  1  0.06455867  0.13242851  0.48013904  1
  O2-  O386  1  0.04158701  0.17819744  0.81708360  1
  O2-  O387  1  0.03307762  0.39314037  0.16292555  1
  O2-  O388  1  0.08908149  0.42605798  0.48602604  1
  O2-  O389  1  0.08299236  0.42121612  0.81881350  1
  O2-  O390  1  0.08458414  0.67425169  0.15275195  1
  O2-  O391  1  0.07941525  0.66749738  0.48008768  1
  O2-  O392  1  0.09556584  0.67110785  0.81225398  1
  O2-  O393  1  0.08079232  0.90146789  0.14759061  1
  O2-  O394  1  0.06792405  0.90196567  0.48645182  1
  O2-  O395  1  0.11246990  0.90137627  0.81117151  1
  O2-  O396  1  0.37445200  0.18041643  0.13413540  1
  O2-  O397  1  0.32468137  0.16817869  0.47927625  1
  O2-  O398  1  0.36088590  0.16169983  0.81993978  1
  O2-  O399  1  0.29347736  0.45707913  0.11576135  1
  O2-  O400  1  0.35584270  0.43136651  0.45616398  1
  O2-  O401  1  0.32301667  0.41637506  0.82934621  1
  O2-  O402  1  0.32890396  0.66663887  0.14135034  1
  O2-  O403  1  0.31694941  0.68466488  0.46163179  1
  O2-  O404  1  0.33540187  0.68702403  0.81293019  1
  O2-  O405  1  0.34136099  0.91225320  0.14883677  1
  O2-  O406  1  0.33089319  0.92150461  0.49365149  1
  O2-  O407  1  0.35749675  0.91709104  0.82988893  1
  O2-  O408  1  0.60328728  0.17393235  0.14325176  1
  O2-  O409  1  0.57336034  0.17793639  0.48088426  1
  O2-  O410  1  0.60541256  0.17540545  0.81040959  1
  O2-  O411  1  0.60851887  0.42407578  0.14753522  1
  O2-  O412  1  0.59870380  0.44338116  0.48730163  1
  O2-  O413  1  0.57878840  0.44385927  0.80827897  1
  O2-  O414  1  0.58258440  0.65127729  0.15740935  1
  O2-  O415  1  0.55637565  0.64666269  0.49022760  1
  O2-  O416  1  0.57563874  0.67617850  0.81270179  1
  O2-  O417  1  0.60629758  0.95586826  0.10016934  1
  O2-  O418  1  0.58125364  0.90876841  0.47147657  1
  O2-  O419  1  0.55943393  0.93185580  0.79885099  1
  O2-  O420  1  0.84229283  0.16758054  0.13633935  1
  O2-  O421  1  0.84444374  0.16274575  0.48179665  1
  O2-  O422  1  0.82460874  0.18261178  0.79980990  1
  O2-  O423  1  0.84911185  0.43058634  0.14402227  1
  O2-  O424  1  0.82871856  0.40706955  0.47856659  1
  O2-  O425  1  0.83619217  0.43047805  0.81286531  1
  O2-  O426  1  0.83340112  0.66038046  0.16079400  1
  O2-  O427  1  0.77291656  0.66359601  0.46136767  1
  O2-  O428  1  0.85023305  0.67649898  0.77025286  1
  O2-  O429  1  0.84160045  0.90761413  0.14848605  1
  O2-  O430  1  0.82153876  0.88939701  0.48573296  1
  O2-  O431  1  0.87362474  0.92011337  0.80928934  1
  O2-  O432  1  0.06873250  0.02966302  0.20949874  1
  O2-  O433  1  0.16110191  0.07477278  0.52808708  1
  O2-  O434  1  0.17936294  0.06696181  0.84539562  1
  O2-  O435  1  0.17819721  0.31426985  0.19424281  1
  O2-  O436  1  0.24459794  0.42883526  0.54005703  1
  O2-  O437  1  0.15687866  0.33286729  0.86292891  1
  O2-  O438  1  0.14929513  0.57192453  0.18735060  1
  O2-  O439  1  0.16265117  0.58806846  0.53055856  1
  O2-  O440  1  0.16633371  0.58413221  0.86404443  1
  O2-  O441  1  0.17486067  0.83668527  0.19952414  1
  O2-  O442  1  0.16381900  0.82869556  0.52156939  1
  O2-  O443  1  0.19558516  0.83257736  0.85647629  1
  O2-  O444  1  0.44195388  0.09345657  0.17616849  1
  O2-  O445  1  0.41105574  0.09354625  0.52336604  1
  O2-  O446  1  0.42077374  0.07528826  0.87064029  1
  O2-  O447  1  0.48336467  0.30911485  0.20641340  1
  O2-  O448  1  0.42072392  0.33920591  0.51238081  1
  O2-  O449  1  0.41683501  0.33081139  0.85936502  1
  O2-  O450  1  0.41422382  0.57844280  0.18772760  1
  O2-  O451  1  0.39334329  0.59260809  0.51996168  1
  O2-  O452  1  0.41221071  0.59217433  0.85953602  1
  O2-  O453  1  0.46925245  0.88638417  0.18721256  1
  O2-  O454  1  0.42109104  0.83666187  0.51084752  1
  O2-  O455  1  0.39979062  0.86634251  0.84470496  1
  O2-  O456  1  0.68811915  0.10344237  0.20604899  1
  O2-  O457  1  0.66011848  0.07907049  0.48891442  1
  O2-  O458  1  0.66593662  0.08551039  0.85278415  1
  O2-  O459  1  0.68774797  0.33856390  0.18401217  1
  O2-  O460  1  0.67014725  0.34786615  0.52599176  1
  O2-  O461  1  0.67093198  0.32173550  0.86805524  1
  O2-  O462  1  0.67709140  0.57828601  0.18743510  1
  O2-  O463  1  0.63463751  0.53106670  0.51316739  1
  O2-  O464  1  0.65752809  0.60114494  0.86139516  1
  O2-  O465  1  0.68551469  0.82918195  0.18225780  1
  O2-  O466  1  0.65508480  0.81615938  0.51983950  1
  O2-  O467  1  0.59961584  0.82772576  0.87411397  1
  O2-  O468  1  0.89777012  0.06892571  0.19246453  1
  O2-  O469  1  0.90235187  0.05773477  0.52588898  1
  O2-  O470  1  0.98292318  0.04813954  0.87999792  1
  O2-  O471  1  0.94031914  0.34467788  0.17713368  1
  O2-  O472  1  0.92040385  0.33115874  0.52402208  1
  O2-  O473  1  0.91747219  0.34603635  0.85239589  1
  O2-  O474  1  0.91461948  0.58537525  0.19409952  1
  O2-  O475  1  0.91320182  0.57327397  0.52546771  1
  O2-  O476  1  0.92680773  0.60146134  0.84142138  1
  O2-  O477  1  0.91198801  0.81566797  0.19365239  1
  O2-  O478  1  0.89560316  0.79963558  0.53491489  1
  O2-  O479  1  0.93562316  0.81790104  0.85292341  1
  O2-  O480  1  0.15742046  0.07660241  0.31892549  1
  O2-  O481  1  0.15145472  0.08304782  0.65524917  1
  O2-  O482  1  0.16939473  0.07212112  0.97550960  1
  O2-  O483  1  0.15665229  0.33580127  0.31254740  1
  O2-  O484  1  0.13901846  0.31869922  0.66261809  1
  O2-  O485  1  0.16029782  0.33755530  0.98580743  1
  O2-  O486  1  0.16845372  0.58783714  0.31187430  1
  O2-  O487  1  0.16680936  0.58125949  0.65297608  1
  O2-  O488  1  0.15382586  0.57369703  0.99233774  1
  O2-  O489  1  0.17244951  0.83584698  0.32174551  1
  O2-  O490  1  0.14279421  0.82219787  0.64585912  1
  O2-  O491  1  0.16660114  0.82901488  0.97860663  1
  O2-  O492  1  0.37440425  0.05409113  0.29710109  1
  O2-  O493  1  0.41812396  0.08640594  0.64624663  1
  O2-  O494  1  0.42234164  0.07504613  0.99227244  1
  O2-  O495  1  0.43688821  0.32426249  0.30704299  1
  O2-  O496  1  0.40299843  0.31579509  0.63724409  1
  O2-  O497  1  0.42181674  0.33938223  0.98574974  1
  O2-  O498  1  0.39069592  0.54414527  0.31471179  1
  O2-  O499  1  0.41602955  0.59945646  0.64948288  1
  O2-  O500  1  0.42577808  0.57681563  0.97810105  1
  O2-  O501  1  0.43329966  0.83213704  0.29799752  1
  O2-  O502  1  0.41824270  0.83768503  0.64237938  1
  O2-  O503  1  0.34332252  0.79488412  0.95324711  1
  O2-  O504  1  0.67552175  0.09411002  0.32340432  1
  O2-  O505  1  0.66297266  0.08952910  0.63456043  1
  O2-  O506  1  0.67720073  0.06952831  0.97399322  1
  O2-  O507  1  0.67467359  0.33980799  0.31071643  1
  O2-  O508  1  0.66342963  0.33379728  0.64998635  1
  O2-  O509  1  0.67543806  0.32481204  0.98381009  1
  O2-  O510  1  0.66940231  0.58057232  0.31199954  1
  O2-  O511  1  0.66298840  0.57885179  0.63756751  1
  O2-  O512  1  0.65863957  0.57900673  0.98949036  1
  O2-  O513  1  0.68324279  0.84939091  0.30267121  1
  O2-  O514  1  0.67678137  0.84129605  0.64782400  1
  O2-  O515  1  0.66984593  0.83182419  1.00840957  1
  O2-  O516  1  0.91251316  0.08043070  0.31610117  1
  O2-  O517  1  0.91375429  0.08628485  0.64654891  1
  O2-  O518  1  0.92923932  0.06685427  0.98469715  1
  O2-  O519  1  0.92272364  0.33757581  0.30400682  1
  O2-  O520  1  0.91793095  0.33811424  0.64679625  1
  O2-  O521  1  0.93788192  0.29201198  0.96651346  1
  O2-  O522  1  0.92056198  0.58191967  0.31580075  1
  O2-  O523  1  0.91320114  0.57653197  0.64301823  1
  O2-  O524  1  0.90677789  0.58051054  0.97125033  1
  O2-  O525  1  0.91831801  0.82793278  0.31463786  1
  O2-  O526  1  1.00660070  0.91982941  0.66936147  1
  O2-  O527  1  0.91928657  0.82287687  0.97916496  1
  O2-  O528  1  0.08382278  0.17403717  0.03970784  1
  O2-  O529  1  0.08277010  0.16894285  0.35512303  1
  O2-  O530  1  0.07050416  0.16547854  0.69565505  1
  O2-  O531  1  0.06863481  0.41058241  0.04049423  1
  O2-  O532  1  0.08180816  0.42422878  0.35737689  1
  O2-  O533  1  0.07849592  0.41431974  0.69164418  1
  O2-  O534  1  0.07312460  0.66394028  0.02407952  1
  O2-  O535  1  0.08487795  0.66785215  0.35733284  1
  O2-  O536  1  0.08142041  0.65779904  0.68958316  1
  O2-  O537  1  0.08248094  0.90722857  0.02228653  1
  O2-  O538  1  0.08398109  0.91519514  0.36234574  1
  O2-  O539  1  0.01195221  0.85138895  0.68035420  1
  O2-  O540  1  0.33397273  0.16609932  0.01373955  1
  O2-  O541  1  0.32618992  0.16422166  0.35355571  1
  O2-  O542  1  0.32500493  0.15350592  0.69925640  1
  O2-  O543  1  0.33499664  0.42560143  0.01290864  1
  O2-  O544  1  0.32612576  0.45920378  0.33771421  1
  O2-  O545  1  0.30677148  0.40396971  0.64452569  1
  O2-  O546  1  0.33135034  0.67458062  0.01968006  1
  O2-  O547  1  0.34558445  0.66670921  0.33363305  1
  O2-  O548  1  0.34407390  0.69088448  0.69005408  1
  O2-  O549  1  0.33155615  0.92102675  0.00904426  1
  O2-  O550  1  0.33739177  0.91073594  0.35665995  1
  O2-  O551  1  0.33683812  0.91691806  0.63172131  1
  O2-  O552  1  0.60650850  0.15929344  0.01656132  1
  O2-  O553  1  0.58107506  0.17394684  0.35766256  1
  O2-  O554  1  0.58974105  0.17323471  0.69326430  1
  O2-  O555  1  0.59268722  0.41317449  0.02445647  1
  O2-  O556  1  0.59117101  0.41560795  0.35867422  1
  O2-  O557  1  0.57055079  0.41402169  0.68089789  1
  O2-  O558  1  0.57390512  0.65601564  0.02953752  1
  O2-  O559  1  0.56170502  0.62680734  0.36091800  1
  O2-  O560  1  0.58903106  0.67417994  0.68949889  1
  O2-  O561  1  0.59676746  0.92690240  0.03599137  1
  O2-  O562  1  0.58932866  0.92288332  0.35306527  1
  O2-  O563  1  0.57547359  0.92406128  0.67647327  1
  O2-  O564  1  0.83749022  0.14239896  0.01193597  1
  O2-  O565  1  0.84246105  0.17479903  0.35957503  1
  O2-  O566  1  0.82459044  0.16952725  0.67527997  1
  O2-  O567  1  0.82875223  0.41672726  0.01846289  1
  O2-  O568  1  0.83688379  0.41584544  0.35387761  1
  O2-  O569  1  0.83234912  0.41760649  0.69024603  1
  O2-  O570  1  0.83085396  0.65882359  0.02599240  1
  O2-  O571  1  0.83177748  0.66216247  0.35252631  1
  O2-  O572  1  0.83931580  0.67470804  0.64763706  1
  O2-  O573  1  0.83436758  0.90092471  0.02997766  1
  O2-  O574  1  0.84616583  0.91915837  0.35954368  1
  O2-  O575  1  0.85322051  0.92635947  0.69051126  1
