# generated using pymatgen
data_H2O
_symmetry_space_group_name_H-M   'P 1'
_cell_length_a   17.98284054
_cell_length_b   17.97130086
_cell_length_c   21.99718957
_cell_angle_alpha   89.99319284
_cell_angle_beta   90.01574479
_cell_angle_gamma   120.01397657
_symmetry_Int_Tables_number   1
_chemical_formula_structural   H2O
_chemical_formula_sum   'H384 O192'
_cell_volume   6155.65737357
_cell_formula_units_Z   192
loop_
 _symmetry_equiv_pos_site_id
 _symmetry_equiv_pos_as_xyz
  1  'x, y, z'
loop_
 _atom_type_symbol
 _atom_type_oxidation_number
  H+  1.0
  O2-  -2.0
loop_
 _atom_site_type_symbol
 _atom_site_label
 _atom_site_symmetry_multiplicity
 _atom_site_fract_x
 _atom_site_fract_y
 _atom_site_fract_z
 _atom_site_occupancy
  H+  H0  1  0.08795221  0.66337240  0.73419271  1
  H+  H1  1  0.48243632  0.85056670  0.34188260  1
  H+  H2  1  0.08945860  0.40720152  0.21586420  1
  H+  H3  1  1.01108255  0.37207792  0.82296900  1
  H+  H4  1  0.75140171  0.39036220  0.50215709  1
  H+  H5  1  0.16571360  0.83345004  0.57083652  1
  H+  H6  1  0.47232848  0.36190606  -0.00375168  1
  H+  H7  1  0.73984531  0.05646568  0.46290456  1
  H+  H8  1  0.88383938  0.11571172  0.65608678  1
  H+  H9  1  0.13328040  0.98203990  0.01473343  1
  H+  H10  1  0.63276270  0.50064360  0.50905321  1
  H+  H11  1  0.47342851  0.85810435  0.65951691  1
  H+  H12  1  0.38000269  0.67180262  0.21213969  1
  H+  H13  1  0.88291613  0.01718201  0.17893525  1
  H+  H14  1  0.36041084  0.62640321  0.66455443  1
  H+  H15  1  0.12428123  0.50510173  0.83530345  1
  H+  H16  1  0.72978341  0.36758663  0.67424256  1
  H+  H17  1  0.61679143  0.74677996  0.33246884  1
  H+  H18  1  0.40408164  0.27369011  0.84735773  1
  H+  H19  1  0.12218213  0.10291924  0.18322770  1
  H+  H20  1  0.37639658  0.92045470  0.19417871  1
  H+  H21  1  0.77960702  0.95571004  0.35267194  1
  H+  H22  1  -0.00323933  0.58116665  0.49371017  1
  H+  H23  1  0.35992281  0.58847818  0.34422942  1
  H+  H24  1  0.53030451  0.39553228  0.69288543  1
  H+  H25  1  0.33062428  0.43314222  0.73847734  1
  H+  H26  1  0.13675419  0.11577958  0.33777496  1
  H+  H27  1  0.65796994  0.29159902  0.15472193  1
  H+  H28  1  0.43519982  0.59674002  0.93882666  1
  H+  H29  1  0.96799230  0.35388789  0.66071966  1
  H+  H30  1  0.11184368  0.70593927  0.33671914  1
  H+  H31  1  0.50961557  0.86956152  0.83230870  1
  H+  H32  1  0.63552479  0.87024571  0.84726351  1
  H+  H33  1  0.77895599  0.64252928  0.15448434  1
  H+  H34  1  0.60518175  0.88952938  0.67658300  1
  H+  H35  1  0.34480608  0.22041652  0.31310588  1
  H+  H36  1  0.48535809  0.40246308  0.30554056  1
  H+  H37  1  0.74204823  0.37545385  0.98899120  1
  H+  H38  1  0.25830487  0.37757152  0.28984433  1
  H+  H39  1  -0.04369115  0.86688718  0.51220372  1
  H+  H40  1  0.95200990  0.44461135  0.48833565  1
  H+  H41  1  0.83253708  0.66054407  0.73647398  1
  H+  H42  1  0.13830912  0.36281252  0.50258758  1
  H+  H43  1  0.08488704  0.97127692  0.35660551  1
  H+  H44  1  0.38169375  0.66764126  -0.02601461  1
  H+  H45  1  0.49602214  0.08895911  0.34164776  1
  H+  H46  1  0.62028050  0.48401228  0.84166614  1
  H+  H47  1  0.85934802  0.89655686  0.67442735  1
  H+  H48  1  0.47943901  0.61986708  1.00399757  1
  H+  H49  1  0.44492416  0.09442760  0.48904268  1
  H+  H50  1  0.32158183  0.63999009  0.40577409  1
  H+  H51  1  0.27708626  0.88737708  0.67965905  1
  H+  H52  1  0.15542628  0.53918380  0.98893222  1
  H+  H53  1  0.66754683  0.58915996  -0.05934737  1
  H+  H54  1  0.51074753  0.61510612  0.35228671  1
  H+  H55  1  0.86628519  0.76856958  0.32596090  1
  H+  H56  1  0.87833787  0.34687361  0.31290820  1
  H+  H57  1  0.35162368  0.85999538  0.83440201  1
  H+  H58  1  0.72063875  0.62666701  0.67548805  1
  H+  H59  1  0.84390387  0.14789556  0.10298047  1
  H+  H60  1  0.42124700  0.34066191  0.62976640  1
  H+  H61  1  0.59784451  -0.02571496  0.68155494  1
  H+  H62  1  0.41054884  0.14785303  0.15526570  1
  H+  H63  1  0.84082116  0.67386314  0.09690748  1
  H+  H64  1  0.62046577  0.39740851  0.68801881  1
  H+  H65  1  0.37657857  0.75461880  -0.01550874  1
  H+  H66  1  0.90612321  0.03790695  0.33194588  1
  H+  H67  1  0.39114487  0.84603019  0.33701385  1
  H+  H68  1  0.65951675  0.85935612  0.59844632  1
  H+  H69  1  0.40664645  0.62014020  0.84301683  1
  H+  H70  1  0.36304257  0.22701752  0.68912602  1
  H+  H71  1  0.14364380  0.77579847  0.66609476  1
  H+  H72  1  0.61666316  0.95603723  0.36124956  1
  H+  H73  1  1.02087860  0.88345512  0.15924026  1
  H+  H74  1  0.62480436  0.64735035  0.49668642  1
  H+  H75  1  0.24203644  0.63319286  0.19520590  1
  H+  H76  1  0.09672113  0.36616261  0.82348961  1
  H+  H77  1  0.87742887  0.39543741  0.15111824  1
  H+  H78  1  0.72970068  0.62824393  0.52053747  1
  H+  H79  1  0.35969979  0.49070909  0.83290459  1
  H+  H80  1  0.37629914  0.63405526  0.49778847  1
  H+  H81  1  0.13076026  0.11457134  0.49667672  1
  H+  H82  1  0.95179693  0.56242099  0.82974496  1
  H+  H83  1  0.31438718  0.39939546  0.48206815  1
  H+  H84  1  0.39296104  0.11313607  0.67196111  1
  H+  H85  1  0.48458214  0.63533967  0.19250448  1
  H+  H86  1  0.36536588  0.22393541  0.00365866  1
  H+  H87  1  0.63663687  0.61084452  1.00430814  1
  H+  H88  1  0.37407006  0.13380553  0.00994045  1
  H+  H89  1  0.88650305  0.10904267  0.17902479  1
  H+  H90  1  0.72995775  0.09105741  0.47134938  1
  H+  H91  1  0.61632258  0.98244703  0.00792786  1
  H+  H92  1  0.09338746  0.91468022  0.07525560  1
  H+  H93  1  0.43498515  0.28314945  0.44980590  1
  H+  H94  1  0.03993454  0.15909195  0.33318033  1
  H+  H95  1  0.86785661  0.22069774  0.15347974  1
  H+  H96  1  0.86110092  0.25990580  0.51978118  1
  H+  H97  1  0.89434267  0.27022887  0.98650194  1
  H+  H98  1  0.51005025  0.64176683  0.67094365  1
  H+  H99  1  0.13741557  0.51927349  0.66306875  1
  H+  H100  1  0.88536751  0.86835032  0.98187265  1
  H+  H101  1  0.12288332  0.73428213  0.01011164  1
  H+  H102  1  0.62579400  0.07961382  0.34339024  1
  H+  H103  1  0.89720886  0.62116381  0.17031707  1
  H+  H104  1  0.50045115  0.63155824  0.84293840  1
  H+  H105  1  0.49180037  0.38098638  0.15451665  1
  H+  H106  1  0.59902655  0.64365202  0.67396001  1
  H+  H107  1  0.88431471  0.78476668  0.66502421  1
  H+  H108  1  0.76893414  0.89047008  0.16709981  1
  H+  H109  1  0.98596012  0.61971440  1.00393362  1
  H+  H110  1  0.64269350  0.53088956  0.16058291  1
  H+  H111  1  0.87170349  0.13994621  0.34219107  1
  H+  H112  1  0.11757608  0.25096115  0.15241076  1
  H+  H113  1  0.12620994  0.88193440  0.00802234  1
  H+  H114  1  0.63226448  0.52597696  0.32141499  1
  H+  H115  1  0.37320001  0.16782722  0.51189132  1
  H+  H116  1  0.25875554  0.60808059  0.81643067  1
  H+  H117  1  1.02676351  0.14463912  0.66566029  1
  H+  H118  1  0.35031983  0.90036404  0.02397438  1
  H+  H119  1  0.83462556  0.33008227  0.52679604  1
  H+  H120  1  0.23220600  0.07701062  0.36959377  1
  H+  H121  1  0.72015434  0.45034906  0.28115994  1
  H+  H122  1  0.65576771  0.76029410  0.99462427  1
  H+  H123  1  0.77238305  0.90143923  0.67396413  1
  H+  H124  1  0.65363995  0.28466768  0.98101156  1
  H+  H125  1  0.65440021  0.37767924  0.84174081  1
  H+  H126  1  0.63127285  0.39938470  0.15012306  1
  H+  H127  1  0.62990214  0.11629187  0.67675516  1
  H+  H128  1  0.70829529  0.10311878  0.83126420  1
  H+  H129  1  0.27568590  0.63432887  0.66973887  1
  H+  H130  1  0.53805274  0.14833322  -0.01079268  1
  H+  H131  1  0.02514657  0.89192034  0.67441208  1
  H+  H132  1  0.63487409  0.53535937  0.67688584  1
  H+  H133  1  0.60041018  0.00822205  0.52701733  1
  H+  H134  1  0.24217085  0.28063398  0.53818684  1
  H+  H135  1  0.61891442  0.64137445  0.11309888  1
  H+  H136  1  0.91595225  0.51383643  0.65870730  1
  H+  H137  1  0.39705589  1.02685184  0.67580136  1
  H+  H138  1  0.63996491  0.87070465  0.17633300  1
  H+  H139  1  0.90222274  0.53490815  0.16793331  1
  H+  H140  1  0.01649435  0.36694484  0.29211591  1
  H+  H141  1  0.11735960  0.27482509  0.98858693  1
  H+  H142  1  0.11844554  0.39379146  1.00000385  1
  H+  H143  1  0.84687953  0.19742346  0.82807814  1
  H+  H144  1  -0.01572037  0.43436345  0.50181247  1
  H+  H145  1  0.52235623  0.14260373  0.69000837  1
  H+  H146  1  0.15278673  0.10579437  0.99796087  1
  H+  H147  1  0.34515678  0.94157134  0.34721998  1
  H+  H148  1  0.50758107  0.37801556  0.46728451  1
  H+  H149  1  0.21565441  0.35900519  0.98436895  1
  H+  H150  1  0.60787290  0.86310532  0.35792079  1
  H+  H151  1  0.64495102  0.62514336  0.84245632  1
  H+  H152  1  0.12625296  1.01759000  0.18377989  1
  H+  H153  1  0.88801425  0.36346063  0.84388851  1
  H+  H154  1  0.88489677  0.51525363  0.32395525  1
  H+  H155  1  0.27009939  0.30357011  0.26758605  1
  H+  H156  1  0.74891467  0.38134176  0.16007811  1
  H+  H157  1  0.39923127  0.81017296  0.19268578  1
  H+  H158  1  0.48286124  0.36682312  0.85064590  1
  H+  H159  1  0.09940448  0.67693437  0.10413379  1
  H+  H160  1  0.12946452  0.59097646  0.33014425  1
  H+  H161  1  0.86834503  0.87160129  0.50957246  1
  H+  H162  1  -0.01985624  0.15728790  0.01000057  1
  H+  H163  1  0.86862358  0.97877577  0.76265667  1
  H+  H164  1  0.72767141  0.61354879  0.84352230  1
  H+  H165  1  0.21673011  0.83039375  0.33080450  1
  H+  H166  1  0.10650296  -0.04508951  0.83550451  1
  H+  H167  1  0.85445220  0.63466179  0.34134876  1
  H+  H168  1  0.00659698  0.12497328  0.15746966  1
  H+  H169  1  0.85799181  0.88866023  0.15950430  1
  H+  H170  1  0.13304726  0.84664528  0.84504947  1
  H+  H171  1  0.32043813  0.52741678  0.61465729  1
  H+  H172  1  0.13687690  0.35772636  0.16023776  1
  H+  H173  1  0.70722669  0.83324291  0.33287972  1
  H+  H174  1  0.09271732  0.69987980  0.83401807  1
  H+  H175  1  0.99569783  0.88371506  0.35340088  1
  H+  H176  1  0.11344152  0.14070718  0.66801641  1
  H+  H177  1  0.07756689  0.40458713  0.72799624  1
  H+  H178  1  0.22951646  0.11487128  0.66272632  1
  H+  H179  1  0.50210501  0.05191374  0.51140302  1
  H+  H180  1  0.15207612  0.72927600  0.48947422  1
  H+  H181  1  0.13008702  0.85654311  0.51135912  1
  H+  H182  1  0.67806776  0.07038519  0.24309489  1
  H+  H183  1  0.20449252  0.34965019  0.83692755  1
  H+  H184  1  0.68961859  0.34997658  0.89924774  1
  H+  H185  1  0.40154855  0.13308390  0.83818369  1
  H+  H186  1  0.89731717  0.61984695  0.00031787  1
  H+  H187  1  0.13390392  0.47968043  0.16622573  1
  H+  H188  1  0.86277358  0.70331358  0.82766990  1
  H+  H189  1  0.73408039  0.90217422  0.84670272  1
  H+  H190  1  0.36778599  0.41116486  0.16385458  1
  H+  H191  1  0.85258765  0.21757023  0.67556789  1
  H+  H192  1  0.20017227  0.08711837  0.48289387  1
  H+  H193  1  0.62650001  0.14400091  -0.01246865  1
  H+  H194  1  0.24068347  0.63019746  0.97130023  1
  H+  H195  1  0.84801145  0.60545201  0.82340838  1
  H+  H196  1  0.53342707  0.90248920  0.16280575  1
  H+  H197  1  0.63289471  0.36690813  0.52133681  1
  H+  H198  1  0.66093280  0.83213046  0.23524327  1
  H+  H199  1  0.36331613  0.88351306  0.67863278  1
  H+  H200  1  0.62633958  -0.01585137  0.16506565  1
  H+  H201  1  0.44463079  0.09343104  1.04223908  1
  H+  H202  1  0.83419346  0.52021048  0.53917605  1
  H+  H203  1  0.96919358  0.83390687  0.84177323  1
  H+  H204  1  0.09882379  0.61532691  0.82602447  1
  H+  H205  1  0.16123989  0.60194938  0.50451804  1
  H+  H206  1  0.87601868  0.48577124  0.00453001  1
  H+  H207  1  0.64049818  0.25220321  0.83300090  1
  H+  H208  1  0.10688053  0.45306928  0.30064838  1
  H+  H209  1  0.12734635  0.64764735  0.00610625  1
  H+  H210  1  0.91287260  0.17865196  0.49077941  1
  H+  H211  1  0.37635269  0.20672479  0.30350167  1
  H+  H212  1  0.97867423  0.35923610  0.16485414  1
  H+  H213  1  0.77130084  0.38309673  0.32786324  1
  H+  H214  1  0.11251003  0.38233651  0.66769993  1
  H+  H215  1  0.38609832  0.76514226  0.66069479  1
  H+  H216  1  0.72341868  0.09946998  0.34450317  1
  H+  H217  1  0.63398385  0.15589585  0.49315728  1
  H+  H218  1  0.16269570  0.83370420  0.93754263  1
  H+  H219  1  0.76462660  0.63301858  0.33827798  1
  H+  H220  1  0.35157672  0.47164582  -0.00496472  1
  H+  H221  1  0.26728382  0.87238384  0.50137991  1
  H+  H222  1  0.11610455  0.97722221  0.67576465  1
  H+  H223  1  0.03429795  0.14214447  -0.03958913  1
  H+  H224  1  0.48715896  0.89084058  0.01038377  1
  H+  H225  1  0.61380756  0.23563708  0.68678037  1
  H+  H226  1  0.55040716  0.16934636  0.13421524  1
  H+  H227  1  0.61996674  0.39058146  -0.00095471  1
  H+  H228  1  0.85506984  0.98978965  0.49439409  1
  H+  H229  1  0.15839086  0.81543044  0.27251126  1
  H+  H230  1  0.54109208  0.65410825  0.49607935  1
  H+  H231  1  0.87243464  0.39311561  0.00226852  1
  H+  H232  1  0.39042600  0.37292499  0.68581106  1
  H+  H233  1  0.60602363  0.38698759  0.33310707  1
  H+  H234  1  0.27917677  0.61955195  0.50133768  1
  H+  H235  1  0.36557122  0.83672464  0.51151528  1
  H+  H236  1  0.11199894  0.88548342  0.16514918  1
  H+  H237  1  0.62082163  0.14607016  0.83227418  1
  H+  H238  1  0.12442844  0.23187010  0.49197493  1
  H+  H239  1  0.28893780  0.49959918  0.80199852  1
  H+  H240  1  0.25707909  0.60202940  0.34652132  1
  H+  H241  1  0.86152074  0.38087662  0.68358948  1
  H+  H242  1  0.64208533  0.28136776  0.51348205  1
  H+  H243  1  0.97547344  0.27762133  0.47542156  1
  H+  H244  1  0.22754236  0.87382922  -0.00156917  1
  H+  H245  1  0.34918085  0.98755732  0.01510786  1
  H+  H246  1  0.24687908  0.11236891  1.00088953  1
  H+  H247  1  0.36456552  0.49470386  0.17949410  1
  H+  H248  1  0.85151909  0.73919494  0.49544749  1
  H+  H249  1  0.03883413  0.64891217  0.16293014  1
  H+  H250  1  0.86170777  0.85487813  0.32279937  1
  H+  H251  1  0.39713297  0.40165413  0.45432836  1
  H+  H252  1  0.61359469  1.01904845  0.83591981  1
  H+  H253  1  0.37554316  0.74042370  0.82637108  1
  H+  H254  1  0.23303477  0.36272238  0.66620197  1
  H+  H255  1  0.40922141  0.42239641  0.30176695  1
  H+  H256  1  0.63245602  0.74870696  0.82446310  1
  H+  H257  1  0.97956804  0.11824495  0.50563144  1
  H+  H258  1  0.11327929  0.07691219  0.86078089  1
  H+  H259  1  0.36104599  0.47830978  0.67167152  1
  H+  H260  1  0.11314897  0.43342953  0.50601425  1
  H+  H261  1  0.07583594  0.18513557  0.85654011  1
  H+  H262  1  0.09141090  -0.03630617  0.50711921  1
  H+  H263  1  0.14457862  0.61261441  0.66346061  1
  H+  H264  1  0.36428168  0.08133164  0.29347440  1
  H+  H265  1  0.68611559  0.36535144  0.24406895  1
  H+  H266  1  0.20491842  0.32927586  0.57623052  1
  H+  H267  1  0.04239919  0.63353716  0.66916412  1
  H+  H268  1  0.90612195  0.84102195  0.60460731  1
  H+  H269  1  0.36015654  0.72346756  0.26114757  1
  H+  H270  1  0.28643093  0.03082151  0.37879466  1
  H+  H271  1  -0.01851637  0.36432366  -0.00781458  1
  H+  H272  1  0.62992073  0.78808243  0.65245008  1
  H+  H273  1  0.85044724  0.63992522  0.66893486  1
  H+  H274  1  0.99068089  0.61958861  0.49407723  1
  H+  H275  1  0.41660985  0.54072379  0.50168189  1
  H+  H276  1  0.37353107  0.74501563  0.51137361  1
  H+  H277  1  0.73535305  0.10680061  0.18312148  1
  H+  H278  1  0.22104915  0.84460642  0.84999429  1
  H+  H279  1  0.36366453  0.00225329  0.25997390  1
  H+  H280  1  0.14841068  0.78420822  0.17471170  1
  H+  H281  1  0.15512042  0.07281393  0.28073170  1
  H+  H282  1  0.37631433  1.00610334  0.17334650  1
  H+  H283  1  0.82052893  0.09549234  0.81960414  1
  H+  H284  1  0.79053350  0.80500627  0.96430571  1
  H+  H285  1  0.14238540  0.27234239  0.65830453  1
  H+  H286  1  0.38334597  0.00648760  0.86530804  1
  H+  H287  1  0.84442192  0.61207926  0.53318705  1
  H+  H288  1  0.77359763  0.63285145  0.00921087  1
  H+  H289  1  0.63126057  0.45714074  0.44521724  1
  H+  H290  1  0.77668880  0.91497036  0.01041375  1
  H+  H291  1  0.91527824  0.32793339  0.90018259  1
  H+  H292  1  0.88649362  0.31422490  0.61305856  1
  H+  H293  1  0.81801713  0.14993711  0.72976008  1
  H+  H294  1  0.61253311  0.19915232  0.07715335  1
  H+  H295  1  0.12688711  0.67054279  0.43024567  1
  H+  H296  1  0.37732775  0.65267487  0.09404690  1
  H+  H297  1  0.85075942  0.42971375  0.09249707  1
  H+  H298  1  0.91607898  0.58013502  0.26740898  1
  H+  H299  1  0.84629276  0.06457697  1.02400492  1
  H+  H300  1  0.42580749  0.59124424  0.25150545  1
  H+  H301  1  0.60755690  0.90331381  0.45773695  1
  H+  H302  1  0.36830922  0.94865418  0.48955237  1
  H+  H303  1  0.75794698  0.90936800  0.49592132  1
  H+  H304  1  0.91844584  0.09375158  0.56484645  1
  H+  H305  1  0.87907879  0.25851015  0.31513046  1
  H+  H306  1  0.82714417  0.94634806  0.07250566  1
  H+  H307  1  0.08083454  0.90115767  0.77375290  1
  H+  H308  1  0.15133626  0.62281297  0.17509183  1
  H+  H309  1  0.02211171  0.61931248  0.34461223  1
  H+  H310  1  0.71340716  0.10825190  0.66326961  1
  H+  H311  1  0.40588494  0.81399520  0.57545988  1
  H+  H312  1  0.45916619  0.20957125  0.79481312  1
  H+  H313  1  0.38301126  0.24653854  0.15049665  1
  H+  H314  1  0.39743218  0.29869880  0.55113608  1
  H+  H315  1  0.92500314  0.57823228  0.60706352  1
  H+  H316  1  0.17437814  0.08689360  0.60095531  1
  H+  H317  1  0.13764525  0.23829215  0.32533948  1
  H+  H318  1  0.58203551  0.65727680  0.40663666  1
  H+  H319  1  0.34577534  0.17797335  0.09592057  1
  H+  H320  1  0.05734624  0.90703055  0.44726794  1
  H+  H321  1  0.92619147  0.08775348  0.26851754  1
  H+  H322  1  0.59097614  0.68724892  0.76636078  1
  H+  H323  1  0.44526045  0.87104871  0.24504421  1
  H+  H324  1  0.61102086  0.18460860  0.43181519  1
  H+  H325  1  0.56783546  0.90742140  0.77293135  1
  H+  H326  1  0.99312580  0.09271997  0.84847051  1
  H+  H327  1  0.38868975  0.76459355  0.89390018  1
  H+  H328  1  0.73650712  0.11331838  0.97997916  1
  H+  H329  1  0.88603495  0.77548688  0.16809579  1
  H+  H330  1  0.42006356  0.58234275  0.56796817  1
  H+  H331  1  0.41571332  0.33055076  0.93608665  1
  H+  H332  1  0.82345956  0.67301340  0.43838826  1
  H+  H333  1  0.36216348  0.31004745  0.55193392  1
  H+  H334  1  0.35440016  0.46035498  0.38329240  1
  H+  H335  1  0.14867619  0.32165203  0.89655419  1
  H+  H336  1  0.05794513  0.14843803  0.09344849  1
  H+  H337  1  0.02330124  0.43918830  0.39078324  1
  H+  H338  1  0.34125553  0.15939565  0.74108970  1
  H+  H339  1  0.66328837  0.59289890  0.21745247  1
  H+  H340  1  0.59481967  0.18582056  0.76973795  1
  H+  H341  1  0.79249873  0.41436002  0.83232766  1
  H+  H342  1  0.81757757  0.92965579  0.40879826  1
  H+  H343  1  0.32296803  0.63876859  0.75704604  1
  H+  H344  1  0.09093855  0.18497503  0.42789796  1
  H+  H345  1  0.42761070  0.88939701  0.95622932  1
  H+  H346  1  0.43144520  0.36243751  0.21165998  1
  H+  H347  1  0.03346768  0.40934530  0.40820908  1
  H+  H348  1  0.63089712  0.61241295  0.32530647  1
  H+  H349  1  0.66515122  0.07890448  0.92729269  1
  H+  H350  1  0.23046216  0.87898807  0.18802959  1
  H+  H351  1  0.35213573  0.38303034  0.99396589  1
  H+  H352  1  0.66545455  0.33609429  0.61720605  1
  H+  H353  1  0.81724356  0.38541570  0.39095686  1
  H+  H354  1  0.59699918  0.42431135  0.09045533  1
  H+  H355  1  0.35180861  0.13541320  0.44396677  1
  H+  H356  1  0.58898446  0.92726815  0.06972062  1
  H+  H357  1  0.68264383  0.82073590  0.93365579  1
  H+  H358  1  0.32019265  0.88210718  0.40698624  1
  H+  H359  1  0.50581654  0.06882586  0.40943690  1
  H+  H360  1  0.16762956  0.57651153  0.26867359  1
  H+  H361  1  0.13936751  0.86333058  0.66606371  1
  H+  H362  1  0.17386305  0.56847531  0.56869398  1
  H+  H363  1  0.46615835  0.13346971  0.20732754  1
  H+  H364  1  0.16108873  0.57293133  0.89161891  1
  H+  H365  1  0.91007438  0.32265859  0.21844618  1
  H+  H366  1  0.86396370  0.18967157  0.39945646  1
  H+  H367  1  0.09513713  0.42584934  0.06067184  1
  H+  H368  1  0.84489012  0.43030553  0.73836891  1
  H+  H369  1  0.41689330  0.06991730  0.92260722  1
  H+  H370  1  0.79689217  0.46319652  0.45250259  1
  H+  H371  1  0.53068142  0.37833601  0.38012784  1
  H+  H372  1  0.90988884  0.83290049  0.22820720  1
  H+  H373  1  0.61671740  0.47794700  0.00241741  1
  H+  H374  1  0.59381665  0.42673278  0.78175035  1
  H+  H375  1  0.16938588  0.05787863  0.90447229  1
  H+  H376  1  0.32974779  0.90327800  0.77944893  1
  H+  H377  1  0.66929682  0.59715233  0.58138343  1
  H+  H378  1  0.89081921  0.80724558  0.88871968  1
  H+  H379  1  0.41926825  0.69420162  0.09391261  1
  H+  H380  1  0.88761024  0.02957510  0.65425578  1
  H+  H381  1  0.19746764  0.32638644  0.19722745  1
  H+  H382  1  0.61235738  0.06723117  0.58373079  1
  H+  H383  1  0.84986422  0.72658545  0.00236556  1
  O2-  O384  1  0.06608853  0.15656406  0.13774148  1
  O2-  O385  1  0.08663607  0.17534235  0.47298861  1
  O2-  O386  1  0.04510635  0.12635624  0.87340570  1
  O2-  O387  1  0.09812634  0.41581091  0.16846313  1
  O2-  O388  1  0.08906864  0.37123767  0.49893340  1
  O2-  O389  1  0.07162841  0.40118178  0.80730749  1
  O2-  O390  1  0.10024780  0.67885279  0.14977547  1
  O2-  O391  1  0.15899735  0.68427188  0.46918859  1
  O2-  O392  1  0.06415985  0.64267373  0.81393642  1
  O2-  O393  1  0.08238348  0.91432814  0.14535714  1
  O2-  O394  1  0.06048580  0.90322057  0.49350099  1
  O2-  O395  1  0.07950342  0.89432868  0.81856890  1
  O2-  O396  1  0.35650076  0.18384478  0.14082760  1
  O2-  O397  1  0.40038415  0.17098643  0.47290930  1
  O2-  O398  1  0.40063726  0.17819601  0.81034650  1
  O2-  O399  1  0.32864934  0.43210001  0.17606302  1
  O2-  O400  1  0.36663704  0.43487469  0.45770233  1
  O2-  O401  1  0.30577538  0.45600623  0.80945807  1
  O2-  O402  1  0.34683513  0.70221137  0.21902376  1
  O2-  O403  1  0.33870455  0.65832772  0.48392131  1
  O2-  O404  1  0.31872708  0.62723231  0.80224759  1
  O2-  O405  1  0.34224923  0.95105441  0.19611222  1
  O2-  O406  1  0.32509249  0.88603557  0.48450563  1
  O2-  O407  1  0.32636778  0.89651224  0.82455243  1
  O2-  O408  1  0.61164298  0.20343004  0.12211338  1
  O2-  O409  1  0.64289372  0.20690417  0.46996891  1
  O2-  O410  1  0.60273760  0.18989113  0.81788785  1
  O2-  O411  1  0.59959173  0.42891739  0.13625511  1
  O2-  O412  1  0.61238558  0.44312107  0.48754462  1
  O2-  O413  1  0.59516089  0.42317827  0.82713780  1
  O2-  O414  1  0.58618450  0.66831308  0.09773941  1
  O2-  O415  1  0.59718286  0.67563802  0.47510934  1
  O2-  O416  1  0.60029359  0.68729430  0.81091280  1
  O2-  O417  1  0.59233021  0.92440439  0.14653441  1
  O2-  O418  1  0.61845726  0.91919464  0.50192007  1
  O2-  O419  1  0.56899277  0.91067816  0.81843604  1
  O2-  O420  1  0.83904734  0.15730073  0.14723860  1
  O2-  O421  1  0.91540039  0.23021389  0.47075505  1
  O2-  O422  1  0.80748492  0.14287836  0.80755062  1
  O2-  O423  1  0.85272447  0.43196591  0.13847033  1
  O2-  O424  1  0.80749376  0.42681564  0.47978866  1
  O2-  O425  1  0.85435074  0.44373497  0.81736451  1
  O2-  O426  1  0.84107921  0.67275757  0.14276062  1
  O2-  O427  1  0.82374029  0.67700090  0.48349405  1
  O2-  O428  1  0.82496440  0.64245410  0.81016016  1
  O2-  O429  1  0.82999444  0.92312218  0.15009124  1
  O2-  O430  1  0.81877356  0.92915086  0.48001731  1
  O2-  O431  1  0.89006497  1.00538010  0.80360595  1
  O2-  O432  1  0.14709766  0.07303366  0.20522585  1
  O2-  O433  1  0.15959371  0.08364368  0.51387330  1
  O2-  O434  1  0.15225652  0.05291195  0.86137833  1
  O2-  O435  1  0.16101929  0.31592699  0.15975151  1
  O2-  O436  1  0.22137179  0.32105738  0.53262973  1
  O2-  O437  1  0.14516700  0.31174796  0.85139497  1
  O2-  O438  1  0.17951213  0.59066260  0.19065524  1
  O2-  O439  1  0.17837027  0.56198039  0.52399527  1
  O2-  O440  1  0.15739394  0.56769978  0.84615592  1
  O2-  O441  1  0.16729071  0.84177306  0.19341385  1
  O2-  O442  1  0.16708676  0.83338817  0.52532474  1
  O2-  O443  1  0.16011652  0.81516890  0.86452125  1
  O2-  O444  1  0.44673086  0.11731371  0.16558453  1
  O2-  O445  1  0.45516992  0.04577030  0.48335572  1
  O2-  O446  1  0.41814013  0.06705038  0.87760524  1
  O2-  O447  1  0.43021429  0.35301924  0.16687024  1
  O2-  O448  1  0.45704266  0.34461133  0.43992568  1
  O2-  O449  1  0.42144989  0.33205118  0.86214398  1
  O2-  O450  1  0.42630303  0.60959606  0.20851163  1
  O2-  O451  1  0.43607349  0.59623718  0.52234011  1
  O2-  O452  1  0.44137924  0.59691624  0.86062942  1
  O2-  O453  1  0.43535258  0.87313038  0.20012725  1
  O2-  O454  1  0.39896262  0.80792849  0.52809213  1
  O2-  O455  1  0.40071971  0.79211642  0.85290331  1
  O2-  O456  1  0.67575375  0.07471318  0.19858653  1
  O2-  O457  1  0.59088058  0.05518976  0.54076588  1
  O2-  O458  1  0.64837403  0.08115527  0.84798167  1
  O2-  O459  1  0.68777152  0.35126962  0.17478285  1
  O2-  O460  1  0.65958365  0.33464023  0.53853206  1
  O2-  O461  1  0.68933443  0.34947863  0.85254601  1
  O2-  O462  1  0.66976287  0.59302218  0.17286865  1
  O2-  O463  1  0.66912415  0.59380593  0.53599433  1
  O2-  O464  1  0.66880318  0.59103791  0.86110980  1
  O2-  O465  1  0.67271738  0.84291812  0.19144462  1
  O2-  O466  1  0.66426686  0.87725950  0.52458651  1
  O2-  O467  1  0.67687499  0.85044065  0.85709146  1
  O2-  O468  1  0.91807998  0.07921993  0.19395565  1
  O2-  O469  1  0.91914549  0.09488298  0.51862165  1
  O2-  O470  1  0.81711713  0.00466615  0.83110105  1
  O2-  O471  1  0.91610714  0.32820265  0.17290632  1
  O2-  O472  1  0.83541166  0.28352170  0.54887303  1
  O2-  O473  1  0.90986981  0.32462255  0.85458409  1
  O2-  O474  1  0.92889445  0.59318966  0.18717978  1
  O2-  O475  1  0.84180272  0.56965796  0.56327298  1
  O2-  O476  1  0.88961038  0.53120043  0.84206832  1
  O2-  O477  1  0.91568068  0.83662159  0.18311014  1
  O2-  O478  1  0.89470199  0.83823523  0.52587670  1
  O2-  O479  1  0.90606990  0.79790807  0.84734298  1
  O2-  O480  1  0.15622227  0.07454822  0.32658698  1
  O2-  O481  1  0.17003592  0.08433842  0.64569352  1
  O2-  O482  1  0.18129677  0.07325003  0.98845957  1
  O2-  O483  1  0.22511258  0.31839588  0.27367228  1
  O2-  O484  1  0.17760163  0.33461229  0.64306711  1
  O2-  O485  1  0.15270634  0.33435252  0.97247856  1
  O2-  O486  1  0.16179975  0.56294375  0.31314116  1
  O2-  O487  1  0.17211679  0.57956255  0.64779751  1
  O2-  O488  1  0.17645270  0.59550423  0.96843416  1
  O2-  O489  1  0.15648918  0.80204703  0.31640855  1
  O2-  O490  1  0.17253823  0.83636518  0.65028852  1
  O2-  O491  1  0.16382508  0.83878129  0.98359811  1
  O2-  O492  1  0.38091143  0.03775798  0.29923443  1
  O2-  O493  1  0.43000636  0.08813956  0.66300341  1
  O2-  O494  1  0.42047814  0.08995240  1.00199567  1
  O2-  O495  1  0.42885413  0.38319818  0.28700936  1
  O2-  O496  1  0.42203542  0.34073790  0.67418147  1
  O2-  O497  1  0.41181163  0.32979158  0.98206686  1
  O2-  O498  1  0.40106340  0.56106359  0.32804548  1
  O2-  O499  1  0.37816827  0.55780428  0.63207275  1
  O2-  O500  1  0.42258200  0.59726233  0.98292524  1
  O2-  O501  1  0.43023237  0.83004334  0.31620378  1
  O2-  O502  1  0.41284947  0.82488374  0.64287781  1
  O2-  O503  1  0.42300874  0.86552444  0.99672248  1
  O2-  O504  1  0.66469896  0.05873006  0.32962635  1
  O2-  O505  1  0.64974016  0.07988015  0.65637857  1
  O2-  O506  1  0.67215291  0.08464565  0.97212731  1
  O2-  O507  1  0.69213647  0.38842825  0.28792288  1
  O2-  O508  1  0.66721673  0.33781443  0.66260449  1
  O2-  O509  1  0.68305085  0.34752626  0.97021619  1
  O2-  O510  1  0.66336478  0.58586406  0.30660328  1
  O2-  O511  1  0.66011660  0.59483165  0.66022196  1
  O2-  O512  1  0.66835364  0.58276391  0.98569336  1
  O2-  O513  1  0.64776502  0.80878008  0.31850254  1
  O2-  O514  1  0.66188702  0.85060735  0.64407444  1
  O2-  O515  1  0.70286373  0.81159531  0.97351196  1
  O2-  O516  1  0.93332652  0.09622033  0.31412857  1
  O2-  O517  1  0.91799318  0.09043963  0.63890010  1
  O2-  O518  1  0.87422225  0.12865473  1.03250683  1
  O2-  O519  1  0.90490981  0.31552698  0.29386453  1
  O2-  O520  1  0.90426199  0.32364924  0.65734738  1
  O2-  O521  1  0.92137010  0.33415004  0.97715017  1
  O2-  O522  1  0.90974386  0.57639038  0.31274653  1
  O2-  O523  1  0.95922999  0.56472688  0.63579755  1
  O2-  O524  1  0.92620463  0.58729622  0.98860295  1
  O2-  O525  1  0.89484444  0.82826737  0.30902155  1
  O2-  O526  1  0.91378595  0.84481389  0.64981228  1
  O2-  O527  1  0.85002233  0.81178029  0.96369519  1
  O2-  O528  1  0.03847590  0.16544496  0.00196906  1
  O2-  O529  1  0.09937715  0.18765566  0.35054274  1
  O2-  O530  1  0.08762270  0.17620400  0.67938441  1
  O2-  O531  1  0.09289892  0.42921115  0.01650947  1
  O2-  O532  1  0.07880685  0.39410025  0.28262725  1
  O2-  O533  1  0.07957666  0.40964132  0.68258805  1
  O2-  O534  1  0.09753658  0.67482918  0.02680271  1
  O2-  O535  1  0.08375188  0.64520224  0.35459376  1
  O2-  O536  1  0.10010484  0.67147549  0.68977277  1
  O2-  O537  1  0.09894550  0.91864151  0.02843739  1
  O2-  O538  1  0.04997593  0.91460715  0.37641686  1
  O2-  O539  1  0.08481477  0.91645916  0.69010020  1
  O2-  O540  1  0.33584687  0.16370649  0.01977600  1
  O2-  O541  1  0.27183936  0.07022317  0.39882625  1
  O2-  O542  1  0.33155258  0.16403977  0.69696981  1
  O2-  O543  1  0.31485240  0.40888232  -0.00063471  1
  O2-  O544  1  0.34989267  0.46729711  0.33819565  1
  O2-  O545  1  0.33749885  0.42073194  0.69520323  1
  O2-  O546  1  0.35100053  0.69905191  -0.03818740  1
  O2-  O547  1  0.31829145  0.62828553  0.36118385  1
  O2-  O548  1  0.33707922  0.66300256  0.68398118  1
  O2-  O549  1  0.31251874  0.92537013  0.02877793  1
  O2-  O550  1  0.32200012  0.88203722  0.36150374  1
  O2-  O551  1  0.33637520  0.91455410  0.69732390  1
  O2-  O552  1  0.60107539  0.18137097  -0.00263442  1
  O2-  O553  1  0.53955887  0.09792574  0.37233124  1
  O2-  O554  1  0.58478313  0.17647257  0.70558494  1
  O2-  O555  1  0.58668472  0.41633193  0.01621252  1
  O2-  O556  1  0.57945092  0.41746776  0.35306762  1
  O2-  O557  1  0.59241094  0.42951648  0.70407575  1
  O2-  O558  1  0.58591042  0.65957433  0.03086135  1
  O2-  O559  1  0.57335348  0.64972753  0.36010002  1
  O2-  O560  1  0.56950022  0.67646542  0.68493378  1
  O2-  O561  1  0.57960262  0.92382132  0.02468756  1
  O2-  O562  1  0.58547091  0.89708444  0.37941824  1
  O2-  O563  1  0.56832494  0.91233741  0.69377811  1
  O2-  O564  1  0.84140917  0.16381953  -0.01388212  1
  O2-  O565  1  0.84004488  0.16834574  0.35797269  1
  O2-  O566  1  0.82022116  0.15428617  0.68437252  1
  O2-  O567  1  0.84232196  0.42314666  0.01788476  1
  O2-  O568  1  0.82729347  0.39675667  0.34715794  1
  O2-  O569  1  0.83531445  0.41741939  0.69424375  1
  O2-  O570  1  0.83527089  0.67040310  0.02114297  1
  O2-  O571  1  0.82404879  0.66465687  0.35591953  1
  O2-  O572  1  0.83065946  0.67329985  0.69170712  1
  O2-  O573  1  0.82820118  0.96335851  0.02924005  1
  O2-  O574  1  0.81628656  0.93147906  0.36193745  1
  O2-  O575  1  0.83350322  0.93208832  0.68722335  1
