# generated using pymatgen
data_H2O
_symmetry_space_group_name_H-M   'P 1'
_cell_length_a   17.99689272
_cell_length_b   17.99887550
_cell_length_c   21.99976537
_cell_angle_alpha   89.98394507
_cell_angle_beta   89.99819666
_cell_angle_gamma   119.98753112
_symmetry_Int_Tables_number   1
_chemical_formula_structural   H2O
_chemical_formula_sum   'H384 O192'
_cell_volume   6172.28695742
_cell_formula_units_Z   192
loop_
 _symmetry_equiv_pos_site_id
 _symmetry_equiv_pos_as_xyz
  1  'x, y, z'
loop_
 _atom_type_symbol
 _atom_type_oxidation_number
  H+  1.0
  O2-  -2.0
loop_
 _atom_site_type_symbol
 _atom_site_label
 _atom_site_symmetry_multiplicity
 _atom_site_fract_x
 _atom_site_fract_y
 _atom_site_fract_z
 _atom_site_occupancy
  H+  H0  1  0.11919136  0.64004655  0.67471361  1
  H+  H1  1  0.09098615  0.91347601  0.11480315  1
  H+  H2  1  0.60957478  0.88052490  0.49571233  1
  H+  H3  1  0.38915708  0.87044572  0.51184329  1
  H+  H4  1  0.86743084  0.72105301  0.71934825  1
  H+  H5  1  0.88604912  0.62796865  0.83221823  1
  H+  H6  1  0.64069003  0.27134287  0.99757600  1
  H+  H7  1  0.84680064  0.92180410  0.73357276  1
  H+  H8  1  0.17035967  0.07550838  0.56575605  1
  H+  H9  1  0.36144509  0.73509123  0.14549246  1
  H+  H10  1  0.45560327  0.68505310  0.53434411  1
  H+  H11  1  0.71644773  0.28515412  0.86350330  1
  H+  H12  1  0.86855616  0.99132045  0.47601950  1
  H+  H13  1  0.36360911  0.12857721  0.49462143  1
  H+  H14  1  0.61364898  0.87679510  0.66749477  1
  H+  H15  1  0.22747974  0.10223065  0.50456147  1
  H+  H16  1  0.34013778  0.43053733  0.48270431  1
  H+  H17  1  0.89140691  0.93804545  0.16422240  1
  H+  H18  1  0.36604711  0.10415150  0.66853038  1
  H+  H19  1  0.51597757  0.62289234  0.83511277  1
  H+  H20  1  0.91523492  0.10257107  0.27497571  1
  H+  H21  1  0.22123219  0.35458830  0.32026709  1
  H+  H22  1  0.11419371  0.21137286  0.50251733  1
  H+  H23  1  0.60125852  0.62666044  0.33757668  1
  H+  H24  1  0.26607222  0.86800517  0.15253266  1
  H+  H25  1  0.63184289  0.63283579  0.16625144  1
  H+  H26  1  0.88177769  0.30370566  0.85681997  1
  H+  H27  1  0.73627189  0.61742007  0.68926268  1
  H+  H28  1  0.35285069  0.87146929  0.34465666  1
  H+  H29  1  0.62774850  0.49294445  0.68502369  1
  H+  H30  1  0.23116622  0.65914040  0.48958460  1
  H+  H31  1  0.27147508  0.88618803  0.83036639  1
  H+  H32  1  0.23172865  0.12562308  0.84664059  1
  H+  H33  1  0.02985687  0.09482934  0.77422654  1
  H+  H34  1  0.65078164  0.62185153  0.67755018  1
  H+  H35  1  0.60700386  0.96710150  0.84332600  1
  H+  H36  1  0.87767124  0.82153448  0.17579655  1
  H+  H37  1  0.42013934  0.08831516  0.57094061  1
  H+  H38  1  0.35181874  0.64401907  0.13439629  1
  H+  H39  1  0.64755951  0.36470386  0.99344701  1
  H+  H40  1  0.35734690  0.22065061  0.15767458  1
  H+  H41  1  0.17280885  0.83279662  0.57668645  1
  H+  H42  1  0.14854245  0.12096612  0.33201611  1
  H+  H43  1  0.97206606  0.35819163  0.33588103  1
  H+  H44  1  0.47686415  0.86061739  0.65958257  1
  H+  H45  1  0.52409935  0.87844319  0.01059287  1
  H+  H46  1  0.37149128  0.98531990  0.49929849  1
  H+  H47  1  0.63548109  1.02419731  0.17618600  1
  H+  H48  1  1.02513799  0.39098874  0.16696705  1
  H+  H49  1  0.65988548  0.33309424  0.26447486  1
  H+  H50  1  0.62621116  0.48690900  -0.00287262  1
  H+  H51  1  0.87828241  0.71052424  0.15302216  1
  H+  H52  1  0.84958451  0.66356208  0.06245988  1
  H+  H53  1  0.36764218  0.97168895  0.00249449  1
  H+  H54  1  0.97798829  0.36957868  0.56728312  1
  H+  H55  1  -0.03760475  0.51545609  0.44751974  1
  H+  H56  1  0.12016933  0.48316670  0.82681192  1
  H+  H57  1  0.47040638  0.85425673  0.32290916  1
  H+  H58  1  0.89471043  0.84716358  0.55059072  1
  H+  H59  1  0.29419652  0.56907216  0.45151090  1
  H+  H60  1  0.34779054  0.21846855  0.67942697  1
  H+  H61  1  0.60527808  0.96652148  0.49292789  1
  H+  H62  1  0.55670155  0.39930848  -0.03041310  1
  H+  H63  1  0.86350347  0.23156021  0.00435664  1
  H+  H64  1  0.60683671  0.46127549  0.50018420  1
  H+  H65  1  0.37251725  0.26140488  1.00177779  1
  H+  H66  1  0.91073319  0.27658716  0.64615563  1
  H+  H67  1  0.52390887  0.37003113  0.49367655  1
  H+  H68  1  0.45921473  0.10945860  0.84026114  1
  H+  H69  1  0.63305796  0.85672445  1.00297453  1
  H+  H70  1  0.78101400  0.39195774  0.00617223  1
  H+  H71  1  0.61749021  -0.03485785  0.66140697  1
  H+  H72  1  0.98088320  0.61910275  0.31997715  1
  H+  H73  1  0.37853840  0.39246268  0.68475018  1
  H+  H74  1  0.76817941  0.13611056  0.34400819  1
  H+  H75  1  0.88649395  1.02021168  0.00624617  1
  H+  H76  1  0.87953755  0.51931037  -0.01504350  1
  H+  H77  1  0.93708325  0.88956013  0.84112158  1
  H+  H78  1  0.47884978  0.36435115  0.84927826  1
  H+  H79  1  0.77899321  0.38315429  0.66883309  1
  H+  H80  1  0.81661216  0.39909186  0.48421222  1
  H+  H81  1  0.81932326  0.78401448  -0.06013750  1
  H+  H82  1  0.65142871  0.77429398  0.66391121  1
  H+  H83  1  0.12413709  0.35381591  0.99963107  1
  H+  H84  1  0.26984467  0.13501717  0.00644068  1
  H+  H85  1  1.02750564  0.88211064  0.69122958  1
  H+  H86  1  0.21687357  0.35172477  0.17077114  1
  H+  H87  1  0.11085835  0.22452470  0.34120243  1
  H+  H88  1  0.11827597  0.47627408  0.16513954  1
  H+  H89  1  0.89018909  0.51647302  0.17508811  1
  H+  H90  1  0.72268612  0.11069052  0.99899823  1
  H+  H91  1  0.48514341  0.12059271  0.51284063  1
  H+  H92  1  0.60793812  0.72124099  0.01346237  1
  H+  H93  1  0.13436602  0.11122533  0.00192296  1
  H+  H94  1  0.73386904  0.87137882  0.17845738  1
  H+  H95  1  0.33306868  0.60803754  0.46414748  1
  H+  H96  1  0.89458485  0.23655811  0.78425605  1
  H+  H97  1  0.53316336  0.14307718  0.33738694  1
  H+  H98  1  0.36271242  0.09105150  0.17749370  1
  H+  H99  1  0.13989229  0.65672151  0.34411504  1
  H+  H100  1  0.40150096  0.53215381  0.67186995  1
  H+  H101  1  0.53679451  0.64395603  0.68254429  1
  H+  H102  1  0.66782670  0.07786111  0.56113753  1
  H+  H103  1  0.15480362  0.29320575  0.67275278  1
  H+  H104  1  0.02628898  0.13359687  0.02149031  1
  H+  H105  1  0.72252115  0.11524015  0.17597343  1
  H+  H106  1  0.76603633  0.88438802  1.01486277  1
  H+  H107  1  0.61433039  0.14314208  0.16433422  1
  H+  H108  1  0.36865476  0.73006138  0.67727933  1
  H+  H109  1  0.88437342  0.12575921  0.64662660  1
  H+  H110  1  0.66308542  0.56968910  0.57924535  1
  H+  H111  1  0.88895184  0.11322060  0.49897543  1
  H+  H112  1  0.63232965  0.28313549  0.66216161  1
  H+  H113  1  0.46407055  0.28906186  0.64348887  1
  H+  H114  1  0.91234401  0.82435080  0.27692436  1
  H+  H115  1  1.02563683  0.62489746  0.16141476  1
  H+  H116  1  0.21890345  0.10622935  0.66514985  1
  H+  H117  1  0.11315530  0.12235779  0.49567094  1
  H+  H118  1  0.10732100  0.18694998  0.76790773  1
  H+  H119  1  0.07937174  0.41243861  0.07014701  1
  H+  H120  1  0.10777591  0.21956660  0.17048618  1
  H+  H121  1  0.51589020  0.88345483  0.84528525  1
  H+  H122  1  0.67466002  0.10811584  0.67129120  1
  H+  H123  1  0.13635315  0.61147127  0.83808402  1
  H+  H124  1  0.92944364  0.08391931  0.95060486  1
  H+  H125  1  0.63285112  0.51904003  0.33093192  1
  H+  H126  1  0.87630937  0.61413647  0.98688569  1
  H+  H127  1  0.33533408  0.16111498  0.43441351  1
  H+  H128  1  1.03039679  0.39688893  0.82767735  1
  H+  H129  1  0.82195520  -0.11675427  0.83486527  1
  H+  H130  1  0.43687130  0.59465280  0.15986343  1
  H+  H131  1  0.88951150  0.53101651  0.31571780  1
  H+  H132  1  0.40921527  0.53169957  0.50489263  1
  H+  H133  1  0.89228265  0.85079745  0.68140734  1
  H+  H134  1  0.86652260  0.90234785  0.46700509  1
  H+  H135  1  0.38092566  0.59537509  0.84784301  1
  H+  H136  1  0.63989834  0.27647955  0.32533236  1
  H+  H137  1  0.55855264  0.65285917  0.18244790  1
  H+  H138  1  0.86839984  0.76008576  0.98696303  1
  H+  H139  1  0.86368319  0.63577099  0.34237938  1
  H+  H140  1  0.88213447  0.62513122  0.14739107  1
  H+  H141  1  0.86507935  0.14291551  0.00961356  1
  H+  H142  1  0.09373471  0.58391108  0.50560410  1
  H+  H143  1  0.38479261  0.50921493  1.00103888  1
  H+  H144  1  0.17581230  0.82412283  0.90007849  1
  H+  H145  1  0.82494659  0.05055411  0.89393570  1
  H+  H146  1  0.87317833  0.39859769  1.00776209  1
  H+  H147  1  0.61162601  0.38230780  0.15711973  1
  H+  H148  1  0.87457530  0.61929835  0.51175716  1
  H+  H149  1  0.28012377  0.64063921  0.67389891  1
  H+  H150  1  0.97798506  0.84890172  0.18046615  1
  H+  H151  1  0.37901436  0.33792165  0.50490061  1
  H+  H152  1  0.11511738  0.72692908  0.67531333  1
  H+  H153  1  0.78102627  0.40209562  0.81890407  1
  H+  H154  1  0.32166209  0.74503953  0.48331903  1
  H+  H155  1  0.14606896  0.99015947  0.02057906  1
  H+  H156  1  0.03317190  0.60740943  0.41782083  1
  H+  H157  1  0.26666602  0.13299900  0.15896012  1
  H+  H158  1  0.72386071  0.36566664  0.17204951  1
  H+  H159  1  0.72174116  0.10396964  0.50032133  1
  H+  H160  1  0.35266245  0.46489948  0.33387066  1
  H+  H161  1  0.97413529  0.12633465  0.17837935  1
  H+  H162  1  0.65071112  0.36403305  0.50252917  1
  H+  H163  1  0.36309121  0.23065258  0.83450890  1
  H+  H164  1  0.10870617  0.87111720  0.17131520  1
  H+  H165  1  0.86478039  0.39652360  0.32421513  1
  H+  H166  1  0.10808860  0.46890790  0.00752791  1
  H+  H167  1  0.13564095  0.34320871  0.52142474  1
  H+  H168  1  0.77145791  0.64272058  0.81451279  1
  H+  H169  1  0.15338580  0.77768494  0.51575545  1
  H+  H170  1  0.22555771  0.61051537  0.83962102  1
  H+  H171  1  0.36578752  0.88770201  0.67761204  1
  H+  H172  1  0.61041007  0.13549111  1.01065733  1
  H+  H173  1  0.82857363  0.17734298  0.10174957  1
  H+  H174  1  0.36397845  0.73441061  0.03028095  1
  H+  H175  1  0.01353552  0.37011774  0.49848668  1
  H+  H176  1  0.65786138  0.78408050  0.50520014  1
  H+  H177  1  0.25471183  0.34420501  0.48915759  1
  H+  H178  1  0.86174389  0.15256508  0.16185443  1
  H+  H179  1  0.61445143  0.13751952  0.49506212  1
  H+  H180  1  0.38882692  0.35787044  0.31948528  1
  H+  H181  1  0.61213202  0.38495649  0.33855828  1
  H+  H182  1  0.86862756  0.38171460  0.66810668  1
  H+  H183  1  0.98337165  0.85233840  0.53283926  1
  H+  H184  1  0.56605956  0.66573218  0.50338948  1
  H+  H185  1  0.87481304  -0.01581122  0.83468915  1
  H+  H186  1  0.53722647  0.40598414  0.67727151  1
  H+  H187  1  0.47481648  0.86222417  0.17013181  1
  H+  H188  1  0.16646814  0.33430219  0.90090811  1
  H+  H189  1  0.52309607  0.13898558  0.00657097  1
  H+  H190  1  0.75598157  0.10934665  0.64550923  1
  H+  H191  1  0.61218388  0.88581168  0.16406790  1
  H+  H192  1  0.65282929  0.77710585  0.17348478  1
  H+  H193  1  0.09591341  0.50634143  0.53055423  1
  H+  H194  1  0.14234286  0.86458815  0.66802228  1
  H+  H195  1  0.45970052  0.60631158  0.32161632  1
  H+  H196  1  0.66086985  0.82929885  0.26742312  1
  H+  H197  1  0.11249940  0.97459854  0.67702323  1
  H+  H198  1  0.13014062  0.10427147  0.18041091  1
  H+  H199  1  0.13406318  1.01703191  0.18317910  1
  H+  H200  1  -0.00775216  0.36901254  0.66244326  1
  H+  H201  1  0.89575677  0.52095433  0.65587921  1
  H+  H202  1  0.63716683  0.11176505  0.33163731  1
  H+  H203  1  0.58534400  0.41996284  0.77207240  1
  H+  H204  1  0.47305841  0.35782348  0.16726546  1
  H+  H205  1  0.42429931  0.85217028  0.92114104  1
  H+  H206  1  0.64115847  0.60114722  0.51776103  1
  H+  H207  1  0.13152728  0.75523728  0.17177756  1
  H+  H208  1  0.73503084  0.87890021  0.50328568  1
  H+  H209  1  0.77592698  0.39718647  0.32079106  1
  H+  H210  1  0.59716155  0.21734440  0.82645271  1
  H+  H211  1  0.36928194  0.90700574  0.83541966  1
  H+  H212  1  0.39660952  0.61919477  0.67279899  1
  H+  H213  1  0.86758064  0.72263990  0.50188024  1
  H+  H214  1  0.23424481  0.85165885  0.99131469  1
  H+  H215  1  0.36046830  0.38080872  0.83674949  1
  H+  H216  1  0.86379737  0.38701661  0.16290611  1
  H+  H217  1  0.63245572  0.85989663  0.32838532  1
  H+  H218  1  -0.03749424  0.85357659  0.34243684  1
  H+  H219  1  0.61334034  0.96863087  0.01266130  1
  H+  H220  1  0.87969370  1.04597937  0.17751535  1
  H+  H221  1  0.85387544  0.21676014  0.49169461  1
  H+  H222  1  0.37934412  0.51579173  0.53213979  1
  H+  H223  1  0.36769864  0.79862726  0.86392642  1
  H+  H224  1  0.13187593  0.59602567  0.99637395  1
  H+  H225  1  0.70452533  0.11808202  0.85527582  1
  H+  H226  1  0.11852112  0.71126984  0.00585520  1
  H+  H227  1  0.37841268  0.70623600  0.82533614  1
  H+  H228  1  0.77837831  0.63342608  0.00670685  1
  H+  H229  1  -0.01581902  0.61166144  0.65753360  1
  H+  H230  1  -0.02590710  0.12416305  0.33353893  1
  H+  H231  1  0.64099139  0.61621508  0.99478285  1
  H+  H232  1  0.41698750  0.32816269  0.22818687  1
  H+  H233  1  0.85437289  0.86902479  0.33180948  1
  H+  H234  1  0.11605817  0.72970106  0.34401449  1
  H+  H235  1  0.61029118  -0.02862529  0.34065684  1
  H+  H236  1  0.10919969  0.96681310  0.50462172  1
  H+  H237  1  0.13712164  0.11478551  0.84050121  1
  H+  H238  1  0.87554865  0.11226154  0.84080634  1
  H+  H239  1  0.97833568  0.10960952  0.49896175  1
  H+  H240  1  0.11091697  0.87866188  0.50762136  1
  H+  H241  1  0.14849359  0.45696265  0.43487298  1
  H+  H242  1  0.46812826  0.85379370  0.50743423  1
  H+  H243  1  0.61561423  0.38841713  0.82935791  1
  H+  H244  1  0.63540832  0.51876732  0.17516986  1
  H+  H245  1  0.36987771  0.02143424  0.84133476  1
  H+  H246  1  0.45328615  0.35275650  1.01596990  1
  H+  H247  1  0.89602318  0.39473085  0.83863535  1
  H+  H248  1  0.79637437  0.17189246  0.77968081  1
  H+  H249  1  0.48010381  0.36220910  0.32348546  1
  H+  H250  1  0.63560635  0.27459530  0.17083831  1
  H+  H251  1  0.97986353  0.36740855  1.00384031  1
  H+  H252  1  0.11759779  0.62951527  0.16351522  1
  H+  H253  1  0.37578497  0.01902470  0.66721199  1
  H+  H254  1  0.35213478  0.38196875  0.00796609  1
  H+  H255  1  0.89270776  1.00612494  0.65155613  1
  H+  H256  1  0.64703774  0.37745991  0.66410500  1
  H+  H257  1  0.63679190  0.61389686  0.84126208  1
  H+  H258  1  0.13043618  0.35801084  0.17267441  1
  H+  H259  1  0.78215298  0.88176063  0.67565201  1
  H+  H260  1  0.90440884  0.40107283  0.49624732  1
  H+  H261  1  0.11163008  0.37203675  0.34286881  1
  H+  H262  1  0.88526815  0.53841102  0.82986246  1
  H+  H263  1  0.58409479  0.14297616  0.66141314  1
  H+  H264  1  0.27066762  0.38307923  0.83410618  1
  H+  H265  1  0.34513686  0.45912640  0.15965816  1
  H+  H266  1  0.88623926  0.28134531  0.17588993  1
  H+  H267  1  0.38258624  0.50726507  0.85020027  1
  H+  H268  1  0.38516688  0.10984731  0.99686513  1
  H+  H269  1  0.23492436  0.62221632  0.16059421  1
  H+  H270  1  0.62312389  0.23084066  0.49665840  1
  H+  H271  1  0.35649118  0.13762544  0.83324894  1
  H+  H272  1  0.35638589  0.37508791  0.15854392  1
  H+  H273  1  0.95044539  0.58857534  0.50294600  1
  H+  H274  1  0.14438044  0.53248816  0.66386529  1
  H+  H275  1  0.28238764  0.89657486  0.50301363  1
  H+  H276  1  0.17861706  0.33509875  0.58243277  1
  H+  H277  1  0.40283514  0.11994672  0.33160135  1
  H+  H278  1  0.12875974  0.40305032  0.67922449  1
  H+  H279  1  0.69516426  0.84445510  0.83843569  1
  H+  H280  1  0.38377914  0.85969087  0.16730639  1
  H+  H281  1  0.02530868  0.64025656  0.82610854  1
  H+  H282  1  0.05418534  0.90351659  0.83499671  1
  H+  H283  1  0.85531526  0.71958897  0.34715106  1
  H+  H284  1  0.28160111  0.14055600  0.34484619  1
  H+  H285  1  0.61242399  0.10621878  0.84409254  1
  H+  H286  1  0.14934793  0.85509226  0.99711238  1
  H+  H287  1  0.32655897  0.41344092  0.06838813  1
  H+  H288  1  0.02365746  0.13296988  0.64992079  1
  H+  H289  1  0.36152426  1.00207366  0.17694262  1
  H+  H290  1  0.59001493  0.17233115  0.39834938  1
  H+  H291  1  0.64264467  0.52804724  0.84147231  1
  H+  H292  1  0.66070782  0.82441687  0.94382374  1
  H+  H293  1  0.24771297  0.37795431  0.67362661  1
  H+  H294  1  0.41788362  0.57219778  0.93645295  1
  H+  H295  1  0.08290029  0.66328080  0.76621696  1
  H+  H296  1  0.58679468  0.17252162  0.10420468  1
  H+  H297  1  0.13223945  0.10763278  0.65246235  1
  H+  H298  1  0.39280708  0.57292352  0.22544382  1
  H+  H299  1  0.08821496  0.65440550  0.06514057  1
  H+  H300  1  0.75458797  0.86945198  0.32900431  1
  H+  H301  1  0.65325735  0.07587487  0.94512076  1
  H+  H302  1  0.86210326  0.14283502  0.34422349  1
  H+  H303  1  0.41788993  0.33249198  0.90901521  1
  H+  H304  1  0.83783247  0.42061678  0.10297090  1
  H+  H305  1  0.83824428  0.92868406  0.10368774  1
  H+  H306  1  0.90447768  0.58306786  0.91964689  1
  H+  H307  1  0.32859604  0.90409233  0.40599556  1
  H+  H308  1  0.37208150  0.22743371  0.34419387  1
  H+  H309  1  0.41194406  0.08219352  0.93586832  1
  H+  H310  1  0.13920621  0.00371866  0.83039476  1
  H+  H311  1  0.82864429  0.16296849  0.42964637  1
  H+  H312  1  0.49698669  0.13806613  0.67523813  1
  H+  H313  1  0.23096933  0.86347742  0.66750637  1
  H+  H314  1  0.14827655  0.76813560  0.83940632  1
  H+  H315  1  0.47168187  0.63887450  0.58934755  1
  H+  H316  1  0.16814587  0.81702315  0.23052029  1
  H+  H317  1  0.33534218  0.91788528  0.73767331  1
  H+  H318  1  0.92734550  0.35440563  0.94248492  1
  H+  H319  1  0.34077490  0.72190089  0.31357324  1
  H+  H320  1  0.72113455  0.60792106  0.33286099  1
  H+  H321  1  0.92271693  0.80650554  0.63298498  1
  H+  H322  1  0.66525315  0.08022739  0.27252976  1
  H+  H323  1  0.41915777  0.31829847  0.59610279  1
  H+  H324  1  0.34559144  0.41833074  0.74468713  1
  H+  H325  1  0.23058743  0.86704089  0.33476710  1
  H+  H326  1  0.33607781  0.65451615  0.76555331  1
  H+  H327  1  0.11299300  0.22380552  0.01679139  1
  H+  H328  1  0.67713130  0.32375780  0.90768376  1
  H+  H329  1  0.48202025  0.60582395  0.00054099  1
  H+  H330  1  0.94768649  0.84513274  0.89972469  1
  H+  H331  1  0.10707493  0.93551662  0.76748828  1
  H+  H332  1  0.83933815  0.42633829  0.75828140  1
  H+  H333  1  0.58354284  0.91346998  0.10379735  1
  H+  H334  1  0.15624873  0.32471642  0.26394855  1
  H+  H335  1  0.32858606  0.90422928  0.09390218  1
  H+  H336  1  0.68140453  0.83293977  0.60306070  1
  H+  H337  1  0.17999383  0.09157419  0.27458013  1
  H+  H338  1  0.92168901  0.58554620  0.23052987  1
  H+  H339  1  0.56594058  0.16120304  0.76558597  1
  H+  H340  1  0.21496080  0.35890401  0.99838352  1
  H+  H341  1  0.32090184  0.16563093  0.74230432  1
  H+  H342  1  0.10098922  0.19756983  0.61107119  1
  H+  H343  1  0.08099736  0.16043943  0.11185099  1
  H+  H344  1  0.88102486  0.27340823  0.33241749  1
  H+  H345  1  0.59256807  0.67218030  0.74255006  1
  H+  H346  1  0.08827759  0.86640954  0.35728513  1
  H+  H347  1  0.41938164  0.08015868  0.27280698  1
  H+  H348  1  0.59966670  0.66902408  0.43584913  1
  H+  H349  1  0.14393873  0.36957382  0.84157302  1
  H+  H350  1  0.08436796  0.16591868  0.40113719  1
  H+  H351  1  0.41092458  0.82968927  0.60395896  1
  H+  H352  1  0.60029000  0.71472114  0.33725476  1
  H+  H353  1  0.15859554  0.56446994  0.93700176  1
  H+  H354  1  0.09040528  0.42656912  0.73678409  1
  H+  H355  1  0.41510390  0.83414566  0.26149942  1
  H+  H356  1  0.66441788  0.57564457  0.23611347  1
  H+  H357  1  0.36856228  0.60333087  0.31576074  1
  H+  H358  1  0.58423116  0.41417312  0.09781714  1
  H+  H359  1  0.38226523  0.25182485  0.50788389  1
  H+  H360  1  0.18433028  0.90544593  0.29478029  1
  H+  H361  1  0.16442740  0.58987959  0.60414286  1
  H+  H362  1  0.68309226  0.34173484  0.56251790  1
  H+  H363  1  0.58297483  0.65982665  0.07189459  1
  H+  H364  1  0.91505263  0.58597169  0.57772122  1
  H+  H365  1  0.91589611  0.05936525  0.58649834  1
  H+  H366  1  0.91784773  0.33767233  0.23689115  1
  H+  H367  1  0.57807311  0.90820169  0.39825101  1
  H+  H368  1  0.20572144  0.96820948  0.05860100  1
  H+  H369  1  0.32023050  0.39462257  0.38802175  1
  H+  H370  1  0.82696081  0.92105800  0.38427766  1
  H+  H371  1  0.86119045  0.15986308  0.70538979  1
  H+  H372  1  0.37099254  0.88300777  1.00432282  1
  H+  H373  1  0.05729376  0.89156671  0.41767103  1
  H+  H374  1  0.58159860  0.41117117  0.39943300  1
  H+  H375  1  0.83825747  0.66533247  0.43957681  1
  H+  H376  1  0.20453427  0.60096190  0.22886386  1
  H+  H377  1  0.25797291  0.66792362  0.39317464  1
  H+  H378  1  0.16170386  0.08280819  0.93981587  1
  H+  H379  1  0.61429419  0.85330174  0.85379814  1
  H+  H380  1  0.85164338  0.88027469  0.01053236  1
  H+  H381  1  0.59861296  0.71630717  0.83898114  1
  H+  H382  1  0.32790853  0.16282924  0.06726890  1
  H+  H383  1  0.67369052  0.59256942  0.93284539  1
  O2-  O384  1  0.07583924  0.15785664  0.15723034  1
  O2-  O385  1  0.08250669  0.15409225  0.48353065  1
  O2-  O386  1  0.07402671  0.14214739  0.79764208  1
  O2-  O387  1  0.08482705  0.41613722  0.15026464  1
  O2-  O388  1  0.10461187  0.39655703  0.42920238  1
  O2-  O389  1  0.08912601  0.42164235  0.81124574  1
  O2-  O390  1  0.08683037  0.65814148  0.14688160  1
  O2-  O391  1  0.01029688  0.57501108  0.45627986  1
  O2-  O392  1  0.08483765  0.66198222  0.81175616  1
  O2-  O393  1  0.07849640  0.90328015  0.15908104  1
  O2-  O394  1  0.07383765  0.90342469  0.49676321  1
  O2-  O395  1  0.11405426  0.94162936  0.81412928  1
  O2-  O396  1  0.32519038  0.16165813  0.14019686  1
  O2-  O397  1  0.32996096  0.15605976  0.48074844  1
  O2-  O398  1  0.32834933  0.17102037  0.81821802  1
  O2-  O399  1  0.32155008  0.40054363  0.14209485  1
  O2-  O400  1  0.31078128  0.37112213  0.46763730  1
  O2-  O401  1  0.33352934  0.41298739  0.81955294  1
  O2-  O402  1  0.32832076  0.68039283  0.12159649  1
  O2-  O403  1  0.26750408  0.70599060  0.46155000  1
  O2-  O404  1  0.33625331  0.64889093  0.81157430  1
  O2-  O405  1  0.32710788  0.90120980  0.13935525  1
  O2-  O406  1  0.34130052  0.92388744  0.48614566  1
  O2-  O407  1  0.33308819  0.92686617  0.81453787  1
  O2-  O408  1  0.59014363  0.17839344  0.14887895  1
  O2-  O409  1  0.58515899  0.16988826  0.48326180  1
  O2-  O410  1  0.56551982  0.15767530  0.81098550  1
  O2-  O411  1  0.57938645  0.41193849  0.14218540  1
  O2-  O412  1  0.58378483  0.40430197  0.47900600  1
  O2-  O413  1  0.58429773  0.41777210  0.81817561  1
  O2-  O414  1  0.60339262  0.66915987  0.15198485  1
  O2-  O415  1  0.61848243  0.68053933  0.47886762  1
  O2-  O416  1  0.57675455  0.65778423  0.82125261  1
  O2-  O417  1  0.58244914  0.91618017  0.14934417  1
  O2-  O418  1  0.57554192  0.90570110  0.47883144  1
  O2-  O419  1  0.57687837  0.90572201  0.83302147  1
  O2-  O420  1  0.82770752  0.17923796  0.14684048  1
  O2-  O421  1  0.83011181  0.15819095  0.47686926  1
  O2-  O422  1  0.85182487  0.17551353  0.78634212  1
  O2-  O423  1  0.83250249  0.41661285  0.14782487  1
  O2-  O424  1  0.87258425  0.41478544  0.46614594  1
  O2-  O425  1  0.84072366  0.43446000  0.80404483  1
  O2-  O426  1  0.85741632  0.65878687  0.12788280  1
  O2-  O427  1  0.83792275  0.66392213  0.48517132  1
  O2-  O428  1  0.83317041  0.67565227  0.80155356  1
  O2-  O429  1  0.83942426  0.93598142  0.14930862  1
  O2-  O430  1  0.83446911  0.93124642  0.45731042  1
  O2-  O431  1  0.86957548  0.93186941  0.81445188  1
  O2-  O432  1  0.16651139  0.07923071  0.19253343  1
  O2-  O433  1  0.16667440  0.07316051  0.52048216  1
  O2-  O434  1  0.16988159  0.08997973  0.86027024  1
  O2-  O435  1  0.15773432  0.32456564  0.18801562  1
  O2-  O436  1  0.16447167  0.31439130  0.53888956  1
  O2-  O437  1  0.17489286  0.34024198  0.85622425  1
  O2-  O438  1  0.18294061  0.58793648  0.18707412  1
  O2-  O439  1  0.13258039  0.56979545  0.52885071  1
  O2-  O440  1  0.16496918  0.57905905  0.85282848  1
  O2-  O441  1  0.16232289  0.81746371  0.18583148  1
  O2-  O442  1  0.17396346  0.83579995  0.53056818  1
  O2-  O443  1  0.18066013  0.82777042  0.85494460  1
  O2-  O444  1  0.37035408  0.05051581  0.20302287  1
  O2-  O445  1  0.42314710  0.08845129  0.52595848  1
  O2-  O446  1  0.40045870  0.08285324  0.85751671  1
  O2-  O447  1  0.41261781  0.32829035  0.18258069  1
  O2-  O448  1  0.41192629  0.31320594  0.52376729  1
  O2-  O449  1  0.41823189  0.33322828  0.86375336  1
  O2-  O450  1  0.38153308  0.56537457  0.18031333  1
  O2-  O451  1  0.49930988  0.67627995  0.55350757  1
  O2-  O452  1  0.41254510  0.56841703  0.86656595  1
  O2-  O453  1  0.41377432  0.82934893  0.18396842  1
  O2-  O454  1  0.40920198  0.82965992  0.52462558  1
  O2-  O455  1  0.41666700  0.85504723  0.87245070  1
  O2-  O456  1  0.66354811  0.08330130  0.19337249  1
  O2-  O457  1  0.66184391  0.07547232  0.51630798  1
  O2-  O458  1  0.64424805  0.08072213  0.86504487  1
  O2-  O459  1  0.66274068  0.33696959  0.18507572  1
  O2-  O460  1  0.68484429  0.33786969  0.51781808  1
  O2-  O461  1  0.68351900  0.31486670  0.86237336  1
  O2-  O462  1  0.66510984  0.57849266  0.19078527  1
  O2-  O463  1  0.63754307  0.55094768  0.53875493  1
  O2-  O464  1  0.67345180  0.58913630  0.85464767  1
  O2-  O465  1  0.67303520  0.83534939  0.19088405  1
  O2-  O466  1  0.67874503  0.84268705  0.52281362  1
  O2-  O467  1  0.64547202  0.81898551  0.86514811  1
  O2-  O468  1  0.91346150  0.10562982  0.19217510  1
  O2-  O469  1  0.91598899  0.07822819  0.51129136  1
  O2-  O470  1  0.87702430  0.07079123  0.86963130  1
  O2-  O471  1  0.91988631  0.34164330  0.19138437  1
  O2-  O472  1  1.00144161  0.40253038  0.52874870  1
  O2-  O473  1  0.92437906  0.36441193  0.85835892  1
  O2-  O474  1  0.92532481  0.57905982  0.18533493  1
  O2-  O475  1  0.90276249  0.58386617  0.53007178  1
  O2-  O476  1  0.91323936  0.59569255  0.85009950  1
  O2-  O477  1  0.91862552  0.81248467  0.19886201  1
  O2-  O478  1  0.92484096  0.81492244  0.55233307  1
  O2-  O479  1  0.96587307  0.85903753  0.85686161  1
  O2-  O480  1  0.18444344  0.09616184  0.31938297  1
  O2-  O481  1  0.16104699  0.07345714  0.64528333  1
  O2-  O482  1  0.16499678  0.08193523  0.98498784  1
  O2-  O483  1  0.15883646  0.32566057  0.30963129  1
  O2-  O484  1  0.18743356  0.35240723  0.65723491  1
  O2-  O485  1  0.15490118  0.32337252  0.98451939  1
  O2-  O486  1  0.23098394  0.63592521  0.35367952  1
  O2-  O487  1  0.17505738  0.59316633  0.64899569  1
  O2-  O488  1  0.15629561  0.55934340  0.98166507  1
  O2-  O489  1  0.17258982  0.85136411  0.31335312  1
  O2-  O490  1  0.17061970  0.83352291  0.65118629  1
  O2-  O491  1  0.17251293  0.82117869  0.97837837  1
  O2-  O492  1  0.43855063  0.09685502  0.31562715  1
  O2-  O493  1  0.40193323  0.08040467  0.65274789  1
  O2-  O494  1  0.41702601  0.08174743  0.98114654  1
  O2-  O495  1  0.42072605  0.32895329  0.30590073  1
  O2-  O496  1  0.42938899  0.31691668  0.64193320  1
  O2-  O497  1  0.40318039  0.32529823  0.98927783  1
  O2-  O498  1  0.40077649  0.57419891  0.30357791  1
  O2-  O499  1  0.43258365  0.59361395  0.66039066  1
  O2-  O500  1  0.42080330  0.57165979  0.98361844  1
  O2-  O501  1  0.41081564  0.82684462  0.30686681  1
  O2-  O502  1  0.41368611  0.83149489  0.64949896  1
  O2-  O503  1  0.43021747  0.84098847  0.98479731  1
  O2-  O504  1  0.66553861  0.07827044  0.31804204  1
  O2-  O505  1  0.69187500  0.08152301  0.64001789  1
  O2-  O506  1  0.65986908  0.07671313  0.98986619  1
  O2-  O507  1  0.66395288  0.33660973  0.30981354  1
  O2-  O508  1  0.67193576  0.34250200  0.64852136  1
  O2-  O509  1  0.67556961  0.33165207  0.98025509  1
  O2-  O510  1  0.66174979  0.57999090  0.31598484  1
  O2-  O511  1  0.68125144  0.58980762  0.66646540  1
  O2-  O512  1  0.67370010  0.58923076  0.97853020  1
  O2-  O513  1  0.66171741  0.82771504  0.31305772  1
  O2-  O514  1  0.68420474  0.83461332  0.64844789  1
  O2-  O515  1  0.66379510  0.82504668  0.98912779  1
  O2-  O516  1  0.91346850  0.09979866  0.31993656  1
  O2-  O517  1  0.92275806  0.06471802  0.63188828  1
  O2-  O518  1  0.92128630  0.08245763  0.99480288  1
  O2-  O519  1  0.91568306  0.33269610  0.31542960  1
  O2-  O520  1  0.93589802  0.33921576  0.64007338  1
  O2-  O521  1  0.91882738  0.34150615  0.98636266  1
  O2-  O522  1  0.92093218  0.59578077  0.30650559  1
  O2-  O523  1  0.92427913  0.58099416  0.64099537  1
  O2-  O524  1  0.90245316  0.57937693  0.96651433  1
  O2-  O525  1  0.90314304  0.82768664  0.32134563  1
  O2-  O526  1  0.92298004  0.81741820  0.67741009  1
  O2-  O527  1  0.87124999  0.81068575  0.96469958  1
  O2-  O528  1  0.08774439  0.16410094  0.03391695  1
  O2-  O529  1  0.08082540  0.16400921  0.35623400  1
  O2-  O530  1  0.08731635  0.17504524  0.65255749  1
  O2-  O531  1  0.07527064  0.40688496  0.02499986  1
  O2-  O532  1  0.08175559  0.39964191  0.36474428  1
  O2-  O533  1  0.09217901  0.42774022  0.69078997  1
  O2-  O534  1  0.08754448  0.65109723  0.02020897  1
  O2-  O535  1  0.09186243  0.66798022  0.35079974  1
  O2-  O536  1  0.08393095  0.66577515  0.68882662  1
  O2-  O537  1  0.14659070  0.94279301  0.04437244  1
  O2-  O538  1  0.04887853  0.88501840  0.37294020  1
  O2-  O539  1  0.09113763  0.91852519  0.69887759  1
  O2-  O540  1  0.33088012  0.16512972  0.02095857  1
  O2-  O541  1  0.34199501  0.16890552  0.36222438  1
  O2-  O542  1  0.31669142  0.15971887  0.69662412  1
  O2-  O543  1  0.32893844  0.41913539  0.02234086  1
  O2-  O544  1  0.32490348  0.40253676  0.34321089  1
  O2-  O545  1  0.34850652  0.42211676  0.69864750  1
  O2-  O546  1  0.38384514  0.74585986  -0.01224325  1
  O2-  O547  1  0.30171044  0.65715871  0.31090666  1
  O2-  O548  1  0.33924382  0.66852995  0.69168717  1
  O2-  O549  1  0.33625850  0.91092534  0.01654972  1
  O2-  O550  1  0.31507699  0.89115806  0.36230898  1
  O2-  O551  1  0.33446816  0.91760263  0.69192651  1
  O2-  O552  1  0.58413963  0.17145647  0.02066203  1
  O2-  O553  1  0.59508881  0.17276031  0.35348735  1
  O2-  O554  1  0.56074126  0.17066358  0.68696309  1
  O2-  O555  1  0.59391480  0.42275232  0.00505807  1
  O2-  O556  1  0.58096879  0.41467549  0.35408653  1
  O2-  O557  1  0.59381666  0.42924357  0.69677874  1
  O2-  O558  1  0.57843838  0.65913262  0.02658343  1
  O2-  O559  1  0.56801032  0.65457469  0.35185352  1
  O2-  O560  1  0.59761750  0.67382561  0.69737262  1
  O2-  O561  1  0.58595601  0.90791885  0.02663020  1
  O2-  O562  1  0.58058508  0.90918167  0.35282663  1
  O2-  O563  1  0.58080099  0.90630219  0.67613917  1
  O2-  O564  1  0.83073842  0.17076531  0.01889713  1
  O2-  O565  1  0.82799454  0.17010736  0.36100585  1
  O2-  O566  1  0.85947976  0.16247426  0.66070023  1
  O2-  O567  1  0.84188837  0.43017893  0.01882861  1
  O2-  O568  1  0.83921693  0.43398428  0.32393185  1
  O2-  O569  1  0.83939471  0.41213588  0.68427774  1
  O2-  O570  1  0.84132827  0.66385520  0.01492560  1
  O2-  O571  1  0.82935576  0.65955429  0.36189776  1
  O2-  O572  1  0.82963132  0.66146936  0.73531040  1
  O2-  O573  1  0.82789338  0.91494872  0.02853241  1
  O2-  O574  1  0.81988159  0.90217102  0.34021343  1
  O2-  O575  1  0.84471701  0.91353178  0.68895136  1
