# generated using pymatgen
data_H2O
_symmetry_space_group_name_H-M   'P 1'
_cell_length_a   17.98930376
_cell_length_b   17.98314665
_cell_length_c   22.00268915
_cell_angle_alpha   90.00574270
_cell_angle_beta   90.01485484
_cell_angle_gamma   120.00062632
_symmetry_Int_Tables_number   1
_chemical_formula_structural   H2O
_chemical_formula_sum   'H384 O192'
_cell_volume   6164.29855959
_cell_formula_units_Z   192
loop_
 _symmetry_equiv_pos_site_id
 _symmetry_equiv_pos_as_xyz
  1  'x, y, z'
loop_
 _atom_type_symbol
 _atom_type_oxidation_number
  H+  1.0
  O2-  -2.0
loop_
 _atom_site_type_symbol
 _atom_site_label
 _atom_site_symmetry_multiplicity
 _atom_site_fract_x
 _atom_site_fract_y
 _atom_site_fract_z
 _atom_site_occupancy
  H+  H0  1  0.27038396  0.88202021  0.84042635  1
  H+  H1  1  0.33618864  0.17026001  0.43626257  1
  H+  H2  1  0.15348835  0.63070498  0.14696980  1
  H+  H3  1  0.38194395  0.11148990  0.66090793  1
  H+  H4  1  0.72332112  0.37013926  0.66448729  1
  H+  H5  1  0.35339038  0.96447300  0.66472736  1
  H+  H6  1  0.86485205  0.59442263  0.83560525  1
  H+  H7  1  0.11468309  0.86374426  0.65954208  1
  H+  H8  1  0.11445349  0.39637676  0.15136877  1
  H+  H9  1  0.36471019  0.23113490  0.34307298  1
  H+  H10  1  0.47308316  0.61247268  0.66628493  1
  H+  H11  1  0.89565323  0.36379225  0.66930963  1
  H+  H12  1  1.03280385  0.39506860  0.68016170  1
  H+  H13  1  0.76190204  0.63692429  0.67342392  1
  H+  H14  1  0.83923116  0.41397085  0.62532668  1
  H+  H15  1  0.97588107  0.35141118  0.83943392  1
  H+  H16  1  0.36762969  0.87842360  0.83966180  1
  H+  H17  1  0.62879851  0.52351811  0.66398384  1
  H+  H18  1  0.37890284  0.73633720  0.33918293  1
  H+  H19  1  0.61136771  -0.03024810  0.49984074  1
  H+  H20  1  0.13743746  0.02478795  0.51824695  1
  H+  H21  1  0.22796270  0.10852095  0.34116170  1
  H+  H22  1  0.33797458  0.72182040  -0.00155258  1
  H+  H23  1  0.99796781  0.61829173  0.32802229  1
  H+  H24  1  0.10879121  0.37699195  0.83189804  1
  H+  H25  1  0.85339447  0.22178358  0.82851369  1
  H+  H26  1  0.82214570  0.15131704  0.43173405  1
  H+  H27  1  0.86992483  0.76647596  0.67048493  1
  H+  H28  1  0.64984329  0.78506305  0.16160568  1
  H+  H29  1  0.58452976  0.16631300  0.59986554  1
  H+  H30  1  0.39798216  0.35057489  0.51798479  1
  H+  H31  1  0.11690272  0.56943481  0.94241531  1
  H+  H32  1  0.86458423  0.39061939  0.15818308  1
  H+  H33  1  0.41270090  0.58663070  0.60665662  1
  H+  H34  1  0.63914794  0.02099979  0.31194995  1
  H+  H35  1  0.76103013  0.62491899  0.82497148  1
  H+  H36  1  0.39311973  0.26647030  0.83361143  1
  H+  H37  1  0.36050152  0.47664976  0.68214733  1
  H+  H38  1  0.63112940  0.85425842  0.51620463  1
  H+  H39  1  0.75215413  0.42108144  0.52391413  1
  H+  H40  1  0.63741988  0.86216308  0.66821843  1
  H+  H41  1  0.33996090  0.67514295  0.77367858  1
  H+  H42  1  0.78738855  0.91912898  0.82576261  1
  H+  H43  1  0.61866963  0.37836092  0.82749251  1
  H+  H44  1  0.21173375  0.07891596  0.98119352  1
  H+  H45  1  0.54525808  0.64248448  -0.00126759  1
  H+  H46  1  0.49614038  0.36380168  0.66857664  1
  H+  H47  1  0.39049295  0.02602260  0.33143323  1
  H+  H48  1  0.35957954  0.87936589  0.66742515  1
  H+  H49  1  0.73602762  0.61870416  0.17587366  1
  H+  H50  1  0.39241074  0.25958374  0.50978578  1
  H+  H51  1  0.86365715  0.48726116  0.67431992  1
  H+  H52  1  0.65998397  0.56598997  0.89558154  1
  H+  H53  1  0.86989720  0.88685467  0.34196217  1
  H+  H54  1  0.27897358  0.13353829  0.82702642  1
  H+  H55  1  0.89603380  0.36050879  0.32656074  1
  H+  H56  1  0.13419647  0.27824556  0.67671348  1
  H+  H57  1  0.71140975  0.11730463  0.83510315  1
  H+  H58  1  0.19151527  0.61178705  0.99596801  1
  H+  H59  1  0.39660337  0.26712115  0.66759239  1
  H+  H60  1  0.35564066  0.88591720  0.49403457  1
  H+  H61  1  0.08558282  0.49471352  0.85578722  1
  H+  H62  1  0.07424302  0.42059670  0.09586042  1
  H+  H63  1  0.10997328  0.49487315  0.49238419  1
  H+  H64  1  0.39592156  0.12254125  0.18469725  1
  H+  H65  1  0.64298136  0.36768920  0.17825696  1
  H+  H66  1  0.92026305  0.63563652  0.32247012  1
  H+  H67  1  0.15298460  0.32012125  1.01404536  1
  H+  H68  1  0.92267809  0.33058623  0.26678134  1
  H+  H69  1  0.97752159  0.84071271  0.83644330  1
  H+  H70  1  1.04842712  0.14142503  0.83408297  1
  H+  H71  1  0.59006770  0.92689511  0.09970311  1
  H+  H72  1  0.78416302  0.38732974  0.33761261  1
  H+  H73  1  0.39665191  0.52516073  0.31932901  1
  H+  H74  1  0.47090937  0.10368312  0.50501160  1
  H+  H75  1  0.14442611  0.52802265  0.66254739  1
  H+  H76  1  0.67320826  0.35917419  0.60226500  1
  H+  H77  1  0.36416410  0.13374109  0.49370648  1
  H+  H78  1  0.64766872  0.11617132  0.65512270  1
  H+  H79  1  0.88929906  0.10831296  0.66473837  1
  H+  H80  1  0.13368170  0.23369881  0.83302400  1
  H+  H81  1  0.29322750  0.39946982  0.15504865  1
  H+  H82  1  -0.02447603  0.36727317  0.16963192  1
  H+  H83  1  0.38352555  0.38642499  0.97464878  1
  H+  H84  1  0.23606384  0.62062727  0.33209626  1
  H+  H85  1  0.61196922  0.73098645  0.34834775  1
  H+  H86  1  0.16836763  0.33348513  0.21626131  1
  H+  H87  1  0.77690891  0.13310833  0.33126180  1
  H+  H88  1  0.46286930  0.61034901  0.50620981  1
  H+  H89  1  0.76229894  0.63380848  0.50483028  1
  H+  H90  1  0.88746311  0.57237828  0.90016629  1
  H+  H91  1  0.46983550  0.86610621  0.51258235  1
  H+  H92  1  0.61897649  0.22744597  0.34599884  1
  H+  H93  1  0.14351895  0.85839616  0.83649567  1
  H+  H94  1  0.07760816  0.66104784  0.43447897  1
  H+  H95  1  0.53343288  0.39481090  0.17058038  1
  H+  H96  1  0.57243930  0.89817515  0.44642450  1
  H+  H97  1  0.67608176  0.59527913  0.23606017  1
  H+  H98  1  0.47441545  0.10705031  0.82984636  1
  H+  H99  1  0.36459402  0.63929836  0.67977824  1
  H+  H100  1  0.26513844  0.38747164  0.35522599  1
  H+  H101  1  0.53277832  0.14500926  0.16001669  1
  H+  H102  1  0.88130175  0.61599602  0.67957331  1
  H+  H103  1  0.73090301  0.36599774  0.17612646  1
  H+  H104  1  0.62541556  0.61075139  0.66653324  1
  H+  H105  1  0.60326305  0.11726522  0.49704428  1
  H+  H106  1  0.73953173  0.38678681  0.99799315  1
  H+  H107  1  0.11963636  0.97300714  0.34175471  1
  H+  H108  1  0.60685883  0.71735176  0.68783550  1
  H+  H109  1  0.78219516  0.14170776  0.15522753  1
  H+  H110  1  0.34993585  0.19640223  0.03240967  1
  H+  H111  1  0.07906458  0.63607173  0.00978718  1
  H+  H112  1  0.38075912  0.77849226  0.50777490  1
  H+  H113  1  0.12623728  0.39640277  0.35660464  1
  H+  H114  1  0.00366578  0.09579004  0.16131761  1
  H+  H115  1  0.11029485  0.26131831  0.52478663  1
  H+  H116  1  0.39205751  0.77333350  0.66461767  1
  H+  H117  1  0.36420764  0.53274097  0.50571562  1
  H+  H118  1  0.81893594  0.59851334  0.36710384  1
  H+  H119  1  0.85485902  0.71294944  0.82685923  1
  H+  H120  1  0.65018986  0.12483094  0.16712187  1
  H+  H121  1  0.89065432  0.77554280  0.16747282  1
  H+  H122  1  0.87205405  0.60105943  0.51215208  1
  H+  H123  1  0.87102112  0.88719655  0.68265412  1
  H+  H124  1  0.14719541  0.53100581  0.33348845  1
  H+  H125  1  0.17212271  0.29804490  0.36913902  1
  H+  H126  1  0.64472290  0.11450894  0.31889993  1
  H+  H127  1  0.60314870  0.98396793  0.82816966  1
  H+  H128  1  0.13953707  0.61380884  0.66133833  1
  H+  H129  1  0.10340887  0.95556451  0.00865091  1
  H+  H130  1  -0.01388615  0.36859096  -0.00885553  1
  H+  H131  1  0.03666078  0.14156200  0.34899493  1
  H+  H132  1  0.52812313  0.88807496  1.00579977  1
  H+  H133  1  0.37145139  0.89021928  0.33857444  1
  H+  H134  1  0.62062781  0.23534535  0.15986405  1
  H+  H135  1  0.27374278  0.88521963  0.00081946  1
  H+  H136  1  0.87347206  0.47406303  0.33618055  1
  H+  H137  1  0.88135611  0.01342457  0.50872934  1
  H+  H138  1  0.28057072  0.14951935  0.67666912  1
  H+  H139  1  0.22857531  0.11434684  0.51259838  1
  H+  H140  1  0.62298460  -0.01105310  0.15812878  1
  H+  H141  1  0.61754037  0.23945261  0.64841447  1
  H+  H142  1  0.35386142  0.97355001  0.49039173  1
  H+  H143  1  0.22730774  0.85149503  0.65223691  1
  H+  H144  1  0.11140414  0.13464650  0.50598991  1
  H+  H145  1  0.07002950  0.68009564  0.10021715  1
  H+  H146  1  0.15955027  0.73658102  0.82566751  1
  H+  H147  1  0.88695297  0.52363513  0.17568770  1
  H+  H148  1  0.38543903  0.77315995  0.84096945  1
  H+  H149  1  0.40739668  0.73669450  0.13714853  1
  H+  H150  1  0.77988737  0.87555505  -0.00412655  1
  H+  H151  1  0.57430665  0.64746168  0.74442007  1
  H+  H152  1  0.12325097  0.72357987  0.34502103  1
  H+  H153  1  0.49324597  0.61388964  0.16915854  1
  H+  H154  1  0.85686307  0.51901831  0.01059634  1
  H+  H155  1  0.89511834  0.11496257  0.32891363  1
  H+  H156  1  0.11684735  0.14387922  0.67625037  1
  H+  H157  1  -0.03445961  0.84869105  0.66760006  1
  H+  H158  1  0.10736935  0.89091954  0.50256080  1
  H+  H159  1  0.88905144  0.35754445  0.83949039  1
  H+  H160  1  0.60993230  0.22432972  0.80390723  1
  H+  H161  1  0.11147299  0.40770536  1.00115605  1
  H+  H162  1  0.78032614  0.14155350  1.00329164  1
  H+  H163  1  0.61478691  0.90224302  0.83104571  1
  H+  H164  1  0.12476472  0.97092426  0.17359953  1
  H+  H165  1  0.61706161  0.96457549  0.38007010  1
  H+  H166  1  0.86625990  0.22167313  0.33731856  1
  H+  H167  1  0.72169875  0.86285208  0.33633224  1
  H+  H168  1  0.53167371  0.38717131  0.49401854  1
  H+  H169  1  0.85181099  0.12332716  0.49134528  1
  H+  H170  1  0.36748530  -0.02464583  0.83625136  1
  H+  H171  1  0.85530862  0.87903506  0.49852707  1
  H+  H172  1  0.83660542  0.12564543  0.82924586  1
  H+  H173  1  0.15096625  0.36277684  0.52069326  1
  H+  H174  1  0.66176268  0.81398938  0.83616054  1
  H+  H175  1  0.62346098  0.48430922  0.17058714  1
  H+  H176  1  0.78256855  0.13696612  0.66962970  1
  H+  H177  1  0.88844001  0.27696222  0.16791259  1
  H+  H178  1  0.63287701  0.63980506  -0.00324574  1
  H+  H179  1  0.03383650  0.38663235  0.33805158  1
  H+  H180  1  0.88785263  0.11070026  0.99306980  1
  H+  H181  1  0.27655271  0.64083057  0.67887812  1
  H+  H182  1  0.12924108  0.87951019  0.33344916  1
  H+  H183  1  0.86052854  0.47090682  0.82680827  1
  H+  H184  1  0.26831198  0.96501513  0.12524747  1
  H+  H185  1  0.63585726  0.86981954  0.33459464  1
  H+  H186  1  0.11351299  0.18770276  0.01931784  1
  H+  H187  1  0.64158243  0.52071190  -0.00273624  1
  H+  H188  1  0.27505271  0.65128151  0.49202869  1
  H+  H189  1  0.41487267  0.31637301  -0.02124321  1
  H+  H190  1  0.97704067  0.40986433  0.50761601  1
  H+  H191  1  0.35351027  0.48334270  0.83384446  1
  H+  H192  1  0.89306266  0.76749161  0.32494069  1
  H+  H193  1  0.23754438  0.86874491  0.33020776  1
  H+  H194  1  0.36886405  0.64902252  0.83462729  1
  H+  H195  1  0.15014563  0.28597184  0.15479094  1
  H+  H196  1  0.68080383  0.29949890  0.88244930  1
  H+  H197  1  0.41330227  0.12265682  -0.01291183  1
  H+  H198  1  0.41765054  0.83115052  0.60365429  1
  H+  H199  1  0.61103672  0.48375257  0.49470537  1
  H+  H200  1  0.23108158  0.37142178  0.84201122  1
  H+  H201  1  0.27291538  0.38935237  0.68400131  1
  H+  H202  1  0.39561505  0.85488836  0.17195055  1
  H+  H203  1  0.10010003  0.58927265  0.84949792  1
  H+  H204  1  0.64632463  0.87183691  0.16533635  1
  H+  H205  1  0.43275804  0.63904720  1.04623591  1
  H+  H206  1  0.12875587  0.76294852  0.17805130  1
  H+  H207  1  0.89059390  0.26716270  0.99195865  1
  H+  H208  1  0.99784232  0.65246655  1.00970185  1
  H+  H209  1  0.87223172  0.14297074  0.15779080  1
  H+  H210  1  0.36514470  -0.02524688  0.99979159  1
  H+  H211  1  0.73859602  0.35347074  0.82676665  1
  H+  H212  1  0.14952022  0.11104708  0.83102070  1
  H+  H213  1  0.33519028  0.91547644  0.39770005  1
  H+  H214  1  0.49063808  0.35880111  0.83335952  1
  H+  H215  1  0.61763552  0.58714713  0.83477714  1
  H+  H216  1  0.48347625  0.60839670  0.84055347  1
  H+  H217  1  0.39490680  0.61531844  0.32033878  1
  H+  H218  1  0.86803828  0.63675965  0.16032825  1
  H+  H219  1  0.86896308  -0.04027421  0.99433016  1
  H+  H220  1  0.62129058  0.11368556  0.83139690  1
  H+  H221  1  0.13120459  0.77018916  0.99252097  1
  H+  H222  1  0.15445649  0.54564878  0.14875936  1
  H+  H223  1  0.49365121  0.11160715  0.98973911  1
  H+  H224  1  0.37257478  0.50130811  0.01253582  1
  H+  H225  1  0.39252229  0.28149060  0.18396890  1
  H+  H226  1  0.42320196  0.33816348  0.27509948  1
  H+  H227  1  0.63339422  0.62091244  0.33120261  1
  H+  H228  1  0.40000380  0.64607097  0.14289921  1
  H+  H229  1  0.26946769  0.13473458  0.19117812  1
  H+  H230  1  0.87956574  1.00603186  0.81944889  1
  H+  H231  1  0.01819076  0.12685685  0.50119044  1
  H+  H232  1  0.21749017  0.85958554  0.49963048  1
  H+  H233  1  0.28197751  0.38538477  0.49446785  1
  H+  H234  1  0.12081844  0.39369275  0.68400858  1
  H+  H235  1  0.41482089  0.34320421  0.88825730  1
  H+  H236  1  0.11289536  0.71900438  0.66976972  1
  H+  H237  1  0.46986685  0.11192672  0.65181262  1
  H+  H238  1  0.13917781  0.62697911  0.50962296  1
  H+  H239  1  0.47431176  0.86699695  0.84072728  1
  H+  H240  1  0.38984838  0.86345129  0.99618538  1
  H+  H241  1  0.88595752  0.02769427  0.17831984  1
  H+  H242  1  0.76686678  0.87946217  0.49614822  1
  H+  H243  1  0.34776050  0.43023471  0.06380349  1
  H+  H244  1  0.39852560  0.37267946  0.17490250  1
  H+  H245  1  0.22021861  0.85211335  0.17841444  1
  H+  H246  1  0.52638164  0.39157665  0.34092579  1
  H+  H247  1  0.72477573  0.85995115  0.66931550  1
  H+  H248  1  0.08534204  0.92350163  0.62912908  1
  H+  H249  1  0.15339599  0.04086301  0.66700708  1
  H+  H250  1  -0.02808482  0.10025873  -0.00594674  1
  H+  H251  1  0.62260856  0.23333374  0.00617361  1
  H+  H252  1  0.12726714  0.08731941  0.18887989  1
  H+  H253  1  0.64117512  0.86499535  0.99244852  1
  H+  H254  1  0.75834156  0.63273355  0.34592023  1
  H+  H255  1  0.38457319  0.48681832  0.15798613  1
  H+  H256  1  0.97386195  0.83939764  0.99744285  1
  H+  H257  1  0.87864632  0.76798882  0.51576498  1
  H+  H258  1  0.72318931  0.09935196  0.50198815  1
  H+  H259  1  0.63350447  0.53058496  0.32847424  1
  H+  H260  1  0.64515489  0.77707407  0.98514102  1
  H+  H261  1  0.88554249  0.83882435  -0.01153464  1
  H+  H262  1  0.12639144  0.63429284  0.34401037  1
  H+  H263  1  0.43191890  0.84232123  0.27217383  1
  H+  H264  1  0.49477285  0.88191164  0.32962071  1
  H+  H265  1  0.87527662  0.98446195  0.67621029  1
  H+  H266  1  0.62765485  0.64300402  0.15721753  1
  H+  H267  1  0.13684548  0.10657941  0.34562103  1
  H+  H268  1  0.62511573  0.61244575  0.50935003  1
  H+  H269  1  0.39305309  0.37386167  0.33160717  1
  H+  H270  1  0.39191542  0.03458004  0.17275529  1
  H+  H271  1  0.49122684  0.87226604  0.17237494  1
  H+  H272  1  0.60168937  0.71913492  0.49733898  1
  H+  H273  1  0.01474881  0.63074234  0.49277619  1
  H+  H274  1  -0.02057668  0.10940604  0.66629829  1
  H+  H275  1  0.13861875  0.86016688  0.99522139  1
  H+  H276  1  0.61013851  0.68578930  0.83174249  1
  H+  H277  1  0.95826321  0.17056657  0.85179054  1
  H+  H278  1  -0.02829605  0.61462325  0.68303269  1
  H+  H279  1  0.64187401  0.36674710  0.33002041  1
  H+  H280  1  0.09205288  0.48757408  0.00636301  1
  H+  H281  1  0.89791391  0.27695955  0.66121739  1
  H+  H282  1  0.61543666  0.38857359  0.67687895  1
  H+  H283  1  0.53061319  0.13921175  0.34460110  1
  H+  H284  1  0.24333894  0.39918781  -0.00106552  1
  H+  H285  1  1.01763455  0.64028811  0.16192685  1
  H+  H286  1  0.89920651  0.02816518  0.32895906  1
  H+  H287  1  0.36719441  0.14236632  0.34287013  1
  H+  H288  1  0.57044425  0.15910988  0.74781926  1
  H+  H289  1  0.43398841  0.32373151  0.60255493  1
  H+  H290  1  0.01165086  0.02036583  0.13302295  1
  H+  H291  1  0.36306569  0.64981221  0.49599043  1
  H+  H292  1  0.16481405  0.06426703  0.88678849  1
  H+  H293  1  0.44667754  0.24432006  0.05132241  1
  H+  H294  1  0.61724824  0.39315951  0.02133404  1
  H+  H295  1  0.09427553  0.28506255  0.28152195  1
  H+  H296  1  0.15291761  0.33096475  0.61588703  1
  H+  H297  1  0.91235945  0.07357471  0.56779571  1
  H+  H298  1  0.36856859  0.13357334  0.82832579  1
  H+  H299  1  0.68119615  0.85661537  0.90194774  1
  H+  H300  1  0.90393824  0.82777025  0.57452523  1
  H+  H301  1  0.65397190  0.58298547  0.57031759  1
  H+  H302  1  0.16819101  0.83185553  0.90182178  1
  H+  H303  1  0.12647426  0.77124408  0.50116489  1
  H+  H304  1  0.58196797  0.41277867  0.73854668  1
  H+  H305  1  0.81874186  0.66436962  0.73502141  1
  H+  H306  1  0.78055666  0.90167219  0.15771885  1
  H+  H307  1  0.66331239  0.82352360  0.57336983  1
  H+  H308  1  0.06014592  0.25133485  0.26128800  1
  H+  H309  1  0.08922752  0.90361003  0.75703686  1
  H+  H310  1  0.67820807  0.09349079  0.22714003  1
  H+  H311  1  0.42875970  0.08277103  0.89613198  1
  H+  H312  1  0.08076790  0.41150798  0.77273771  1
  H+  H313  1  0.43042276  0.58627996  0.22812953  1
  H+  H314  1  0.92321904  0.58565165  0.23432568  1
  H+  H315  1  0.17085487  0.33870180  0.90239164  1
  H+  H316  1  0.11955508  0.96757917  0.81312958  1
  H+  H317  1  0.98108652  0.86112373  0.17273796  1
  H+  H318  1  0.87141215  0.43544106  0.00691607  1
  H+  H319  1  0.58947523  0.42525770  0.39798998  1
  H+  H320  1  0.64511638  0.11984008  -0.00439391  1
  H+  H321  1  0.32090907  0.93036743  0.09133892  1
  H+  H322  1  0.92169993  0.82566283  0.26459295  1
  H+  H323  1  0.66948710  0.33314250  0.27212944  1
  H+  H324  1  0.08682751  0.16231042  0.41227389  1
  H+  H325  1  0.52461838  0.63930285  0.33929134  1
  H+  H326  1  0.58227562  0.91975604  0.73395084  1
  H+  H327  1  0.34589876  0.67648931  0.39737523  1
  H+  H328  1  0.92500374  0.37480213  0.56919263  1
  H+  H329  1  0.64264398  0.02467006  0.66422591  1
  H+  H330  1  0.40653682  0.07679550  0.56250534  1
  H+  H331  1  0.02873911  0.87570131  0.33175270  1
  H+  H332  1  0.83488381  0.43045174  0.10294400  1
  H+  H333  1  0.84479407  0.93326753  0.74776316  1
  H+  H334  1  0.87586460  0.70182706  0.99654322  1
  H+  H335  1  0.60073000  0.66929471  0.09495383  1
  H+  H336  1  0.82176275  0.66439709  0.44622185  1
  H+  H337  1  0.43085851  0.59675871  0.90250168  1
  H+  H338  1  0.61693065  0.97789911  0.00317107  1
  H+  H339  1  0.24437674  0.40802337  0.43809325  1
  H+  H340  1  0.17258302  0.83061911  0.27182916  1
  H+  H341  1  0.06644374  0.11348289  0.06880553  1
  H+  H342  1  0.84098234  0.17035355  0.06331047  1
  H+  H343  1  0.33992137  0.17179417  0.73698567  1
  H+  H344  1  0.92258662  0.81247305  0.89722329  1
  H+  H345  1  0.83698735  0.16701806  0.73018285  1
  H+  H346  1  0.07334952  0.43259383  0.43505467  1
  H+  H347  1  0.86785586  0.90015438  0.16311403  1
  H+  H348  1  0.83929816  0.91603347  0.40073447  1
  H+  H349  1  0.66680753  0.09019027  0.93349281  1
  H+  H350  1  0.10390189  0.67000429  0.73209456  1
  H+  H351  1  0.88864175  0.45572187  0.51324801  1
  H+  H352  1  0.84597524  0.41707448  0.76471182  1
  H+  H353  1  0.08641136  0.90705609  0.07325952  1
  H+  H354  1  0.08819899  0.16720297  0.73844784  1
  H+  H355  1  0.31438411  0.15979081  0.12858232  1
  H+  H356  1  0.17732594  0.09392191  0.60413656  1
  H+  H357  1  0.41828559  0.83395748  0.93660919  1
  H+  H358  1  0.73574147  0.59992283  0.98593034  1
  H+  H359  1  0.92858865  0.09869792  0.90428108  1
  H+  H360  1  0.01982527  0.89320050  0.50748751  1
  H+  H361  1  0.57345028  0.66266277  0.43598141  1
  H+  H362  1  0.16233291  0.07408954  0.25438725  1
  H+  H363  1  0.12541352  0.08218305  0.98629797  1
  H+  H364  1  0.61616056  0.46921246  0.83145359  1
  H+  H365  1  0.31234468  0.66089800  0.05442023  1
  H+  H366  1  0.11805315  0.87836976  0.17012006  1
  H+  H367  1  0.17373238  0.59674040  0.56689093  1
  H+  H368  1  0.91905703  0.32705392  0.92700732  1
  H+  H369  1  0.59123494  0.42869957  0.07791488  1
  H+  H370  1  0.65404754  0.39263506  0.51305927  1
  H+  H371  1  0.37164102  0.62250059  0.99464254  1
  H+  H372  1  0.67272029  0.37341530  0.94552486  1
  H+  H373  1  0.42383252  0.08654004  0.27324583  1
  H+  H374  1  0.37806282  0.44798507  0.38876954  1
  H+  H375  1  0.59173652  0.17501876  0.06630005  1
  H+  H376  1  0.57990995  0.15850861  0.44237410  1
  H+  H377  1  0.16447049  0.82071092  0.59278768  1
  H+  H378  1  0.83938443  0.65703656  0.09731898  1
  H+  H379  1  0.92636807  0.09265452  0.23637615  1
  H+  H380  1  0.52687401  0.88817332  0.67277084  1
  H+  H381  1  0.32606878  0.42324795  0.77450086  1
  H+  H382  1  0.21171596  0.69155919  0.80440579  1
  H+  H383  1  0.66979971  0.07281800  0.56503820  1
  O2-  O384  1  0.04695447  0.08252633  0.13900380  1
  O2-  O385  1  0.08004978  0.16247385  0.48891265  1
  O2-  O386  1  0.10651697  0.17264057  0.81640430  1
  O2-  O387  1  0.07768399  0.42063700  0.14093024  1
  O2-  O388  1  0.06920866  0.43494826  0.47999964  1
  O2-  O389  1  0.07168287  0.40075276  0.81808429  1
  O2-  O390  1  0.07697196  0.67748908  0.14521692  1
  O2-  O391  1  0.07552132  0.66608332  0.47984094  1
  O2-  O392  1  0.15424466  0.68465999  0.80517513  1
  O2-  O393  1  0.09487077  0.91443617  0.15233177  1
  O2-  O394  1  0.08147897  0.92812823  0.49700547  1
  O2-  O395  1  0.09225073  0.90578763  0.80166722  1
  O2-  O396  1  0.32840097  0.16696218  0.17167719  1
  O2-  O397  1  0.33640927  0.16877610  0.48201294  1
  O2-  O398  1  0.34116708  0.16715432  0.81407928  1
  O2-  O399  1  0.35309916  0.42560255  0.14060287  1
  O2-  O400  1  0.27496663  0.43167534  0.47803206  1
  O2-  O401  1  0.32016155  0.42277554  0.82028009  1
  O2-  O402  1  0.39808834  0.68641512  0.11290341  1
  O2-  O403  1  0.33628972  0.68175719  0.47755988  1
  O2-  O404  1  0.33996075  0.68034576  0.81901093  1
  O2-  O405  1  0.30732510  0.94322593  0.13338632  1
  O2-  O406  1  0.32434272  0.91307067  0.47486170  1
  O2-  O407  1  0.33442778  0.91137818  0.82667868  1
  O2-  O408  1  0.59121343  0.17575209  0.14171616  1
  O2-  O409  1  0.57134464  0.14764987  0.48699737  1
  O2-  O410  1  0.57129206  0.16267300  0.79218058  1
  O2-  O411  1  0.59383506  0.42358337  0.15528659  1
  O2-  O412  1  0.58954894  0.42483082  0.47708560  1
  O2-  O413  1  0.58515056  0.40575938  0.81499999  1
  O2-  O414  1  0.59527492  0.66977993  0.13976716  1
  O2-  O415  1  0.56944610  0.65889865  0.48182696  1
  O2-  O416  1  0.57197773  0.63040311  0.81342962  1
  O2-  O417  1  0.58897926  0.92749355  0.14489624  1
  O2-  O418  1  0.57629724  0.90531943  0.49059128  1
  O2-  O419  1  0.57667316  0.92269752  0.81442930  1
  O2-  O420  1  0.84259974  0.17150177  0.13845503  1
  O2-  O421  1  0.81611398  0.14726113  0.47672525  1
  O2-  O422  1  0.81630387  0.16231134  0.81122651  1
  O2-  O423  1  0.83393809  0.42274232  0.14789091  1
  O2-  O424  1  0.85713812  0.48836158  0.49830048  1
  O2-  O425  1  0.83924807  0.41041322  0.80894282  1
  O2-  O426  1  0.83897539  0.66661571  0.14167368  1
  O2-  O427  1  0.82396421  0.66230401  0.49123788  1
  O2-  O428  1  0.82054011  0.65388042  0.80801808  1
  O2-  O429  1  0.84504736  0.93728882  0.15041461  1
  O2-  O430  1  0.82740716  0.91054545  0.48121425  1
  O2-  O431  1  0.84515474  0.94595931  0.80547941  1
  O2-  O432  1  0.16821584  0.07281900  0.20865238  1
  O2-  O433  1  0.17125656  0.08727997  0.53258773  1
  O2-  O434  1  0.17460227  0.07386772  0.84234132  1
  O2-  O435  1  0.17856474  0.34334285  0.17251771  1
  O2-  O436  1  0.12079500  0.31328856  0.54772355  1
  O2-  O437  1  0.16763832  0.33152675  0.85787541  1
  O2-  O438  1  0.19153236  0.60697849  0.14013944  1
  O2-  O439  1  0.17494239  0.60119049  0.52158773  1
  O2-  O440  1  0.07876443  0.53937530  0.87727179  1
  O2-  O441  1  0.16308235  0.82309926  0.19779203  1
  O2-  O442  1  0.15832599  0.83147900  0.51726387  1
  O2-  O443  1  0.17716358  0.83407045  0.85627175  1
  O2-  O444  1  0.42799678  0.09164932  0.19192947  1
  O2-  O445  1  0.40808547  0.07778843  0.51724217  1
  O2-  O446  1  0.41771862  0.07668140  0.85103109  1
  O2-  O447  1  0.42778990  0.34321388  0.19363891  1
  O2-  O448  1  0.42746688  0.31969925  0.52953945  1
  O2-  O449  1  0.42571610  0.33056115  0.84283531  1
  O2-  O450  1  0.43166576  0.58168649  0.18236416  1
  O2-  O451  1  0.40456303  0.58905943  0.52423929  1
  O2-  O452  1  0.42413837  0.59409640  0.85847278  1
  O2-  O453  1  0.43095229  0.83222387  0.18747693  1
  O2-  O454  1  0.40883078  0.83807399  0.52609739  1
  O2-  O455  1  0.41382542  0.83612882  0.85669718  1
  O2-  O456  1  0.68102276  0.09478787  0.18069485  1
  O2-  O457  1  0.66219445  0.06761432  0.52025691  1
  O2-  O458  1  0.65201046  0.08775550  0.85220060  1
  O2-  O459  1  0.67028504  0.33340288  0.19118031  1
  O2-  O460  1  0.69265562  0.37798915  0.53617612  1
  O2-  O461  1  0.67657376  0.31760941  0.84127137  1
  O2-  O462  1  0.67553387  0.59020818  0.19075030  1
  O2-  O463  1  0.65695392  0.58348895  0.52476240  1
  O2-  O464  1  0.65578033  0.56055000  0.85043001  1
  O2-  O465  1  0.68218609  0.84578979  0.17435806  1
  O2-  O466  1  0.66228650  0.82355041  0.52808933  1
  O2-  O467  1  0.68771395  0.86991190  0.85592526  1
  O2-  O468  1  0.92389984  0.09147085  0.19060911  1
  O2-  O469  1  0.91343128  0.07469967  0.52283625  1
  O2-  O470  1  0.93471552  0.10901931  0.85797289  1
  O2-  O471  1  0.91472072  0.33661621  0.18424654  1
  O2-  O472  1  0.92131488  0.39610019  0.52880840  1
  O2-  O473  1  0.91406061  0.32267484  0.85603577  1
  O2-  O474  1  0.91732272  0.58532939  0.18912800  1
  O2-  O475  1  0.90639337  0.57399653  0.52567240  1
  O2-  O476  1  0.88719845  0.56014709  0.85641227  1
  O2-  O477  1  0.92095708  0.83307879  0.18754415  1
  O2-  O478  1  0.90735546  0.82934633  0.52947557  1
  O2-  O479  1  0.91841821  0.81159282  0.85211920  1
  O2-  O480  1  0.16547692  0.07380898  0.32934026  1
  O2-  O481  1  0.17988363  0.09933625  0.65077055  1
  O2-  O482  1  0.15283190  0.05153281  0.96642189  1
  O2-  O483  1  0.20059280  0.36104566  0.37064696  1
  O2-  O484  1  0.16488160  0.33807217  0.66133595  1
  O2-  O485  1  0.18008689  0.36884824  0.98653160  1
  O2-  O486  1  0.17429156  0.59231507  0.32084898  1
  O2-  O487  1  0.17446361  0.58810336  0.64649136  1
  O2-  O488  1  0.12807612  0.57905541  0.98814226  1
  O2-  O489  1  0.17449345  0.83796604  0.31747002  1
  O2-  O490  1  0.16442295  0.81869907  0.63854723  1
  O2-  O491  1  0.16871763  0.83103135  0.97720449  1
  O2-  O492  1  0.41986451  0.08754990  0.31824817  1
  O2-  O493  1  0.40763772  0.07879554  0.64281718  1
  O2-  O494  1  0.43332299  0.08348692  0.97303283  1
  O2-  O495  1  0.41988655  0.33512518  0.32011424  1
  O2-  O496  1  0.43360256  0.32728522  0.64870200  1
  O2-  O497  1  0.40477311  0.35325192  0.95122060  1
  O2-  O498  1  0.42665323  0.58759544  0.30373451  1
  O2-  O499  1  0.41234991  0.58595086  0.65181627  1
  O2-  O500  1  0.41836077  0.60993309  1.00617389  1
  O2-  O501  1  0.43086964  0.84647672  0.31705781  1
  O2-  O502  1  0.42403176  0.83386745  0.64900022  1
  O2-  O503  1  0.41873448  0.83170101  0.98186349  1
  O2-  O504  1  0.67431129  0.08674160  0.29919837  1
  O2-  O505  1  0.67819052  0.08418344  0.64719235  1
  O2-  O506  1  0.67442031  0.08971306  0.97823759  1
  O2-  O507  1  0.67027725  0.33372482  0.31742778  1
  O2-  O508  1  0.66313335  0.34324079  0.64851579  1
  O2-  O509  1  0.67956134  0.34519060  0.98118847  1
  O2-  O510  1  0.66616969  0.59236700  0.31530382  1
  O2-  O511  1  0.65714382  0.58282326  0.64782162  1
  O2-  O512  1  0.67437029  0.57735382  0.97526375  1
  O2-  O513  1  0.65895805  0.82890079  0.33252597  1
  O2-  O514  1  0.66507908  0.82833952  0.65486397  1
  O2-  O515  1  0.67169464  0.83831859  0.97161704  1
  O2-  O516  1  0.93032786  0.08901651  0.31444811  1
  O2-  O517  1  0.91808856  0.07499503  0.65193358  1
  O2-  O518  1  0.91567563  0.08015524  0.97396934  1
  O2-  O519  1  0.92577251  0.32881496  0.31179823  1
  O2-  O520  1  0.92949663  0.33946832  0.65176626  1
  O2-  O521  1  0.92129753  0.32852479  0.97399447  1
  O2-  O522  1  0.93709326  0.59358700  0.31126901  1
  O2-  O523  1  0.90804629  0.57942860  0.68245589  1
  O2-  O524  1  0.89439860  0.60188454  0.98712136  1
  O2-  O525  1  0.92835394  0.82694347  0.31022494  1
  O2-  O526  1  0.90498884  0.82987502  0.65727985  1
  O2-  O527  1  0.91670077  0.80686698  0.97790687  1
  O2-  O528  1  0.07461111  0.12619297  0.02330086  1
  O2-  O529  1  0.09513593  0.16513734  0.36698105  1
  O2-  O530  1  0.08019307  0.16566371  0.69347908  1
  O2-  O531  1  0.06754387  0.42211208  0.01573575  1
  O2-  O532  1  0.09084727  0.42478826  0.35718227  1
  O2-  O533  1  0.09170272  0.42648238  0.69809389  1
  O2-  O534  1  0.05988457  0.67716741  0.02289290  1
  O2-  O535  1  0.09089855  0.66300695  0.35816530  1
  O2-  O536  1  0.08384241  0.66080677  0.68925234  1
  O2-  O537  1  0.07995352  0.89862262  0.02829451  1
  O2-  O538  1  0.09065723  0.90761544  0.34709909  1
  O2-  O539  1  0.08342481  0.89788248  0.66870857  1
  O2-  O540  1  0.40783263  0.21720551  0.01697039  1
  O2-  O541  1  0.33425976  0.16982146  0.35830006  1
  O2-  O542  1  0.34162730  0.17551049  0.69141372  1
  O2-  O543  1  0.34219369  0.43740698  0.01886451  1
  O2-  O544  1  0.35847122  0.43177417  0.34697217  1
  O2-  O545  1  0.33252070  0.41837122  0.70012380  1
  O2-  O546  1  0.30007095  0.66062597  0.01020775  1
  O2-  O547  1  0.34776022  0.67484685  0.35215991  1
  O2-  O548  1  0.33652433  0.67192992  0.69538364  1
  O2-  O549  1  0.33356295  0.91642904  0.01816192  1
  O2-  O550  1  0.33690346  0.91775985  0.35206969  1
  O2-  O551  1  0.32216638  0.90379109  0.67768022  1
  O2-  O552  1  0.59230091  0.17287886  0.02029440  1
  O2-  O553  1  0.59056677  0.16638920  0.35987478  1
  O2-  O554  1  0.58717867  0.17423956  0.64410925  1
  O2-  O555  1  0.58760146  0.42464392  0.03248989  1
  O2-  O556  1  0.58885446  0.42532391  0.35258855  1
  O2-  O557  1  0.57949161  0.41393175  0.69290294  1
  O2-  O558  1  0.60554683  0.67370894  0.01147702  1
  O2-  O559  1  0.58238255  0.66716430  0.35966124  1
  O2-  O560  1  0.57512514  0.65534635  0.69746573  1
  O2-  O561  1  0.58942761  0.91821937  0.01917738  1
  O2-  O562  1  0.59487192  0.93489386  0.34165510  1
  O2-  O563  1  0.58762505  0.92005015  0.68883404  1
  O2-  O564  1  0.84195028  0.17200714  0.01702909  1
  O2-  O565  1  0.83528301  0.16013723  0.35046091  1
  O2-  O566  1  0.84310225  0.16653986  0.68540119  1
  O2-  O567  1  0.83216883  0.45173504  0.02512526  1
  O2-  O568  1  0.84580854  0.41342296  0.34820189  1
  O2-  O569  1  0.83324146  0.41980845  0.66904352  1
  O2-  O570  1  0.84475684  0.64115351  0.01278674  1
  O2-  O571  1  0.81794852  0.65230085  0.36432862  1
  O2-  O572  1  0.82222835  0.67011779  0.68903745  1
  O2-  O573  1  0.84153425  0.89851465  0.00451415  1
  O2-  O574  1  0.84384627  0.92087410  0.35555370  1
  O2-  O575  1  0.84384264  0.92363958  0.69628846  1
