# generated using pymatgen
data_H2O
_symmetry_space_group_name_H-M   'P 1'
_cell_length_a   17.99191562
_cell_length_b   17.99115421
_cell_length_c   22.00140761
_cell_angle_alpha   90.00075215
_cell_angle_beta   90.00279283
_cell_angle_gamma   119.98302498
_symmetry_Int_Tables_number   1
_chemical_formula_structural   H2O
_chemical_formula_sum   'H384 O192'
_cell_volume   6168.67359157
_cell_formula_units_Z   192
loop_
 _symmetry_equiv_pos_site_id
 _symmetry_equiv_pos_as_xyz
  1  'x, y, z'
loop_
 _atom_type_symbol
 _atom_type_oxidation_number
  H+  1.0
  O2-  -2.0
loop_
 _atom_site_type_symbol
 _atom_site_label
 _atom_site_symmetry_multiplicity
 _atom_site_fract_x
 _atom_site_fract_y
 _atom_site_fract_z
 _atom_site_occupancy
  H+  H0  1  0.35802686  0.96777414  0.83490526  1
  H+  H1  1  0.13487453  0.09306136  0.83386339  1
  H+  H2  1  0.86839242  0.73255697  0.33687448  1
  H+  H3  1  0.40050203  0.26279024  0.17309129  1
  H+  H4  1  0.02590582  0.62995017  0.00757427  1
  H+  H5  1  0.37865289  0.86159116  0.17305742  1
  H+  H6  1  0.62843394  0.11018334  0.99444074  1
  H+  H7  1  0.66642067  0.52967536  0.82286522  1
  H+  H8  1  0.30441740  0.64097464  0.74186980  1
  H+  H9  1  0.63973985  0.72501369  0.17302423  1
  H+  H10  1  0.85737257  -0.00887603  0.82794370  1
  H+  H11  1  0.88463420  0.28400616  0.51098653  1
  H+  H12  1  0.34182116  0.73122805  0.87962252  1
  H+  H13  1  0.87456005  0.79518981  0.65611437  1
  H+  H14  1  0.10998478  0.63598375  0.66994322  1
  H+  H15  1  0.85376204  0.12839182  0.17298408  1
  H+  H16  1  0.87826027  0.63880882  0.15768293  1
  H+  H17  1  0.77310983  0.64587416  0.49020596  1
  H+  H18  1  0.85732434  0.37887260  0.00907310  1
  H+  H19  1  0.38249848  0.86174772  0.66150233  1
  H+  H20  1  0.63571965  0.27606419  0.51365265  1
  H+  H21  1  0.46652111  0.10993229  0.32363757  1
  H+  H22  1  0.13385632  0.36535871  1.00410563  1
  H+  H23  1  0.31732541  0.23601092  0.85501402  1
  H+  H24  1  0.34984830  0.11629926  0.01428785  1
  H+  H25  1  0.62035379  0.77578444  0.02204895  1
  H+  H26  1  0.80049164  0.62689148  0.82396619  1
  H+  H27  1  0.61304579  0.39331259  0.49908719  1
  H+  H28  1  0.39708280  0.51748788  0.18126179  1
  H+  H29  1  0.51343408  0.63864199  0.48909105  1
  H+  H30  1  0.36441939  0.63252603  0.34118390  1
  H+  H31  1  0.63184373  0.60830184  -0.00502656  1
  H+  H32  1  0.78566523  0.62707483  0.16217858  1
  H+  H33  1  0.56440055  0.62924665  0.18286779  1
  H+  H34  1  0.10804364  0.13504802  0.16517269  1
  H+  H35  1  0.11384901  0.88806899  0.33360339  1
  H+  H36  1  0.64224321  0.52731031  0.33296974  1
  H+  H37  1  0.26527727  0.88146398  0.83008834  1
  H+  H38  1  0.22238774  0.85966112  0.16802810  1
  H+  H39  1  0.31291221  0.32150052  0.85554911  1
  H+  H40  1  0.13370891  0.86019564  0.17050481  1
  H+  H41  1  0.86395557  0.90151645  0.47961010  1
  H+  H42  1  0.87111192  0.37316318  0.82727725  1
  H+  H43  1  0.07803249  0.42530005  0.72535140  1
  H+  H44  1  0.79192265  0.39015917  0.83026223  1
  H+  H45  1  0.91407820  0.59534396  0.83887581  1
  H+  H46  1  0.86707616  0.25874056  0.00044855  1
  H+  H47  1  0.27875695  0.48377669  0.13659004  1
  H+  H48  1  0.09728315  0.96981394  0.66628487  1
  H+  H49  1  0.00676087  0.90388966  0.48205897  1
  H+  H50  1  0.03282380  0.63742941  0.34463598  1
  H+  H51  1  0.16160003  0.29870616  0.86382296  1
  H+  H52  1  0.92146544  0.58157156  0.40308457  1
  H+  H53  1  0.35628875  0.71699443  -0.02240274  1
  H+  H54  1  1.01860926  0.38050801  1.00506786  1
  H+  H55  1  0.08973530  0.66527955  0.09779953  1
  H+  H56  1  0.90883286  0.50650807  0.84648359  1
  H+  H57  1  0.52554663  0.13902580  0.50010355  1
  H+  H58  1  0.10245714  0.39564252  0.66371129  1
  H+  H59  1  0.88257026  0.92749854  0.67225612  1
  H+  H60  1  0.65448143  0.36017790  0.26484448  1
  H+  H61  1  0.40904468  0.26096937  0.64983190  1
  H+  H62  1  0.52275342  0.39101309  0.49471732  1
  H+  H63  1  0.39205107  0.61930214  -0.01071933  1
  H+  H64  1  0.60635836  0.87929688  0.01805669  1
  H+  H65  1  0.08972923  0.23516938  0.48459474  1
  H+  H66  1  0.52788811  0.89750787  0.48821701  1
  H+  H67  1  0.34979514  0.12862680  0.16423736  1
  H+  H68  1  0.72364069  0.37023352  0.31716392  1
  H+  H69  1  0.61454700  0.64378574  0.48692698  1
  H+  H70  1  0.84377417  0.77169541  0.83116339  1
  H+  H71  1  0.88278955  0.78381982  0.50091058  1
  H+  H72  1  0.11918009  0.26514240  0.17359424  1
  H+  H73  1  -0.02477290  0.85784755  0.16943174  1
  H+  H74  1  1.00860024  0.87676008  1.00609273  1
  H+  H75  1  0.88804627  0.60404824  0.99534696  1
  H+  H76  1  0.38734802  0.77568996  0.65372013  1
  H+  H77  1  0.57739747  0.02656393  0.83035240  1
  H+  H78  1  0.58640926  0.93413815  0.75962507  1
  H+  H79  1  0.48609230  0.66970063  0.63345250  1
  H+  H80  1  0.09812437  0.47315610  0.16775410  1
  H+  H81  1  0.04687775  0.60912579  0.83096526  1
  H+  H82  1  0.59165950  0.11839657  0.15756799  1
  H+  H83  1  0.22401661  0.09402341  0.84125442  1
  H+  H84  1  0.63481413  0.40975388  0.65305438  1
  H+  H85  1  0.13420816  0.36635017  0.50250193  1
  H+  H86  1  0.12853941  0.76316253  0.99502596  1
  H+  H87  1  0.44514349  0.61771116  0.18888377  1
  H+  H88  1  0.66374467  0.59596205  0.55532598  1
  H+  H89  1  0.68868772  0.34518726  0.16115180  1
  H+  H90  1  0.14497768  0.13922651  0.49268441  1
  H+  H91  1  0.64505866  0.11402985  0.50305365  1
  H+  H92  1  0.72736382  0.37132280  0.99353006  1
  H+  H93  1  0.01365368  0.38007093  0.33051313  1
  H+  H94  1  0.36689172  0.98166384  0.49204864  1
  H+  H95  1  0.55239953  0.89292105  0.82423561  1
  H+  H96  1  0.10474011  0.62363989  0.48956631  1
  H+  H97  1  0.27411820  0.88423452  0.68286880  1
  H+  H98  1  0.66010597  0.59325237  0.17734121  1
  H+  H99  1  0.23238421  0.75943782  0.54881079  1
  H+  H100  1  0.04324792  0.31692028  0.78073863  1
  H+  H101  1  0.59898069  0.64300264  0.65996317  1
  H+  H102  1  0.97407434  0.61192852  0.50107117  1
  H+  H103  1  0.71480799  0.10664929  0.17064800  1
  H+  H104  1  0.64127813  0.86386901  0.49084763  1
  H+  H105  1  0.92320429  0.00284812  0.53924492  1
  H+  H106  1  0.47335986  0.07784666  0.85256146  1
  H+  H107  1  0.97447327  0.61153783  0.66118872  1
  H+  H108  1  0.38759238  0.40199080  0.65205074  1
  H+  H109  1  0.85884764  0.38914395  0.49221556  1
  H+  H110  1  0.15452728  0.33357588  0.26315299  1
  H+  H111  1  0.13754308  0.86049415  0.66040414  1
  H+  H112  1  0.99655778  0.37682949  0.17145289  1
  H+  H113  1  0.62406280  0.64607148  0.31283397  1
  H+  H114  1  0.53729022  0.38419725  0.65060504  1
  H+  H115  1  0.62161884  -0.01033543  0.48526664  1
  H+  H116  1  0.10815989  0.13495552  1.01009815  1
  H+  H117  1  0.88182786  0.90443207  0.32508283  1
  H+  H118  1  0.46595848  0.36953719  0.84342253  1
  H+  H119  1  0.29009844  0.51202819  0.69811995  1
  H+  H120  1  0.12667218  0.27478407  0.32339171  1
  H+  H121  1  0.38484663  0.36353938  1.00336850  1
  H+  H122  1  0.35911684  0.51290816  0.83096546  1
  H+  H123  1  0.78346952  0.12051133  0.80911656  1
  H+  H124  1  0.83801034  0.68060960  0.40040202  1
  H+  H125  1  0.67660995  0.07874567  0.55750021  1
  H+  H126  1  0.22587191  0.60695596  0.98907698  1
  H+  H127  1  0.87041146  0.85122741  1.00134396  1
  H+  H128  1  0.61207736  0.39506565  0.34374838  1
  H+  H129  1  0.85037734  -0.03130442  1.01380016  1
  H+  H130  1  0.61471212  0.97596513  0.66478934  1
  H+  H131  1  0.27431577  0.13531304  0.67545118  1
  H+  H132  1  0.27567395  0.14179765  0.48631641  1
  H+  H133  1  0.13531352  0.85956179  0.83755534  1
  H+  H134  1  0.87022871  1.03643816  0.67329850  1
  H+  H135  1  0.85711438  0.04647244  0.45750774  1
  H+  H136  1  0.22242276  0.11557071  0.16927039  1
  H+  H137  1  0.38683694  0.27473152  0.49493121  1
  H+  H138  1  0.81766142  0.39711591  0.10043824  1
  H+  H139  1  0.71262330  0.62535405  0.65094087  1
  H+  H140  1  0.83376522  0.11177789  0.48588488  1
  H+  H141  1  0.77382638  0.78516323  0.86515034  1
  H+  H142  1  0.02190604  0.88296561  0.82673586  1
  H+  H143  1  0.86227830  0.64503731  0.49275282  1
  H+  H144  1  0.26912744  0.39011388  1.01512931  1
  H+  H145  1  0.12624465  0.60673078  0.16962611  1
  H+  H146  1  0.13337328  0.60345875  0.32503264  1
  H+  H147  1  0.20388769  0.38092121  0.66198164  1
  H+  H148  1  0.11817383  0.72608484  0.15765087  1
  H+  H149  1  0.41411855  0.02595470  0.99958320  1
  H+  H150  1  0.61606831  0.73770764  0.48757141  1
  H+  H151  1  0.38760859  0.11522425  0.50594438  1
  H+  H152  1  0.27408788  0.13639878  0.33436518  1
  H+  H153  1  0.85401003  0.71108368  0.00638738  1
  H+  H154  1  -0.01200598  0.61618649  0.17305725  1
  H+  H155  1  0.84114455  0.89659065  0.82628783  1
  H+  H156  1  0.04837593  0.04044630  0.60612656  1
  H+  H157  1  0.11920555  0.28432590  0.65642260  1
  H+  H158  1  0.86637656  0.13467730  0.31357497  1
  H+  H159  1  0.34826982  0.73437421  0.15438675  1
  H+  H160  1  0.11937654  0.22981369  0.01491427  1
  H+  H161  1  0.48525426  0.63043587  0.81621919  1
  H+  H162  1  0.02645730  0.14281723  0.31997433  1
  H+  H163  1  0.27394762  0.39027676  0.49549495  1
  H+  H164  1  0.63530851  0.53250317  0.49843619  1
  H+  H165  1  0.91334716  0.82887336  0.26043822  1
  H+  H166  1  0.74370978  0.37522155  0.66920384  1
  H+  H167  1  0.63326649  0.73980507  0.83775969  1
  H+  H168  1  0.27095348  0.88221614  0.33942588  1
  H+  H169  1  0.38952817  0.57500235  0.89175940  1
  H+  H170  1  0.36764382  0.88261487  -0.01763993  1
  H+  H171  1  0.60196307  0.97666311  0.01036488  1
  H+  H172  1  0.88723587  0.26893800  0.32636902  1
  H+  H173  1  0.15354467  0.90498570  0.54915637  1
  H+  H174  1  0.76840395  0.71710848  0.72252118  1
  H+  H175  1  0.21255950  0.60404309  0.16625829  1
  H+  H176  1  0.63323144  0.26455481  0.80780876  1
  H+  H177  1  0.65113978  0.10831662  0.65157102  1
  H+  H178  1  0.51315232  0.89305679  0.33936098  1
  H+  H179  1  0.07211636  0.14110146  0.65461285  1
  H+  H180  1  0.97749053  0.11401351  0.19549594  1
  H+  H181  1  -0.05533338  0.13938916  0.66207709  1
  H+  H182  1  0.73653537  0.09819867  0.65220635  1
  H+  H183  1  0.53145545  0.10629109  0.10236703  1
  H+  H184  1  0.11075636  0.97501333  0.15827747  1
  H+  H185  1  0.47220150  0.10587499  0.65725685  1
  H+  H186  1  0.42412058  0.61648023  0.54663471  1
  H+  H187  1  0.89149350  0.61924690  0.35109008  1
  H+  H188  1  0.09774175  0.87701484  0.00580697  1
  H+  H189  1  0.39846751  0.53522874  0.50035775  1
  H+  H190  1  0.59420083  0.16444097  0.80921111  1
  H+  H191  1  0.11855293  0.19750032  0.80326523  1
  H+  H192  1  0.93410747  0.10635168  0.89474888  1
  H+  H193  1  0.63402948  0.36690975  0.98979257  1
  H+  H194  1  0.37638414  0.10419293  0.32445274  1
  H+  H195  1  0.21148673  0.85550282  0.99589342  1
  H+  H196  1  0.84473791  0.42269333  0.73500992  1
  H+  H197  1  0.11656196  0.63330659  0.00126550  1
  H+  H198  1  0.88668314  0.76702686  0.16764643  1
  H+  H199  1  0.68360885  0.57839399  0.88635963  1
  H+  H200  1  -0.10058938  0.03009464  0.29665454  1
  H+  H201  1  0.36043923  -0.02990867  0.33869818  1
  H+  H202  1  0.41284535  0.41722304  0.68104278  1
  H+  H203  1  0.59283403  0.17684949  0.71443865  1
  H+  H204  1  0.85431282  0.21635822  0.16517643  1
  H+  H205  1  0.32667014  0.61641881  0.83636733  1
  H+  H206  1  0.86583963  0.47222069  0.01195120  1
  H+  H207  1  0.88289657  0.35762749  0.32868532  1
  H+  H208  1  0.26009979  0.11541090  0.01270931  1
  H+  H209  1  0.84661663  0.14248788  0.38215407  1
  H+  H210  1  0.77597358  0.90005275  0.47707243  1
  H+  H211  1  0.27557523  0.63141475  0.33341303  1
  H+  H212  1  0.70865303  0.86566761  0.01606009  1
  H+  H213  1  0.61969500  0.20247710  1.06080181  1
  H+  H214  1  0.85038400  0.13176099  0.01088978  1
  H+  H215  1  0.57217074  0.91898906  0.07672107  1
  H+  H216  1  0.38116811  0.85700485  0.32637891  1
  H+  H217  1  0.10968460  0.72300182  0.68159139  1
  H+  H218  1  0.70762907  0.09620844  0.99105768  1
  H+  H219  1  0.90140372  0.70003694  0.82562852  1
  H+  H220  1  0.35618285  0.74106332  0.48687579  1
  H+  H221  1  0.13517520  0.52191508  0.50243943  1
  H+  H222  1  0.11066152  0.37756122  0.32741397  1
  H+  H223  1  0.86765622  0.48611719  0.67523944  1
  H+  H224  1  0.84334724  0.14736146  0.74868273  1
  H+  H225  1  0.97175535  0.86953106  0.65419840  1
  H+  H226  1  0.16698747  0.83229409  0.26532135  1
  H+  H227  1  0.13958511  0.11591325  0.32216701  1
  H+  H228  1  0.86149311  0.46956367  0.34331248  1
  H+  H229  1  0.89971141  0.12148878  0.83064980  1
  H+  H230  1  0.67352993  0.39302647  0.83541629  1
  H+  H231  1  0.35713917  0.12452950  0.67428626  1
  H+  H232  1  -0.02253447  0.86378686  0.31718390  1
  H+  H233  1  0.60281343  0.97202100  0.16273045  1
  H+  H234  1  0.27079776  0.38064406  0.33866497  1
  H+  H235  1  0.11160929  0.37944694  0.82656615  1
  H+  H236  1  0.52300366  0.88955658  0.66821675  1
  H+  H237  1  0.44511184  0.91855632  0.02747157  1
  H+  H238  1  0.63527412  0.85357784  0.16860448  1
  H+  H239  1  0.36113388  0.47663055  0.01127462  1
  H+  H240  1  0.12970948  0.52910875  0.65493091  1
  H+  H241  1  0.55685733  0.60613064  0.80582881  1
  H+  H242  1  0.34076018  0.85567466  0.87809090  1
  H+  H243  1  0.86894162  0.97443408  0.17411040  1
  H+  H244  1  0.53790564  0.64634771  0.32476892  1
  H+  H245  1  0.70454777  0.83829290  0.83970419  1
  H+  H246  1  0.87999655  0.25415586  0.83636159  1
  H+  H247  1  0.52111804  0.21946620  0.38129389  1
  H+  H248  1  0.58457995  0.17696960  0.44181869  1
  H+  H249  1  0.64909532  0.45023044  0.19141404  1
  H+  H250  1  0.19309091  0.93337841  0.53048196  1
  H+  H251  1  0.62835346  0.24527407  0.99685724  1
  H+  H252  1  0.73495342  0.61473954  0.33110970  1
  H+  H253  1  0.96813969  0.33988881  0.84360336  1
  H+  H254  1  0.63023530  0.53209994  0.64327762  1
  H+  H255  1  0.51321523  0.88169856  0.16201136  1
  H+  H256  1  0.00494885  0.09137512  0.52671626  1
  H+  H257  1  0.34988716  0.64950099  0.14190591  1
  H+  H258  1  0.60360202  -0.01271672  0.33869101  1
  H+  H259  1  0.61511465  0.21035070  0.64730352  1
  H+  H260  1  0.38541590  0.51714934  0.34072255  1
  H+  H261  1  0.99347097  0.14616609  0.99263301  1
  H+  H262  1  0.88443768  0.37462159  0.65424075  1
  H+  H263  1  0.65001758  0.12938178  0.32476229  1
  H+  H264  1  0.82795504  0.67781935  0.72875411  1
  H+  H265  1  0.73060213  0.87043985  0.34374415  1
  H+  H266  1  0.12837673  0.04470076  0.48890879  1
  H+  H267  1  0.16791390  0.60799724  0.82870454  1
  H+  H268  1  0.38997219  0.64598047  0.64217706  1
  H+  H269  1  0.47594203  0.36414861  0.33072481  1
  H+  H270  1  0.64859756  0.31550680  0.69338325  1
  H+  H271  1  0.11738643  0.71547476  0.49367394  1
  H+  H272  1  0.42998021  0.84657233  0.56160006  1
  H+  H273  1  0.97427514  0.37752620  0.65307626  1
  H+  H274  1  0.25588995  0.61897139  0.67757992  1
  H+  H275  1  0.35351742  0.97005909  0.15682305  1
  H+  H276  1  0.47462430  0.61787985  -0.03836632  1
  H+  H277  1  0.35812733  0.37676844  0.33881626  1
  H+  H278  1  0.60018041  0.25062007  0.33916435  1
  H+  H279  1  0.48592097  0.34791122  0.86133766  1
  H+  H280  1  0.88218665  0.52375184  0.50058203  1
  H+  H281  1  0.24208332  0.38816231  0.84653404  1
  H+  H282  1  0.36399120  0.12638845  0.83184102  1
  H+  H283  1  0.96216192  0.20341239  0.96081524  1
  H+  H284  1  0.02258742  0.12333471  0.81815122  1
  H+  H285  1  0.01725376  0.38800364  0.49249128  1
  H+  H286  1  0.63872395  0.87169796  0.64583034  1
  H+  H287  1  0.11978341  0.01488756  0.99511518  1
  H+  H288  1  0.66923204  0.33813834  0.57110458  1
  H+  H289  1  0.38380147  0.01724606  0.66383003  1
  H+  H290  1  0.43970409  0.36326900  0.16598937  1
  H+  H291  1  0.25312669  0.84400396  0.51533592  1
  H+  H292  1  0.34072045  0.91226114  0.09735157  1
  H+  H293  1  0.38453299  0.36316435  0.50323778  1
  H+  H294  1  0.06980073  0.17030188  0.38637458  1
  H+  H295  1  0.11149847  0.96950496  0.82651771  1
  H+  H296  1  0.36518356  0.22438666  0.33529789  1
  H+  H297  1  0.83032998  0.91885218  0.07675182  1
  H+  H298  1  0.37066639  0.42009228  0.80066974  1
  H+  H299  1  0.21885175  0.61848151  0.49928909  1
  H+  H300  1  0.73068871  0.11580685  0.32210684  1
  H+  H301  1  0.83034485  0.65258868  0.06512496  1
  H+  H302  1  0.07719484  0.91332722  0.72725899  1
  H+  H303  1  0.33112080  0.41440044  0.43606052  1
  H+  H304  1  0.16506098  0.58773553  0.59536095  1
  H+  H305  1  0.45540693  0.09805894  0.17420721  1
  H+  H306  1  0.07103313  0.16126035  0.10842107  1
  H+  H307  1  0.09309080  0.37532788  0.16942305  1
  H+  H308  1  0.33182874  0.15399441  0.77250251  1
  H+  H309  1  0.42169055  0.57190628  0.28141119  1
  H+  H310  1  0.41219447  0.08124079  0.56642065  1
  H+  H311  1  0.60013221  0.66653601  0.08831549  1
  H+  H312  1  0.33553810  0.16416680  0.42801063  1
  H+  H313  1  0.09308540  0.64267374  0.76668494  1
  H+  H314  1  0.72872479  0.86480366  0.17200297  1
  H+  H315  1  0.68321796  0.35288353  0.89939446  1
  H+  H316  1  0.85935368  0.94762387  0.38049079  1
  H+  H317  1  0.56492716  0.35856435  0.19043229  1
  H+  H318  1  0.66798963  0.83987057  0.55518046  1
  H+  H319  1  0.37827346  0.31143306  0.94466322  1
  H+  H320  1  0.17755343  0.58260669  0.92692608  1
  H+  H321  1  0.40770183  0.82782855  0.23196340  1
  H+  H322  1  0.68724154  0.57112495  0.23943229  1
  H+  H323  1  0.33684557  0.91213181  0.74038183  1
  H+  H324  1  0.48679936  0.12401512  0.99740999  1
  H+  H325  1  0.86734289  0.88504224  0.16438747  1
  H+  H326  1  0.92967805  0.59020903  0.23170211  1
  H+  H327  1  0.56104977  0.39200108  0.79930913  1
  H+  H328  1  0.82258558  0.40325641  0.39596528  1
  H+  H329  1  0.39637078  0.06637680  0.23352372  1
  H+  H330  1  0.29549924  0.44286481  0.74048600  1
  H+  H331  1  0.60169817  0.08009755  0.89115346  1
  H+  H332  1  0.33666084  0.91888542  0.43290887  1
  H+  H333  1  0.42473368  0.32957434  0.26823896  1
  H+  H334  1  0.16380976  0.08335541  0.22847445  1
  H+  H335  1  0.65678746  0.08153878  0.22943645  1
  H+  H336  1  0.61109573  0.43287229  0.73833194  1
  H+  H337  1  0.15560491  0.07454329  0.93666855  1
  H+  H338  1  0.15786539  0.33317491  0.56195354  1
  H+  H339  1  0.20410316  0.36095229  0.17066056  1
  H+  H340  1  0.56330645  0.67126980  0.71752623  1
  H+  H341  1  0.16264995  0.83032519  0.89760409  1
  H+  H342  1  0.51790227  0.37467734  1.00008572  1
  H+  H343  1  0.57826274  0.92922069  0.41275367  1
  H+  H344  1  0.13985349  0.77317758  0.32474438  1
  H+  H345  1  0.85114845  0.94970938  0.73741408  1
  H+  H346  1  0.07749804  0.92235616  0.38764947  1
  H+  H347  1  0.40320273  0.88012126  0.50255263  1
  H+  H348  1  0.90036886  0.31184157  0.93825653  1
  H+  H349  1  0.31508179  0.43353018  0.09992547  1
  H+  H350  1  0.71705967  0.60344365  0.99309060  1
  H+  H351  1  -0.00772803  0.16639242  0.46418091  1
  H+  H352  1  0.43446732  0.31248868  0.58642958  1
  H+  H353  1  0.76909463  0.38775341  0.49332547  1
  H+  H354  1  0.58152640  0.42171028  0.40471765  1
  H+  H355  1  0.91140473  0.84726598  0.55834403  1
  H+  H356  1  0.81371594  0.14824026  0.07228461  1
  H+  H357  1  0.15830806  0.57281200  0.26284612  1
  H+  H358  1  0.05547969  0.15949979  0.72048508  1
  H+  H359  1  0.10970345  0.47657808  0.32775567  1
  H+  H360  1  0.07418491  0.41319312  0.43184538  1
  H+  H361  1  0.52269857  0.63357506  0.04267169  1
  H+  H362  1  0.17660442  0.34763441  0.94708794  1
  H+  H363  1  0.88530384  0.81914534  0.93831947  1
  H+  H364  1  0.41601693  0.07488451  0.90694251  1
  H+  H365  1  0.32467216  0.15890437  0.10342707  1
  H+  H366  1  0.91486379  0.58152996  0.60237086  1
  H+  H367  1  0.63852148  0.78457153  0.64454320  1
  H+  H368  1  0.32215519  0.68176132  0.42753487  1
  H+  H369  1  0.60350598  0.46430220  0.00138091  1
  H+  H370  1  0.13754261  0.02541604  0.32110394  1
  H+  H371  1  0.14401647  0.08379343  0.59279033  1
  H+  H372  1  0.17783953  0.82305047  0.61121439  1
  H+  H373  1  0.38742659  0.77066716  0.32469806  1
  H+  H374  1  0.10625305  0.46953922  -0.00070709  1
  H+  H375  1  0.09856072  0.66807445  0.39737059  1
  H+  H376  1  0.65160189  0.77929294  0.34810363  1
  H+  H377  1  0.92486500  0.57284825  0.93961643  1
  H+  H378  1  0.86950133  0.34961736  0.17211745  1
  H+  H379  1  0.33793615  0.68695486  0.04924622  1
  H+  H380  1  0.07832544  0.91330251  0.09993571  1
  H+  H381  1  0.91692463  0.34768719  0.56920971  1
  H+  H382  1  0.09938435  0.91556688  0.48541897  1
  H+  H383  1  0.90490558  0.32759453  0.23401638  1
  O2-  O384  1  0.07337806  0.16335669  0.15383807  1
  O2-  O385  1  0.05204349  0.17730658  0.46484035  1
  O2-  O386  1  0.07689489  0.13786070  0.79451260  1
  O2-  O387  1  0.06254455  0.40858814  0.15861652  1
  O2-  O388  1  0.07779920  0.41564595  0.47638932  1
  O2-  O389  1  0.06223241  0.37184610  0.80087504  1
  O2-  O390  1  0.09008669  0.66490634  0.14351307  1
  O2-  O391  1  0.07940612  0.65925316  0.47382035  1
  O2-  O392  1  0.10192598  0.62997752  0.80925832  1
  O2-  O393  1  0.08142085  0.91349227  0.14537225  1
  O2-  O394  1  0.06697490  0.93859104  0.46479029  1
  O2-  O395  1  0.07802076  0.91013509  0.80731593  1
  O2-  O396  1  0.32785535  0.16666315  0.14967252  1
  O2-  O397  1  0.33676760  0.16708631  0.47352565  1
  O2-  O398  1  0.32700003  0.14946415  0.81753496  1
  O2-  O399  1  0.30110364  0.44500279  0.14355887  1
  O2-  O400  1  0.33455624  0.41938243  0.48125215  1
  O2-  O401  1  0.32334865  0.42948898  0.81069207  1
  O2-  O402  1  0.31587050  0.67652524  0.13297566  1
  O2-  O403  1  0.30603312  0.69083972  0.46882083  1
  O2-  O404  1  0.29442290  0.64986989  0.82806137  1
  O2-  O405  1  0.32800174  0.90918667  0.14130864  1
  O2-  O406  1  0.34140485  0.92065045  0.47835105  1
  O2-  O407  1  0.32898151  0.90702540  0.82001681  1
  O2-  O408  1  0.55213294  0.13723830  0.14063870  1
  O2-  O409  1  0.58699602  0.17150281  0.48638718  1
  O2-  O410  1  0.59712909  0.21160189  0.78387792  1
  O2-  O411  1  0.62776506  0.38742756  0.19629820  1
  O2-  O412  1  0.58465253  0.42393986  0.48170821  1
  O2-  O413  1  0.61889295  0.43053666  0.78382334  1
  O2-  O414  1  0.61810197  0.66328774  0.16006014  1
  O2-  O415  1  0.58223141  0.67410684  0.47449372  1
  O2-  O416  1  0.54490457  0.65271347  0.79887533  1
  O2-  O417  1  0.57287669  0.91251356  0.14507213  1
  O2-  O418  1  0.58664849  0.92821115  0.46727391  1
  O2-  O419  1  0.59143719  0.94699659  0.80439767  1
  O2-  O420  1  0.82373176  0.15500289  0.15258305  1
  O2-  O421  1  0.87086831  0.10738461  0.45526560  1
  O2-  O422  1  0.84326668  0.15678327  0.79687851  1
  O2-  O423  1  0.80863778  0.38437698  0.14557258  1
  O2-  O424  1  0.82736784  0.41683561  0.47424961  1
  O2-  O425  1  0.85122449  0.41303194  0.81282113  1
  O2-  O426  1  0.84300176  0.66420598  0.14252362  1
  O2-  O427  1  0.83502985  0.67840119  0.47796234  1
  O2-  O428  1  0.85803445  0.65173910  0.80229158  1
  O2-  O429  1  0.84009250  0.91977734  0.15150688  1
  O2-  O430  1  0.83837393  0.93731767  0.46706651  1
  O2-  O431  1  0.82150079  0.93419578  0.80812269  1
  O2-  O432  1  0.16069686  0.08347101  0.18311790  1
  O2-  O433  1  0.16774108  0.10276056  0.50643271  1
  O2-  O434  1  0.16215655  0.06396081  0.85477115  1
  O2-  O435  1  0.14494189  0.32699666  0.18808486  1
  O2-  O436  1  0.15958502  0.33099189  0.51626772  1
  O2-  O437  1  0.18248054  0.35981760  0.86815514  1
  O2-  O438  1  0.15396517  0.57211992  0.18437121  1
  O2-  O439  1  0.15978439  0.58167881  0.51778966  1
  O2-  O440  1  0.20714363  0.58699663  0.84869949  1
  O2-  O441  1  0.16343580  0.82914900  0.18570058  1
  O2-  O442  1  0.20678071  0.79459983  0.53882120  1
  O2-  O443  1  0.16958288  0.83465591  0.85300159  1
  O2-  O444  1  0.39406391  0.06666487  0.18802101  1
  O2-  O445  1  0.41801139  0.08502704  0.52108588  1
  O2-  O446  1  0.41588413  0.07020683  0.86162468  1
  O2-  O447  1  0.44425160  0.32077768  0.19071850  1
  O2-  O448  1  0.41789121  0.33362321  0.51278012  1
  O2-  O449  1  0.30025731  0.27087497  0.87991153  1
  O2-  O450  1  0.44523669  0.56655541  0.20322227  1
  O2-  O451  1  0.43079459  0.59867820  0.50423256  1
  O2-  O452  1  0.38654531  0.57925278  0.84728516  1
  O2-  O453  1  0.40687756  0.82798075  0.18623247  1
  O2-  O454  1  0.43441359  0.84987369  0.51633898  1
  O2-  O455  1  0.37788518  0.77555688  0.91137034  1
  O2-  O456  1  0.65363443  0.07658522  0.18437459  1
  O2-  O457  1  0.67428321  0.08078109  0.51188343  1
  O2-  O458  1  0.57402749  0.07438924  0.85166435  1
  O2-  O459  1  0.71871270  0.31405336  0.14734423  1
  O2-  O460  1  0.66614611  0.33786019  0.52633009  1
  O2-  O461  1  0.69384843  0.35649325  0.85393225  1
  O2-  O462  1  0.68811909  0.56208189  0.19414144  1
  O2-  O463  1  0.66568728  0.59486487  0.50960962  1
  O2-  O464  1  0.69819492  0.58713428  0.84260460  1
  O2-  O465  1  0.66768621  0.82611335  0.18244280  1
  O2-  O466  1  0.66990513  0.83446525  0.50871248  1
  O2-  O467  1  0.68318651  0.78347489  0.86119728  1
  O2-  O468  1  0.91660886  0.08293349  0.21164862  1
  O2-  O469  1  0.97579126  0.04748727  0.55837301  1
  O2-  O470  1  0.93128647  0.09419490  0.85033985  1
  O2-  O471  1  0.90765435  0.32698367  0.18862399  1
  O2-  O472  1  0.91701501  0.34498397  0.52073212  1
  O2-  O473  1  0.90771887  0.31012971  0.85847025  1
  O2-  O474  1  0.92740809  0.58865698  0.18760087  1
  O2-  O475  1  0.91199574  0.58591107  0.51165200  1
  O2-  O476  1  0.93966861  0.56729873  0.86254108  1
  O2-  O477  1  0.91413462  0.82763423  0.18352585  1
  O2-  O478  1  0.91107645  0.84589300  0.51280162  1
  O2-  O479  1  0.83806445  0.80598627  0.86312231  1
  O2-  O480  1  0.17084451  0.08694950  0.30758172  1
  O2-  O481  1  0.10432306  0.06204936  0.62788019  1
  O2-  O482  1  0.15119827  0.07611517  0.98161565  1
  O2-  O483  1  0.15472636  0.33682012  0.30909214  1
  O2-  O484  1  0.14881804  0.34254306  0.63815851  1
  O2-  O485  1  0.16921993  0.33748694  0.99180277  1
  O2-  O486  1  0.15741085  0.56727084  0.30826441  1
  O2-  O487  1  0.16402334  0.59035281  0.64074134  1
  O2-  O488  1  0.16711274  0.57962526  0.97169826  1
  O2-  O489  1  0.16766772  0.83404023  0.31085103  1
  O2-  O490  1  0.17078539  0.83017706  0.65524649  1
  O2-  O491  1  0.15259335  0.82463870  0.98110800  1
  O2-  O492  1  0.40643491  0.07263185  0.31029212  1
  O2-  O493  1  0.41014090  0.07645147  0.64607147  1
  O2-  O494  1  0.42674111  0.08347067  0.98533984  1
  O2-  O495  1  0.41664244  0.33000956  0.31313042  1
  O2-  O496  1  0.45748118  0.30173724  0.62449995  1
  O2-  O497  1  0.41382448  0.33785014  0.98117059  1
  O2-  O498  1  0.41399388  0.57728637  0.32547293  1
  O2-  O499  1  0.43608281  0.66620765  0.61158864  1
  O2-  O500  1  0.41603940  0.58154545  0.97613684  1
  O2-  O501  1  0.41565325  0.83164305  0.30983552  1
  O2-  O502  1  0.41392465  0.83566040  0.64065342  1
  O2-  O503  1  0.33315995  0.82463274  0.91863878  1
  O2-  O504  1  0.66894103  0.09050174  0.30972089  1
  O2-  O505  1  0.67653148  0.07483650  0.63464953  1
  O2-  O506  1  0.64593719  0.06869291  0.97919969  1
  O2-  O507  1  0.66167455  0.34571442  0.30772966  1
  O2-  O508  1  0.67987573  0.34188396  0.65583946  1
  O2-  O509  1  0.67014034  0.34107526  0.97317227  1
  O2-  O510  1  0.67674371  0.58377721  0.31231722  1
  O2-  O511  1  0.65564789  0.59412142  0.63110645  1
  O2-  O512  1  0.65880438  0.57870853  0.97470843  1
  O2-  O513  1  0.68281643  0.83447795  0.37059331  1
  O2-  O514  1  0.66786831  0.84305229  0.62670288  1
  O2-  O515  1  0.64599868  0.83600016  1.00682594  1
  O2-  O516  1  0.92570704  0.09242441  0.27863363  1
  O2-  O517  1  0.88172818  0.09862827  0.65306153  1
  O2-  O518  1  0.94280657  0.14313430  0.96947905  1
  O2-  O519  1  0.91667842  0.33039231  0.31271653  1
  O2-  O520  1  0.91561107  0.34778912  0.63499128  1
  O2-  O521  1  0.90304832  0.31744219  0.98343291  1
  O2-  O522  1  0.92068948  0.58412681  0.35857148  1
  O2-  O523  1  0.91351585  0.57978184  0.64707791  1
  O2-  O524  1  0.92170299  0.57516517  0.98500546  1
  O2-  O525  1  0.91529512  0.83347816  0.30602671  1
  O2-  O526  1  0.91323099  0.85240809  0.63819491  1
  O2-  O527  1  0.89967107  0.82280287  0.98217332  1
  O2-  O528  1  0.08175178  0.16839195  0.02726307  1
  O2-  O529  1  0.08225175  0.17356400  0.34183116  1
  O2-  O530  1  0.05024895  0.17378606  0.67751581  1
  O2-  O531  1  0.07953081  0.41140356  0.01764317  1
  O2-  O532  1  0.07788582  0.41192981  0.34280525  1
  O2-  O533  1  0.07649727  0.42987906  0.68069242  1
  O2-  O534  1  0.08791837  0.66316424  0.02020731  1
  O2-  O535  1  0.09596228  0.66573718  0.35163086  1
  O2-  O536  1  0.07764302  0.66056591  0.69106571  1
  O2-  O537  1  0.06897491  0.90857442  0.02104334  1
  O2-  O538  1  0.08284485  0.92006061  0.34267709  1
  O2-  O539  1  0.07666740  0.91073562  0.68195517  1
  O2-  O540  1  0.31576476  0.13870917  0.03385698  1
  O2-  O541  1  0.33460189  0.16319785  0.34976208  1
  O2-  O542  1  0.33204853  0.15901477  0.69191291  1
  O2-  O543  1  0.32902076  0.42127813  0.03303196  1
  O2-  O544  1  0.32872348  0.40669075  0.35648461  1
  O2-  O545  1  0.28202550  0.45376209  0.69816672  1
  O2-  O546  1  0.33847169  0.66838456  0.00710384  1
  O2-  O547  1  0.33440460  0.66622478  0.34931901  1
  O2-  O548  1  0.30998317  0.62990265  0.69853111  1
  O2-  O549  1  0.39183112  0.91909713  0.02011189  1
  O2-  O550  1  0.33142745  0.91010727  0.35493394  1
  O2-  O551  1  0.33619337  0.91440533  0.69478525  1
  O2-  O552  1  0.60349674  0.18690507  0.01809804  1
  O2-  O553  1  0.55776350  0.19921719  0.36379318  1
  O2-  O554  1  0.58558897  0.15684219  0.67067187  1
  O2-  O555  1  0.57889045  0.40390812  0.01435415  1
  O2-  O556  1  0.57878106  0.42194483  0.35912032  1
  O2-  O557  1  0.59627809  0.43221916  0.66472613  1
  O2-  O558  1  0.58523793  0.66868768  0.04384680  1
  O2-  O559  1  0.59551812  0.68044941  0.30719940  1
  O2-  O560  1  0.57531945  0.67988581  0.67336098  1
  O2-  O561  1  0.57198450  0.91613834  0.02941466  1
  O2-  O562  1  0.57205584  0.92943179  0.35781100  1
  O2-  O563  1  0.58284481  0.91746699  0.68367578  1
  O2-  O564  1  0.80982304  0.14903331  0.02707149  1
  O2-  O565  1  0.83854350  0.15862515  0.34043816  1
  O2-  O566  1  0.83186597  0.13243271  0.68395284  1
  O2-  O567  1  0.82996183  0.41108786  0.02563014  1
  O2-  O568  1  0.82857539  0.40651244  0.35045054  1
  O2-  O569  1  0.83683002  0.42380370  0.69005759  1
  O2-  O570  1  0.82658054  0.65018033  0.01946116  1
  O2-  O571  1  0.84042934  0.67356679  0.35534480  1
  O2-  O572  1  0.80159160  0.69855215  0.69824333  1
  O2-  O573  1  0.81935534  0.91129886  0.03137390  1
  O2-  O574  1  0.86569051  0.94878637  0.33576201  1
  O2-  O575  1  0.87716999  0.97151503  0.69598544  1
