# generated using pymatgen
data_H2O
_symmetry_space_group_name_H-M   'P 1'
_cell_length_a   17.98562084
_cell_length_b   17.98397762
_cell_length_c   21.98412860
_cell_angle_alpha   90.01241584
_cell_angle_beta   90.00949326
_cell_angle_gamma   120.02109547
_symmetry_Int_Tables_number   1
_chemical_formula_structural   H2O
_chemical_formula_sum   'H384 O192'
_cell_volume   6156.85158166
_cell_formula_units_Z   192
loop_
 _symmetry_equiv_pos_site_id
 _symmetry_equiv_pos_as_xyz
  1  'x, y, z'
loop_
 _atom_type_symbol
 _atom_type_oxidation_number
  H+  1.0
  O2-  -2.0
loop_
 _atom_site_type_symbol
 _atom_site_label
 _atom_site_symmetry_multiplicity
 _atom_site_fract_x
 _atom_site_fract_y
 _atom_site_fract_z
 _atom_site_occupancy
  H+  H0  1  0.12001423  0.46682047  0.82723925  1
  H+  H1  1  0.13723398  0.76749698  0.66582690  1
  H+  H2  1  -0.01921799  0.61699496  0.50594877  1
  H+  H3  1  0.73350450  0.88050980  0.51655540  1
  H+  H4  1  0.47314200  0.87120772  0.51443588  1
  H+  H5  1  0.84736713  0.41522311  0.43889602  1
  H+  H6  1  0.92578804  0.31157933  0.66920488  1
  H+  H7  1  0.12121950  0.63990325  0.68008795  1
  H+  H8  1  0.88965019  0.25534018  1.00398728  1
  H+  H9  1  0.64899272  0.11836425  0.50306793  1
  H+  H10  1  0.35766172  0.96591838  0.67699110  1
  H+  H11  1  0.60811452  0.37713663  0.15845304  1
  H+  H12  1  0.11739807  0.64069267  0.33909704  1
  H+  H13  1  0.76972528  0.62763179  0.49545241  1
  H+  H14  1  0.27649080  0.38463031  0.33522568  1
  H+  H15  1  0.36090620  0.62644505  0.34836222  1
  H+  H16  1  1.08931487  0.42547608  0.43437946  1
  H+  H17  1  0.63148462  0.07352489  0.02268820  1
  H+  H18  1  0.42344704  0.09279217  0.84819913  1
  H+  H19  1  0.36291868  0.38235754  0.49878572  1
  H+  H20  1  0.12239509  0.90256495  1.01219638  1
  H+  H21  1  0.61636524  -0.00852064  0.83975689  1
  H+  H22  1  0.14618203  0.50628460  0.66634244  1
  H+  H23  1  0.09947550  0.13030782  0.53263460  1
  H+  H24  1  -0.03873225  0.84274475  0.50842172  1
  H+  H25  1  0.87195702  0.75868813  0.51377636  1
  H+  H26  1  0.52464903  0.39558144  0.33553477  1
  H+  H27  1  0.27775935  0.12663471  0.32705963  1
  H+  H28  1  0.61653239  0.63635499  1.00724726  1
  H+  H29  1  0.63487378  -0.02004316  0.15365816  1
  H+  H30  1  0.61289698  0.38570050  0.82111031  1
  H+  H31  1  0.76428555  0.15075959  0.82437985  1
  H+  H32  1  0.11652749  0.87715025  0.67752564  1
  H+  H33  1  0.14113019  1.03093332  -0.00562109  1
  H+  H34  1  0.79021559  0.39035004  0.83122745  1
  H+  H35  1  0.39118669  0.27110056  0.31941237  1
  H+  H36  1  0.37204947  0.25403314  0.16691414  1
  H+  H37  1  0.97069957  0.64036839  0.19914216  1
  H+  H38  1  0.16173409  0.39190358  0.65592187  1
  H+  H39  1  0.54665292  0.12707145  0.19885005  1
  H+  H40  1  0.25378844  0.38456713  0.66101547  1
  H+  H41  1  0.60579748  -0.03407912  0.66794116  1
  H+  H42  1  0.36449315  0.63089167  0.82963687  1
  H+  H43  1  0.13918083  0.62289506  0.50676245  1
  H+  H44  1  0.03716834  0.44106785  -0.01966746  1
  H+  H45  1  0.70963733  0.69863643  0.63174129  1
  H+  H46  1  0.37664890  0.28520637  0.83602527  1
  H+  H47  1  0.16509479  0.54693029  0.90418089  1
  H+  H48  1  0.47223556  0.87730052  0.66985310  1
  H+  H49  1  0.36018992  0.58738604  0.17246103  1
  H+  H50  1  0.16350680  0.39468952  0.97610150  1
  H+  H51  1  0.12580539  0.40644714  0.49490052  1
  H+  H52  1  0.86714161  0.74044449  0.15781308  1
  H+  H53  1  0.52968755  0.63892510  0.16560135  1
  H+  H54  1  0.35996382  0.95405835  0.01102773  1
  H+  H55  1  0.39385620  0.51397206  -0.00870240  1
  H+  H56  1  0.72868609  0.38016272  0.67164501  1
  H+  H57  1  0.08799462  0.43482961  0.08923973  1
  H+  H58  1  0.85683638  0.11346294  0.67359500  1
  H+  H59  1  0.37208433  0.73495891  0.67851198  1
  H+  H60  1  0.87578591  0.10253285  0.51246664  1
  H+  H61  1  1.01087728  0.12015071  0.15336614  1
  H+  H62  1  0.86543530  0.47504000  0.67579685  1
  H+  H63  1  0.14354327  0.77035936  0.84475722  1
  H+  H64  1  0.38233146  0.51864415  0.51036795  1
  H+  H65  1  0.35485179  0.61106501  -0.00216929  1
  H+  H66  1  0.48021731  0.60727729  0.99296452  1
  H+  H67  1  0.41022165  -0.00026498  0.84549195  1
  H+  H68  1  0.11343306  0.72576595  0.49179286  1
  H+  H69  1  0.89389078  0.11574273  0.16926098  1
  H+  H70  1  0.11702879  0.47241102  0.33732213  1
  H+  H71  1  0.38014936  0.76346145  0.33006664  1
  H+  H72  1  0.63265868  0.51034854  0.16883188  1
  H+  H73  1  0.03249839  0.63581668  0.83350461  1
  H+  H74  1  0.07947982  0.09431292  0.50964181  1
  H+  H75  1  0.62766469  0.40583320  0.67653809  1
  H+  H76  1  0.64508712  0.77127555  0.99947450  1
  H+  H77  1  0.13955683  0.36046638  0.32249437  1
  H+  H78  1  0.91457619  0.39060204  0.89186134  1
  H+  H79  1  0.85434485  0.41511701  0.77744191  1
  H+  H80  1  0.23306905  0.85880658  0.84351543  1
  H+  H81  1  0.85895277  0.73057703  0.34252410  1
  H+  H82  1  -0.01600949  0.87527820  0.00179527  1
  H+  H83  1  0.73601812  0.03836101  0.63397561  1
  H+  H84  1  0.82730453  0.67178283  0.40351404  1
  H+  H85  1  0.59637076  0.16387815  0.67036244  1
  H+  H86  1  0.88046922  0.23994596  0.16234062  1
  H+  H87  1  0.86269154  0.48563028  0.16157526  1
  H+  H88  1  0.64956232  0.12789156  0.62474227  1
  H+  H89  1  0.49141311  0.86953941  0.17561286  1
  H+  H90  1  0.62957672  0.88886865  0.15791113  1
  H+  H91  1  0.72944111  0.85004423  0.84488733  1
  H+  H92  1  0.38788140  0.78161708  0.51514018  1
  H+  H93  1  0.86165685  0.63120389  0.49648400  1
  H+  H94  1  0.87709725  0.47845697  0.49634970  1
  H+  H95  1  0.14040842  0.53480732  0.50814230  1
  H+  H96  1  0.92772752  0.84695962  0.94063837  1
  H+  H97  1  0.89635718  0.62550582  0.99203411  1
  H+  H98  1  0.76997906  0.65512635  0.82950226  1
  H+  H99  1  0.52205060  0.38541883  0.82403813  1
  H+  H100  1  0.64336129  0.53029545  -0.00233334  1
  H+  H101  1  0.08752427  0.05311045  0.15898606  1
  H+  H102  1  0.60860700  0.48733130  0.34056546  1
  H+  H103  1  0.85437846  0.23367469  0.34622838  1
  H+  H104  1  0.34420140  0.11480017  0.15369752  1
  H+  H105  1  0.71056808  0.23064461  -0.00702995  1
  H+  H106  1  0.86673491  0.89843162  0.01155469  1
  H+  H107  1  0.22730773  0.85584897  0.66478934  1
  H+  H108  1  0.78726309  0.64541922  0.67364028  1
  H+  H109  1  0.88435322  0.01560553  0.84644857  1
  H+  H110  1  0.89500602  0.37625771  0.17142094  1
  H+  H111  1  0.67223520  0.34277901  0.23573551  1
  H+  H112  1  0.35073778  0.45713244  0.16043119  1
  H+  H113  1  0.14414499  0.53266520  0.16673951  1
  H+  H114  1  0.75271333  0.82788792  0.30960828  1
  H+  H115  1  0.13073401  0.12320908  0.31833191  1
  H+  H116  1  0.36297486  0.47931948  0.82707808  1
  H+  H117  1  0.31382590  0.15390046  0.48591461  1
  H+  H118  1  0.89531158  0.37204498  0.51059867  1
  H+  H119  1  0.60567036  0.89111355  0.49332383  1
  H+  H120  1  0.23118134  0.11049743  0.66570689  1
  H+  H121  1  0.91897306  0.82879655  0.60656838  1
  H+  H122  1  0.34254621  0.99174725  0.48419438  1
  H+  H123  1  0.87791827  0.72689928  0.67812576  1
  H+  H124  1  0.64915678  0.38029342  0.32674413  1
  H+  H125  1  0.37138314  0.23540498  0.67238082  1
  H+  H126  1  0.25685081  0.58568801  0.00116776  1
  H+  H127  1  0.52474856  0.14767490  0.34035112  1
  H+  H128  1  0.60873209  0.70475961  0.68198685  1
  H+  H129  1  0.11354111  0.39096423  0.14337253  1
  H+  H130  1  0.27387570  0.38689147  0.82679712  1
  H+  H131  1  0.02759350  0.38431256  0.33979309  1
  H+  H132  1  0.38441314  0.09542520  0.99415107  1
  H+  H133  1  0.74486971  0.83565951  0.66516296  1
  H+  H134  1  0.51227712  0.62132734  0.35698200  1
  H+  H135  1  0.67174714  0.59368855  0.56557809  1
  H+  H136  1  0.89547534  0.16855279  0.00593072  1
  H+  H137  1  0.53348949  0.40898884  0.67036348  1
  H+  H138  1  0.22579159  0.60598110  0.32712053  1
  H+  H139  1  0.64753571  0.28082872  0.83604168  1
  H+  H140  1  0.87576616  0.23817995  0.49821872  1
  H+  H141  1  0.61865209  0.35538853  0.51185687  1
  H+  H142  1  0.64429438  0.27570406  0.18148054  1
  H+  H143  1  0.10515853  0.22091183  0.83268240  1
  H+  H144  1  0.39041935  0.76521615  0.84405309  1
  H+  H145  1  0.09806661  0.12760529  0.83542837  1
  H+  H146  1  0.97927882  0.89021732  0.17753294  1
  H+  H147  1  0.39261045  0.26510043  0.99048986  1
  H+  H148  1  0.89504277  0.53594994  0.99379436  1
  H+  H149  1  0.47046247  0.60873879  0.51562550  1
  H+  H150  1  0.33949691  0.90621123  0.77245054  1
  H+  H151  1  0.57640510  0.91708659  0.39515221  1
  H+  H152  1  0.17066016  0.58285147  0.26555796  1
  H+  H153  1  0.73809909  0.11757528  0.49780615  1
  H+  H154  1  0.15133037  0.62447970  0.16766116  1
  H+  H155  1  -0.02559929  0.11183724  0.84779049  1
  H+  H156  1  0.86777348  0.19237916  0.09907765  1
  H+  H157  1  0.35300759  0.86134851  0.01180521  1
  H+  H158  1  0.09515524  0.85443338  0.49441664  1
  H+  H159  1  0.36774742  0.48540947  0.67607523  1
  H+  H160  1  0.41266980  0.12928291  0.50290568  1
  H+  H161  1  0.63137023  0.29710691  0.67274911  1
  H+  H162  1  0.63841214  0.52229133  0.84319982  1
  H+  H163  1  0.17703998  0.06827154  0.50167371  1
  H+  H164  1  0.36980996  0.74610092  0.99477562  1
  H+  H165  1  0.85565438  0.87596172  0.49715739  1
  H+  H166  1  0.84313128  0.92189908  0.77544286  1
  H+  H167  1  0.46175070  0.11248355  0.66390646  1
  H+  H168  1  0.61052170  0.62558313  0.16086350  1
  H+  H169  1  0.36412692  0.38107382  0.33605153  1
  H+  H170  1  0.33348060  0.66395224  0.77246317  1
  H+  H171  1  0.61433988  0.71996959  0.83311462  1
  H+  H172  1  0.25491598  0.87174012  0.33595962  1
  H+  H173  1  0.73376238  0.62054332  -0.00524956  1
  H+  H174  1  0.87415866  0.88402227  0.68304925  1
  H+  H175  1  0.84124733  0.18200290  0.43327096  1
  H+  H176  1  0.87660564  -0.02385809  0.33513744  1
  H+  H177  1  0.61935463  0.63519640  0.35229683  1
  H+  H178  1  0.11083041  0.23070343  0.00511259  1
  H+  H179  1  0.50009067  0.09328307  0.03005242  1
  H+  H180  1  0.37086167  0.10235180  0.66187845  1
  H+  H181  1  0.86724436  0.96925654  0.67932176  1
  H+  H182  1  0.68876646  0.91357520  0.56532963  1
  H+  H183  1  0.24404001  0.63077186  0.66097017  1
  H+  H184  1  0.60860197  0.62810822  0.83246590  1
  H+  H185  1  0.53412127  0.13093149  0.49709035  1
  H+  H186  1  0.36016487  0.87767411  0.67617756  1
  H+  H187  1  0.63731855  0.28729228  0.32933608  1
  H+  H188  1  0.93210456  0.59130928  0.89903541  1
  H+  H189  1  0.13787779  0.88518137  0.16553349  1
  H+  H190  1  0.13102694  0.29518803  0.50630533  1
  H+  H191  1  0.34880994  0.13031681  0.84303004  1
  H+  H192  1  0.51122293  0.38740857  0.49689601  1
  H+  H193  1  -0.01533215  0.86995241  0.84606332  1
  H+  H194  1  0.82737700  0.18186981  0.65918950  1
  H+  H195  1  0.90617556  0.52710809  0.84323954  1
  H+  H196  1  0.47820303  0.60944355  0.83998869  1
  H+  H197  1  0.71608191  0.24399998  1.02606118  1
  H+  H198  1  0.74688913  0.39802002  0.98749308  1
  H+  H199  1  0.98482270  0.37892708  0.16804266  1
  H+  H200  1  0.78180038  0.38769729  0.34407600  1
  H+  H201  1  -0.01845366  0.60882901  0.66682451  1
  H+  H202  1  0.67149244  0.13295549  0.88804698  1
  H+  H203  1  0.84694850  0.37758064  0.67215109  1
  H+  H204  1  0.88868605  0.78762441  0.84536194  1
  H+  H205  1  0.73124113  0.86532440  1.00042795  1
  H+  H206  1  0.28119346  0.63039817  0.15232181  1
  H+  H207  1  0.84138801  0.91636969  0.39538431  1
  H+  H208  1  0.88553126  0.01927469  0.99730490  1
  H+  H209  1  0.77764294  0.64965375  0.15621253  1
  H+  H210  1  0.73236292  0.64377289  0.33784791  1
  H+  H211  1  0.87260834  0.47506261  0.34716839  1
  H+  H212  1  0.76355481  0.14236833  0.34923411  1
  H+  H213  1  0.11796363  0.86463054  0.32954450  1
  H+  H214  1  -0.01703048  0.61036413  0.33601512  1
  H+  H215  1  0.88208498  0.62723555  0.17694085  1
  H+  H216  1  0.39114424  0.17152112  0.83881573  1
  H+  H217  1  0.89805035  0.86480783  0.32548134  1
  H+  H218  1  0.97978177  0.10402610  0.66556554  1
  H+  H219  1  0.25489012  0.88836623  0.16062885  1
  H+  H220  1  0.21668985  0.34924422  0.16063898  1
  H+  H221  1  0.40754563  0.38566719  0.65881895  1
  H+  H222  1  0.47387222  0.60819066  0.66763020  1
  H+  H223  1  0.16436874  0.82751951  0.56964462  1
  H+  H224  1  0.38984381  0.51460019  0.33390693  1
  H+  H225  1  0.62101827  0.40078136  1.00086188  1
  H+  H226  1  0.87031887  0.73776585  0.00397432  1
  H+  H227  1  -0.03059807  0.21362970  0.46876136  1
  H+  H228  1  0.74384208  0.87575984  0.16036120  1
  H+  H229  1  0.62791126  -0.01328162  1.00862120  1
  H+  H230  1  0.62797498  0.52291652  0.51040383  1
  H+  H231  1  0.36771069  0.87107519  0.83153658  1
  H+  H232  1  0.85440978  0.39050544  -0.00230001  1
  H+  H233  1  0.61441953  0.63983874  0.50696201  1
  H+  H234  1  0.12075772  0.88509397  0.83249801  1
  H+  H235  1  0.11773009  0.73870513  0.00470814  1
  H+  H236  1  0.68035405  0.07134086  0.93392437  1
  H+  H237  1  0.23058420  0.01890196  0.50473988  1
  H+  H238  1  0.34995210  -0.04204397  0.33320658  1
  H+  H239  1  0.75428461  0.11898942  0.16746284  1
  H+  H240  1  0.37315862  0.84820777  0.33093279  1
  H+  H241  1  0.55815826  0.12369802  0.82718367  1
  H+  H242  1  0.27470572  0.64342758  0.49831732  1
  H+  H243  1  0.99101376  0.10456650  0.31346358  1
  H+  H244  1  0.23453238  0.15510118  0.81955866  1
  H+  H245  1  0.35534199  0.36994646  0.15540463  1
  H+  H246  1  0.13316086  0.01852740  0.84170158  1
  H+  H247  1  0.11844604  0.96730589  0.67887330  1
  H+  H248  1  0.66512772  0.11530117  0.17946281  1
  H+  H249  1  0.87668474  0.89746575  0.83614499  1
  H+  H250  1  0.29753793  0.93325172  0.42490495  1
  H+  H251  1  0.03354731  0.61889201  0.14050709  1
  H+  H252  1  0.22776307  0.60060899  0.84895700  1
  H+  H253  1  0.64148321  0.02193553  0.32649944  1
  H+  H254  1  0.13454153  -0.00185647  0.31810340  1
  H+  H255  1  0.41683402  0.83503926  0.60767326  1
  H+  H256  1  0.23399358  0.36916852  0.50412137  1
  H+  H257  1  0.86154231  0.96782513  0.49551072  1
  H+  H258  1  0.21432836  0.87047074  0.50569971  1
  H+  H259  1  0.96306222  0.10735519  0.50765328  1
  H+  H260  1  0.39035628  0.10197789  0.31505852  1
  H+  H261  1  0.10775972  0.12305558  0.68013715  1
  H+  H262  1  0.14735738  0.27499287  0.31513682  1
  H+  H263  1  0.98393710  0.85979931  0.66441460  1
  H+  H264  1  0.61570630  0.22367076  0.50009182  1
  H+  H265  1  0.60223394  0.86235969  0.00962919  1
  H+  H266  1  0.89468235  0.36784381  0.32918536  1
  H+  H267  1  0.24953742  0.09327617  0.13993652  1
  H+  H268  1  0.52976461  0.90220772  0.83224931  1
  H+  H269  1  0.05866950  0.41703432  0.66277550  1
  H+  H270  1  0.08837991  0.93711326  0.48020645  1
  H+  H271  1  -0.02055713  0.10992124  -0.00831506  1
  H+  H272  1  0.12012555  0.78687989  0.15977227  1
  H+  H273  1  0.61040924  0.72790480  0.50997496  1
  H+  H274  1  0.46450982  0.34114126  0.16457035  1
  H+  H275  1  0.64467952  0.61640826  0.66265283  1
  H+  H276  1  0.27826212  0.13266628  -0.00149217  1
  H+  H277  1  0.61259684  -0.01829882  0.48785704  1
  H+  H278  1  0.23358307  0.36718524  0.98796576  1
  H+  H279  1  0.10459959  0.20364446  0.15481229  1
  H+  H280  1  0.77641683  0.39500613  0.16122486  1
  H+  H281  1  0.67957677  0.14273985  0.65174727  1
  H+  H282  1  0.14122929  0.35732651  0.83455118  1
  H+  H283  1  0.89350572  0.61006768  0.66552947  1
  H+  H284  1  0.65364513  0.78183470  0.15988414  1
  H+  H285  1  0.44763289  0.09725380  0.14436368  1
  H+  H286  1  0.36695878  0.37777274  0.00362623  1
  H+  H287  1  0.22631586  0.86341057  0.99705533  1
  H+  H288  1  0.11878453  0.73344521  0.33684569  1
  H+  H289  1  0.57214865  0.95279896  0.73753418  1
  H+  H290  1  0.36876729  0.64296928  0.67700942  1
  H+  H291  1  0.92526640  0.34134275  0.26842033  1
  H+  H292  1  0.77873314  0.15702962  0.75355300  1
  H+  H293  1  0.41400837  0.82012227  0.90517460  1
  H+  H294  1  0.83457660  0.42779927  0.06182332  1
  H+  H295  1  0.92314667  0.07541324  0.26036281  1
  H+  H296  1  0.57496782  0.89409155  0.07002170  1
  H+  H297  1  0.67963240  0.02883260  0.57679088  1
  H+  H298  1  0.08096239  0.16414799  0.06164028  1
  H+  H299  1  0.18037477  0.60074788  0.60096546  1
  H+  H300  1  0.32885109  0.63292244  0.09060906  1
  H+  H301  1  0.69766751  0.80547009  0.24826550  1
  H+  H302  1  0.17858300  0.06739053  0.60688328  1
  H+  H303  1  0.43736336  0.35968518  0.59681771  1
  H+  H304  1  0.08659948  0.66844065  0.43048272  1
  H+  H305  1  0.03379461  0.21647938  0.42031027  1
  H+  H306  1  0.18750378  0.35272286  0.59507699  1
  H+  H307  1  0.39089912  0.24883002  0.48053404  1
  H+  H308  1  0.86110625  0.89999853  0.15219924  1
  H+  H309  1  0.39365222  0.37771416  0.84109618  1
  H+  H310  1  0.41628641  0.32912472  0.26085307  1
  H+  H311  1  0.58097761  0.18087377  0.40138283  1
  H+  H312  1  0.41633624  0.06906682  0.25736807  1
  H+  H313  1  0.16207216  0.08097160  0.90132509  1
  H+  H314  1  0.32914386  0.65922358  0.40497114  1
  H+  H315  1  0.07615592  0.89124479  0.38719325  1
  H+  H316  1  0.09460892  0.67608939  0.08774714  1
  H+  H317  1  0.10869233  0.95038139  0.07061874  1
  H+  H318  1  0.31925228  0.90474565  0.10418821  1
  H+  H319  1  0.11298120  0.15707133  0.37910960  1
  H+  H320  1  0.17136841  0.33106777  0.89622319  1
  H+  H321  1  0.14348354  0.12145442  0.99144635  1
  H+  H322  1  0.83526850  0.92928441  0.07400455  1
  H+  H323  1  0.57233364  0.65119264  0.74379963  1
  H+  H324  1  0.91016730  0.58144596  0.28522591  1
  H+  H325  1  0.90150028  0.31939482  0.59941119  1
  H+  H326  1  0.09022756  0.66493008  0.74144048  1
  H+  H327  1  0.16056063  0.82260816  0.26911130  1
  H+  H328  1  0.33102130  0.15344604  0.05986328  1
  H+  H329  1  0.36403875  0.00366206  0.16245147  1
  H+  H330  1  0.51979445  0.88662081  0.33638888  1
  H+  H331  1  0.36080654  0.63839958  0.50049125  1
  H+  H332  1  0.67815946  0.35087632  0.89014184  1
  H+  H333  1  0.57552903  0.18133001  0.73627390  1
  H+  H334  1  0.33517640  0.40820044  0.06189853  1
  H+  H335  1  0.91756216  0.07230872  0.60601737  1
  H+  H336  1  0.42794624  0.83624445  0.23079536  1
  H+  H337  1  0.59534715  0.16937282  0.03606865  1
  H+  H338  1  0.15932645  0.32921263  0.21944468  1
  H+  H339  1  0.65674720  0.16325208  0.79899664  1
  H+  H340  1  0.68821834  0.07918189  0.26887814  1
  H+  H341  1  0.34230007  0.16607213  0.38448991  1
  H+  H342  1  0.91871194  0.83779189  0.23217663  1
  H+  H343  1  0.66722107  0.58179774  0.90341589  1
  H+  H344  1  0.83342658  0.68262279  0.77241462  1
  H+  H345  1  0.68968870  0.68699742  0.29562740  1
  H+  H346  1  0.84030186  0.67740577  0.06226513  1
  H+  H347  1  0.98479250  0.37120903  0.51475651  1
  H+  H348  1  0.41948974  0.32869253  0.93261646  1
  H+  H349  1  0.67202723  0.82031969  0.90445648  1
  H+  H350  1  0.16932630  0.84223695  0.93651990  1
  H+  H351  1  0.41787783  0.57694132  0.89912624  1
  H+  H352  1  0.32032101  0.18586933  0.73165001  1
  H+  H353  1  0.41749180  0.08419401  0.56466961  1
  H+  H354  1  0.41403709  0.58007330  0.60644945  1
  H+  H355  1  0.57466578  0.13917281  0.12913111  1
  H+  H356  1  0.42072150  0.57969568  0.27810093  1
  H+  H357  1  0.33404305  0.41295266  0.43628161  1
  H+  H358  1  0.33462899  0.42025064  0.73457898  1
  H+  H359  1  0.66521456  0.57299177  0.22694917  1
  H+  H360  1  0.58668826  0.43015311  0.73795422  1
  H+  H361  1  0.68576193  0.81227620  0.60550854  1
  H+  H362  1  0.12060930  0.63375614  0.83589994  1
  H+  H363  1  0.10483814  0.42032717  0.76390781  1
  H+  H364  1  0.98249166  0.85451877  0.32027187  1
  H+  H365  1  0.52653097  0.38911356  0.00340099  1
  H+  H366  1  0.58147521  0.66088255  0.06642083  1
  H+  H367  1  0.57947636  0.40801874  0.09808919  1
  H+  H368  1  0.57256852  0.41970917  0.43854674  1
  H+  H369  1  0.03294282  0.64694549  0.00421678  1
  H+  H370  1  0.65510640  0.33657924  0.57164709  1
  H+  H371  1  0.31362206  0.51694875  0.22363802  1
  H+  H372  1  0.91580248  0.07594735  0.91587269  1
  H+  H373  1  0.08905265  0.91154483  0.77244490  1
  H+  H374  1  0.07453515  0.15291826  0.73737390  1
  H+  H375  1  0.92445367  0.58628787  0.56732377  1
  H+  H376  1  0.66148645  0.30899694  0.98072737  1
  H+  H377  1  0.46114148  0.83291235  1.00098449  1
  H+  H378  1  0.25037529  0.23788058  0.78397846  1
  H+  H379  1  0.42683655  0.06245026  0.94289411  1
  H+  H380  1  0.57345325  0.65693689  0.42185406  1
  H+  H381  1  0.14745639  0.04253066  0.25404952  1
  H+  H382  1  0.88034758  0.01806768  0.16304055  1
  H+  H383  1  0.35279438  0.28637971  0.54507468  1
  O2-  O384  1  0.07280092  0.14501429  0.13746039  1
  O2-  O385  1  0.02705551  0.21788620  0.46423034  1
  O2-  O386  1  0.06898196  0.15890699  0.81959819  1
  O2-  O387  1  0.08822460  0.42782841  0.13397647  1
  O2-  O388  1  0.09054119  0.43090508  0.47987546  1
  O2-  O389  1  0.09746013  0.40926569  0.80778737  1
  O2-  O390  1  0.08950219  0.67035511  0.13533400  1
  O2-  O391  1  0.08406975  0.66537237  0.47665856  1
  O2-  O392  1  0.09527258  0.66723324  0.81878703  1
  O2-  O393  1  0.14785456  0.98897383  0.14030332  1
  O2-  O394  1  0.05879998  0.87561685  0.47303294  1
  O2-  O395  1  0.09083974  0.91620430  0.81783507  1
  O2-  O396  1  0.31053178  0.14084521  0.13632680  1
  O2-  O397  1  0.36855211  0.18894884  0.46423137  1
  O2-  O398  1  0.27948051  0.20661959  0.79564254  1
  O2-  O399  1  0.32583990  0.40047725  0.13918657  1
  O2-  O400  1  0.33127141  0.41414413  0.48138635  1
  O2-  O401  1  0.33429363  0.41865843  0.81021250  1
  O2-  O402  1  0.33575062  0.63749383  0.13576897  1
  O2-  O403  1  0.33504272  0.67111303  0.48269724  1
  O2-  O404  1  0.33251139  0.66103007  0.81781744  1
  O2-  O405  1  0.31634425  0.91924615  0.14742559  1
  O2-  O406  1  0.28588491  0.95204199  0.46567978  1
  O2-  O407  1  0.34151441  0.90695349  0.81797674  1
  O2-  O408  1  0.59451287  0.16119440  0.17131417  1
  O2-  O409  1  0.59442113  0.16486234  0.48237306  1
  O2-  O410  1  0.60659343  0.17264460  0.80582428  1
  O2-  O411  1  0.57479339  0.40464909  0.14360028  1
  O2-  O412  1  0.57210964  0.41944121  0.48379083  1
  O2-  O413  1  0.58195184  0.41643868  0.80724415  1
  O2-  O414  1  0.58460339  0.65980263  0.14514666  1
  O2-  O415  1  0.58017334  0.66860604  0.49486516  1
  O2-  O416  1  0.57827102  0.65832707  0.81711672  1
  O2-  O417  1  0.59946467  0.91865548  0.14103160  1
  O2-  O418  1  0.57469821  0.91949137  0.47781031  1
  O2-  O419  1  0.58401858  0.94274055  0.81181084  1
  O2-  O420  1  0.85478864  0.18163783  0.14412680  1
  O2-  O421  1  0.85856744  0.18083942  0.47965738  1
  O2-  O422  1  0.76095859  0.18043391  0.78774333  1
  O2-  O423  1  0.83604278  0.42698217  0.14436018  1
  O2-  O424  1  0.85252510  0.41746162  0.48417033  1
  O2-  O425  1  0.85217036  0.41603930  0.82234580  1
  O2-  O426  1  0.83834430  0.67932792  0.14291803  1
  O2-  O427  1  0.83083824  0.66184208  0.48256599  1
  O2-  O428  1  0.82747956  0.69829753  0.81451103  1
  O2-  O429  1  0.83142957  0.92953096  0.13675063  1
  O2-  O430  1  0.82777233  0.90773327  0.48023720  1
  O2-  O431  1  0.84395446  0.92603268  0.82097363  1
  O2-  O432  1  0.08714685  0.00238168  0.17801353  1
  O2-  O433  1  0.21974065  0.06197197  0.52493938  1
  O2-  O434  1  0.15529416  0.07936843  0.85566234  1
  O2-  O435  1  0.15589697  0.32389254  0.17445879  1
  O2-  O436  1  0.17593759  0.34928155  0.52485659  1
  O2-  O437  1  0.17056853  0.32506357  0.85053622  1
  O2-  O438  1  0.17690103  0.59119042  0.18497287  1
  O2-  O439  1  0.17073940  0.59463930  0.52464334  1
  O2-  O440  1  0.16640760  0.56756174  0.86177177  1
  O2-  O441  1  0.15206789  0.84194696  0.18146407  1
  O2-  O442  1  0.15819639  0.82597482  0.52435191  1
  O2-  O443  1  0.17253131  0.83226613  0.85805840  1
  O2-  O444  1  0.40323672  0.07153144  0.17539822  1
  O2-  O445  1  0.42615430  0.08620831  0.51987912  1
  O2-  O446  1  0.44933720  0.05958334  0.86319146  1
  O2-  O447  1  0.40481675  0.31450126  0.18114093  1
  O2-  O448  1  0.40312692  0.33507425  0.52692373  1
  O2-  O449  1  0.41952786  0.34159208  0.85337669  1
  O2-  O450  1  0.36944846  0.54659974  0.20345952  1
  O2-  O451  1  0.40940751  0.57751368  0.52882926  1
  O2-  O452  1  0.41602597  0.57765340  0.85343139  1
  O2-  O453  1  0.42992110  0.84004832  0.18609371  1
  O2-  O454  1  0.41584115  0.83914902  0.53418808  1
  O2-  O455  1  0.41857483  0.82546985  0.85984000  1
  O2-  O456  1  0.69470694  0.08200299  0.18413333  1
  O2-  O457  1  0.67856463  0.08448674  0.51295997  1
  O2-  O458  1  0.68535395  0.08717947  0.88884170  1
  O2-  O459  1  0.67029856  0.33809069  0.18974074  1
  O2-  O460  1  0.64083687  0.31942869  0.52894945  1
  O2-  O461  1  0.67321161  0.34310438  0.84497239  1
  O2-  O462  1  0.66384246  0.57220882  0.18228163  1
  O2-  O463  1  0.66304515  0.58569987  0.52045990  1
  O2-  O464  1  0.66512007  0.58223689  0.85786849  1
  O2-  O465  1  0.68225386  0.83825079  0.17990727  1
  O2-  O466  1  0.67904454  0.86284369  0.53992419  1
  O2-  O467  1  0.67040775  0.81239821  0.85956599  1
  O2-  O468  1  0.91905226  0.07963655  0.18163269  1
  O2-  O469  1  0.90598542  0.07123434  0.52589153  1
  O2-  O470  1  0.91380924  0.07714645  0.86522215  1
  O2-  O471  1  0.92699451  0.34854312  0.18741185  1
  O2-  O472  1  0.92426280  0.33900842  0.52900307  1
  O2-  O473  1  0.94247841  0.37799733  0.92586694  1
  O2-  O474  1  0.91042646  0.59618274  0.19541104  1
  O2-  O475  1  0.92061755  0.58701143  0.52215068  1
  O2-  O476  1  0.93705830  0.58890395  0.85410525  1
  O2-  O477  1  0.92084368  0.84272354  0.18641355  1
  O2-  O478  1  0.90400216  0.82029640  0.52815912  1
  O2-  O479  1  0.92590626  0.84769489  0.86300417  1
  O2-  O480  1  0.16368688  0.05682869  0.29737630  1
  O2-  O481  1  0.17138757  0.07256193  0.65070439  1
  O2-  O482  1  0.17299375  0.09051334  0.97594778  1
  O2-  O483  1  0.17385358  0.33633270  0.30347371  1
  O2-  O484  1  0.19085354  0.35817988  0.64186830  1
  O2-  O485  1  0.17396812  0.34449651  0.97245259  1
  O2-  O486  1  0.16585862  0.57661016  0.31072989  1
  O2-  O487  1  0.18205258  0.59813889  0.64669130  1
  O2-  O488  1  0.16085091  0.48868387  0.97379991  1
  O2-  O489  1  0.16104146  0.82258848  0.31375518  1
  O2-  O490  1  0.16686699  0.82722455  0.64849722  1
  O2-  O491  1  0.16698355  0.84520744  0.98184845  1
  O2-  O492  1  0.41963190  0.07016805  0.30234991  1
  O2-  O493  1  0.40342916  0.07522343  0.64667881  1
  O2-  O494  1  0.41484467  0.06210831  0.98719536  1
  O2-  O495  1  0.41948007  0.33259032  0.30619252  1
  O2-  O496  1  0.44323044  0.36159657  0.64352592  1
  O2-  O497  1  0.42167412  0.32692136  0.97793151  1
  O2-  O498  1  0.42277352  0.57783174  0.32323252  1
  O2-  O499  1  0.41263532  0.58028672  0.65210299  1
  O2-  O500  1  0.42088334  0.57423515  0.97547135  1
  O2-  O501  1  0.40872000  0.82381277  0.31595526  1
  O2-  O502  1  0.41328632  0.83211893  0.65383638  1
  O2-  O503  1  0.40161372  0.80796898  0.98362782  1
  O2-  O504  1  0.67752477  0.08290897  0.31250251  1
  O2-  O505  1  0.68945863  -0.00588043  0.60787887  1
  O2-  O506  1  0.66530446  0.05083618  1.00376239  1
  O2-  O507  1  0.67528117  0.34687139  0.31145029  1
  O2-  O508  1  0.66675939  0.35765170  0.65819415  1
  O2-  O509  1  0.68597028  0.36844663  0.96766440  1
  O2-  O510  1  0.67290850  0.62868351  0.31586064  1
  O2-  O511  1  0.69606066  0.63755070  0.63610379  1
  O2-  O512  1  0.67228289  0.58975180  0.98072195  1
  O2-  O513  1  0.70676406  0.78013278  0.28620310  1
  O2-  O514  1  0.69588749  0.78736411  0.64291146  1
  O2-  O515  1  0.67137747  0.83106520  0.98364762  1
  O2-  O516  1  0.92898815  0.07412321  0.30559688  1
  O2-  O517  1  0.91766082  0.07179778  0.65125519  1
  O2-  O518  1  0.91865689  0.07936657  0.97642673  1
  O2-  O519  1  0.92627512  0.33850472  0.31360408  1
  O2-  O520  1  0.87874204  0.30337255  0.64292302  1
  O2-  O521  1  0.87210543  0.32865720  0.96755191  1
  O2-  O522  1  0.92002235  0.57313501  0.32783344  1
  O2-  O523  1  0.92215127  0.57836281  0.64953425  1
  O2-  O524  1  0.92826598  0.59635911  0.97861997  1
  O2-  O525  1  0.92027425  0.82802751  0.30781089  1
  O2-  O526  1  0.92205735  0.83041333  0.65206542  1
  O2-  O527  1  0.92396820  0.84367225  0.98617894  1
  O2-  O528  1  0.08414545  0.16903173  0.01584254  1
  O2-  O529  1  0.11097502  0.16313484  0.33525398  1
  O2-  O530  1  0.07634978  0.15260866  0.69226959  1
  O2-  O531  1  0.08471771  0.47251663  0.00975870  1
  O2-  O532  1  0.08899907  0.41268162  0.35463398  1
  O2-  O533  1  0.11697561  0.44154509  0.67828804  1
  O2-  O534  1  0.09315696  0.67871875  0.01977223  1
  O2-  O535  1  0.08820201  0.67068724  0.35554623  1
  O2-  O536  1  0.08719193  0.66572937  0.69562765  1
  O2-  O537  1  0.09368285  0.93507625  0.02614955  1
  O2-  O538  1  0.08409144  0.89968178  0.34298481  1
  O2-  O539  1  0.08576099  0.90691535  0.69369576  1
  O2-  O540  1  0.33842587  0.15721330  0.01433714  1
  O2-  O541  1  0.33868967  0.16300189  0.33929974  1
  O2-  O542  1  0.33626473  0.17728873  0.68963701  1
  O2-  O543  1  0.33841258  0.41067781  0.01639693  1
  O2-  O544  1  0.33565019  0.41221127  0.35313359  1
  O2-  O545  1  0.33683651  0.42188662  0.68846247  1
  O2-  O546  1  0.31579297  0.63167619  0.01308148  1
  O2-  O547  1  0.32685025  0.65387633  0.35951840  1
  O2-  O548  1  0.33846984  0.67277502  0.69252485  1
  O2-  O549  1  0.32462301  0.89425083  0.02601172  1
  O2-  O550  1  0.31582921  0.90326149  0.35545792  1
  O2-  O551  1  0.32829318  0.90656138  0.69344360  1
  O2-  O552  1  0.55469257  0.11463823  0.05458971  1
  O2-  O553  1  0.57158835  0.19837789  0.36069148  1
  O2-  O554  1  0.56611106  0.18884936  0.69186320  1
  O2-  O555  1  0.58590026  0.42309795  0.02059514  1
  O2-  O556  1  0.58243474  0.42822129  0.35526451  1
  O2-  O557  1  0.59352910  0.43726362  0.69120969  1
  O2-  O558  1  0.58261938  0.66364476  0.02115834  1
  O2-  O559  1  0.57155943  0.64899152  0.37632170  1
  O2-  O560  1  0.56912060  0.64591123  0.69773388  1
  O2-  O561  1  0.56464376  0.88495303  0.02455919  1
  O2-  O562  1  0.58049994  0.91790089  0.35031835  1
  O2-  O563  1  0.55731653  0.95678180  0.69403705  1
  O2-  O564  1  0.90207482  0.21719229  0.03023644  1
  O2-  O565  1  0.82004239  0.18153923  0.37097828  1
  O2-  O566  1  0.80915335  0.12652340  0.67960326  1
  O2-  O567  1  0.83412301  0.43174896  0.01673396  1
  O2-  O568  1  0.84128940  0.41212680  0.35989553  1
  O2-  O569  1  0.82801999  0.41505357  0.69182758  1
  O2-  O570  1  0.83877719  0.67573503  0.01699388  1
  O2-  O571  1  0.81713510  0.67261117  0.35914920  1
  O2-  O572  1  0.84491630  0.66553491  0.69179235  1
  O2-  O573  1  0.83597929  0.92901865  0.02384936  1
  O2-  O574  1  0.84746427  0.91508374  0.35078391  1
  O2-  O575  1  0.83996184  0.91051982  0.69792351  1
