# generated using pymatgen
data_H2O
_symmetry_space_group_name_H-M   'P 1'
_cell_length_a   18.00168531
_cell_length_b   17.99835590
_cell_length_c   22.00734276
_cell_angle_alpha   89.99585779
_cell_angle_beta   89.98646107
_cell_angle_gamma   119.98053591
_symmetry_Int_Tables_number   1
_chemical_formula_structural   H2O
_chemical_formula_sum   'H384 O192'
_cell_volume   6176.31394962
_cell_formula_units_Z   192
loop_
 _symmetry_equiv_pos_site_id
 _symmetry_equiv_pos_as_xyz
  1  'x, y, z'
loop_
 _atom_type_symbol
 _atom_type_oxidation_number
  H+  1.0
  O2-  -2.0
loop_
 _atom_site_type_symbol
 _atom_site_label
 _atom_site_symmetry_multiplicity
 _atom_site_fract_x
 _atom_site_fract_y
 _atom_site_fract_z
 _atom_site_occupancy
  H+  H0  1  0.51531305  0.13103191  -0.00071277  1
  H+  H1  1  0.22578018  0.61629069  0.83430381  1
  H+  H2  1  0.77651737  0.39129258  0.82385781  1
  H+  H3  1  0.37863463  0.89642497  0.15485722  1
  H+  H4  1  0.13580589  0.15401239  0.98681425  1
  H+  H5  1  0.28577823  0.14465601  0.16268622  1
  H+  H6  1  0.75521542  0.85655842  0.32285286  1
  H+  H7  1  0.84030318  0.48612205  0.47194756  1
  H+  H8  1  0.16498033  0.27406450  0.34732524  1
  H+  H9  1  0.11569257  0.47898536  0.99610086  1
  H+  H10  1  0.67092867  0.49937235  0.82605859  1
  H+  H11  1  0.36420628  0.13970627  0.67192652  1
  H+  H12  1  0.66825760  0.58453146  0.23121521  1
  H+  H13  1  0.89489255  0.86933736  0.66643064  1
  H+  H14  1  0.26396832  0.88727216  0.49387392  1
  H+  H15  1  0.28286149  0.38866953  0.00049407  1
  H+  H16  1  0.57426985  0.16571362  0.73849014  1
  H+  H17  1  0.15307437  0.01637813  0.99495182  1
  H+  H18  1  0.02981856  0.63711061  0.32997388  1
  H+  H19  1  0.98453084  0.17641012  0.54048015  1
  H+  H20  1  0.47367477  0.95539055  0.28515176  1
  H+  H21  1  0.46644514  0.10826707  0.66563254  1
  H+  H22  1  0.85700390  0.13848829  0.16961957  1
  H+  H23  1  0.36361905  0.63534574  0.15912519  1
  H+  H24  1  0.35589533  0.13526350  0.50352188  1
  H+  H25  1  0.87683316  0.01638564  0.66392289  1
  H+  H26  1  0.60311749  0.86377577  0.80309855  1
  H+  H27  1  0.89120855  0.75056537  0.49612794  1
  H+  H28  1  0.53789132  0.39724868  0.15298516  1
  H+  H29  1  0.51226574  0.38167697  0.49672178  1
  H+  H30  1  0.41250757  0.58579176  0.93085276  1
  H+  H31  1  0.87990107  0.36119135  0.16186086  1
  H+  H32  1  0.35405051  0.63097038  0.00215966  1
  H+  H33  1  0.12439351  0.73007737  0.12747677  1
  H+  H34  1  0.62344401  0.48533350  -0.01051409  1
  H+  H35  1  0.11124985  0.50259088  0.66017264  1
  H+  H36  1  0.86182052  0.76805899  0.82152595  1
  H+  H37  1  0.84423477  0.35315254  -0.00225152  1
  H+  H38  1  0.10249541  0.21298259  0.82880112  1
  H+  H39  1  0.90638156  0.52958974  0.14314897  1
  H+  H40  1  0.91159786  0.83089842  0.57789852  1
  H+  H41  1  0.14828855  0.11634907  0.17972053  1
  H+  H42  1  0.05707886  0.17599965  0.39374932  1
  H+  H43  1  0.36624397  0.22306510  0.82599084  1
  H+  H44  1  0.87287068  0.56497109  0.96279353  1
  H+  H45  1  0.22939060  0.10986314  0.83871210  1
  H+  H46  1  0.30514544  0.64506196  0.41094408  1
  H+  H47  1  0.37895836  0.47726463  0.34802001  1
  H+  H48  1  0.39000837  0.77246722  0.17053639  1
  H+  H49  1  0.37527570  0.23340152  0.15954169  1
  H+  H50  1  0.83602072  0.94777890  0.33519369  1
  H+  H51  1  0.12597804  0.40072476  0.48606581  1
  H+  H52  1  0.35984933  -0.02367420  0.67035227  1
  H+  H53  1  0.59609881  0.40630754  0.74020109  1
  H+  H54  1  0.87128427  0.75252969  0.17792677  1
  H+  H55  1  0.72540134  0.61076959  0.32605204  1
  H+  H56  1  0.61558944  0.96978823  0.34215783  1
  H+  H57  1  0.63068499  0.78257720  0.99417778  1
  H+  H58  1  0.02004014  0.25855993  0.04769809  1
  H+  H59  1  0.64687252  0.53259464  0.16751745  1
  H+  H60  1  0.01858093  0.91801586  0.01191478  1
  H+  H61  1  0.39583538  0.65991547  0.67314072  1
  H+  H62  1  0.83520215  0.91584879  0.08171666  1
  H+  H63  1  0.21760596  -0.04173641  0.96582036  1
  H+  H64  1  0.65827608  0.83515313  0.60792667  1
  H+  H65  1  0.82391656  0.31238349  0.52918690  1
  H+  H66  1  0.61997140  0.26635136  0.65387853  1
  H+  H67  1  0.76926847  0.88742166  0.51002880  1
  H+  H68  1  0.12506412  0.63940089  0.15045820  1
  H+  H69  1  0.84687511  0.67663840  0.40031240  1
  H+  H70  1  0.22155885  0.61222769  0.98795989  1
  H+  H71  1  0.88118794  0.26142176  0.99574197  1
  H+  H72  1  0.53800127  0.37188016  0.83597664  1
  H+  H73  1  0.01950212  0.89531496  0.34311908  1
  H+  H74  1  0.13635722  0.40163756  0.15596676  1
  H+  H75  1  0.71112140  0.85167336  0.83195065  1
  H+  H76  1  0.48449432  0.36598575  -0.00971727  1
  H+  H77  1  0.32201295  0.95089123  0.00671104  1
  H+  H78  1  0.91818844  0.56708844  0.59552578  1
  H+  H79  1  0.13541453  0.61465883  0.83423218  1
  H+  H80  1  0.01453770  0.12531158  0.84386750  1
  H+  H81  1  0.70643632  0.36136678  0.49692866  1
  H+  H82  1  0.70210357  0.63718772  0.98273587  1
  H+  H83  1  0.81090402  0.39534875  0.31485607  1
  H+  H84  1  0.71333282  0.10829386  0.17520746  1
  H+  H85  1  0.85693553  0.12167039  0.68228693  1
  H+  H86  1  0.57919319  0.17515177  0.05756329  1
  H+  H87  1  0.84520525  0.44109189  0.98837572  1
  H+  H88  1  0.83980856  0.12212514  0.01621829  1
  H+  H89  1  0.11173231  0.47905402  0.82865094  1
  H+  H90  1  -0.03154933  0.60162635  0.50261623  1
  H+  H91  1  0.61565455  0.51026852  0.51635979  1
  H+  H92  1  0.37884492  0.40408227  0.67790646  1
  H+  H93  1  0.13798859  0.10405856  0.84976340  1
  H+  H94  1  0.39630287  0.36452106  0.32957754  1
  H+  H95  1  0.88368996  0.86240779  0.99512442  1
  H+  H96  1  0.59301475  0.11931754  0.34008983  1
  H+  H97  1  0.46956411  0.10351569  0.51014059  1
  H+  H98  1  0.49946044  0.65369804  0.00738689  1
  H+  H99  1  0.59941894  0.13414937  0.67810534  1
  H+  H100  1  0.63512122  0.86320880  0.51370186  1
  H+  H101  1  -0.06728149  0.37847574  0.32949743  1
  H+  H102  1  0.11841513  0.87267556  0.50819013  1
  H+  H103  1  0.77006722  0.88874457  0.67531615  1
  H+  H104  1  0.36945670  1.02107176  0.32548698  1
  H+  H105  1  0.15831100  0.83884955  0.41760378  1
  H+  H106  1  -0.01640458  0.60450374  0.65485131  1
  H+  H107  1  0.61833723  0.88556508  0.15752093  1
  H+  H108  1  0.85378740  0.22862025  0.16695639  1
  H+  H109  1  0.52034109  0.62573892  0.34030096  1
  H+  H110  1  0.87873902  0.02101747  1.00838692  1
  H+  H111  1  0.25558258  0.67675952  0.49385780  1
  H+  H112  1  0.26218102  0.88614228  0.35225045  1
  H+  H113  1  0.61205967  0.97223434  0.15738679  1
  H+  H114  1  0.05083417  0.38185032  0.32586160  1
  H+  H115  1  0.13880138  0.61742004  0.32541917  1
  H+  H116  1  0.61860465  0.64298321  0.49486416  1
  H+  H117  1  0.39525086  0.11083848  -0.00441887  1
  H+  H118  1  0.58598150  0.24196085  0.32144498  1
  H+  H119  1  0.03128275  0.88707601  0.67574873  1
  H+  H120  1  0.57356162  0.54751983  0.55871773  1
  H+  H121  1  0.20502952  0.57779308  0.66134152  1
  H+  H122  1  0.66403552  0.08911588  0.59829465  1
  H+  H123  1  0.71315715  0.17578144  0.63134256  1
  H+  H124  1  0.86216758  0.22960595  0.83509621  1
  H+  H125  1  0.61071533  0.62789333  0.33756154  1
  H+  H126  1  0.36674220  -0.02428269  0.82541936  1
  H+  H127  1  0.39596799  0.52710707  0.51760826  1
  H+  H128  1  0.92903979  0.07488436  0.35950470  1
  H+  H129  1  0.47649552  0.10932816  0.84272948  1
  H+  H130  1  0.47425957  0.61075239  0.17530907  1
  H+  H131  1  0.40061681  0.36370670  0.83814693  1
  H+  H132  1  0.29417550  0.89915710  0.14041256  1
  H+  H133  1  0.14618108  0.53912815  0.50113529  1
  H+  H134  1  0.86011258  0.63220006  0.34299505  1
  H+  H135  1  0.52123827  0.87370261  0.80175427  1
  H+  H136  1  0.88105311  0.85366851  0.32050112  1
  H+  H137  1  0.60878712  0.97242340  0.49475103  1
  H+  H138  1  0.20117947  0.85026519  0.07444565  1
  H+  H139  1  0.22914561  0.36173327  0.52350150  1
  H+  H140  1  0.11885281  0.88288793  0.82038189  1
  H+  H141  1  0.16631339  0.36129676  0.34078097  1
  H+  H142  1  0.71694374  0.09924405  0.83253670  1
  H+  H143  1  0.40216365  0.36925476  0.16967562  1
  H+  H144  1  0.71532442  0.09662857  0.49903974  1
  H+  H145  1  0.39700330  0.27503139  0.99334782  1
  H+  H146  1  0.49325476  0.85804638  0.52018606  1
  H+  H147  1  0.37118024  0.38752042  1.00200805  1
  H+  H148  1  0.39424766  0.11820733  0.17112427  1
  H+  H149  1  0.73190439  0.62209090  0.68124546  1
  H+  H150  1  0.14577108  0.53004118  0.16544599  1
  H+  H151  1  0.00918030  0.89811726  0.50448155  1
  H+  H152  1  0.87493052  0.86012415  0.51978761  1
  H+  H153  1  0.52180770  0.73309303  0.04888382  1
  H+  H154  1  0.63825431  0.77615936  0.51291213  1
  H+  H155  1  0.96546366  0.10621277  0.67547655  1
  H+  H156  1  0.28468940  0.15366900  0.66401910  1
  H+  H157  1  0.03458272  0.88680624  0.16725328  1
  H+  H158  1  0.39238611  0.78222647  0.52258580  1
  H+  H159  1  0.62158087  0.75625697  0.32498023  1
  H+  H160  1  0.37668911  0.61230507  0.84407668  1
  H+  H161  1  0.36282254  0.73024734  0.82654411  1
  H+  H162  1  0.57523819  0.67104274  0.10178780  1
  H+  H163  1  0.93798504  0.68483931  0.04012954  1
  H+  H164  1  0.13918904  0.86435865  0.66267864  1
  H+  H165  1  0.89048388  0.61550932  0.50815814  1
  H+  H166  1  0.39126704  0.52642682  -0.00804412  1
  H+  H167  1  0.35550344  0.89669777  0.33492211  1
  H+  H168  1  0.12400212  0.86932886  0.36354862  1
  H+  H169  1  0.71145541  0.10941421  0.31650715  1
  H+  H170  1  0.11017284  0.98533818  0.34552817  1
  H+  H171  1  0.34159330  0.41656211  0.09640805  1
  H+  H172  1  0.23447098  0.85927510  0.83131368  1
  H+  H173  1  0.85154602  0.14442774  0.31902353  1
  H+  H174  1  0.72788356  0.34522594  -0.02694309  1
  H+  H175  1  0.24360148  0.39053347  0.67766161  1
  H+  H176  1  0.11315698  0.72455437  0.66731931  1
  H+  H177  1  0.41053636  0.07882778  0.60366508  1
  H+  H178  1  1.04563610  0.09455414  0.51746901  1
  H+  H179  1  0.38471456  0.52724563  0.84458180  1
  H+  H180  1  0.61318200  0.72715059  0.68348257  1
  H+  H181  1  0.28488024  0.38533317  0.15729097  1
  H+  H182  1  0.09599997  0.11702446  -0.00009721  1
  H+  H183  1  1.02812856  0.38816531  1.00198097  1
  H+  H184  1  0.39404105  0.86439779  0.83191246  1
  H+  H185  1  0.10740342  0.72916789  0.35230117  1
  H+  H186  1  0.11869206  0.01416468  0.65440286  1
  H+  H187  1  0.15320676  0.26890639  0.53523375  1
  H+  H188  1  0.41983515  0.74733261  0.35232966  1
  H+  H189  1  0.60874736  0.12516340  0.82640487  1
  H+  H190  1  0.12387267  -0.02515368  0.16806517  1
  H+  H191  1  0.38657540  0.77127934  -0.01621670  1
  H+  H192  1  0.61384297  0.22803352  0.15603033  1
  H+  H193  1  0.14625701  0.86118048  0.12772618  1
  H+  H194  1  0.64318848  0.60864851  0.92409852  1
  H+  H195  1  1.09610360  0.61644490  0.98941330  1
  H+  H196  1  0.59927839  0.37872199  0.49538366  1
  H+  H197  1  0.08391737  0.48091660  0.33266484  1
  H+  H198  1  0.07125264  0.41807982  0.77084220  1
  H+  H199  1  0.59728353  0.37606146  0.34034664  1
  H+  H200  1  0.64078781  0.61785620  0.83493188  1
  H+  H201  1  0.01094728  0.37000978  0.67761503  1
  H+  H202  1  0.35396318  0.42894468  0.77063017  1
  H+  H203  1  0.48841848  0.62511760  0.66744272  1
  H+  H204  1  0.38051177  0.26996009  0.51805195  1
  H+  H205  1  0.96846200  0.10852304  0.17831556  1
  H+  H206  1  -0.04653420  0.12103840  0.00398790  1
  H+  H207  1  0.38750360  0.52094478  0.17124027  1
  H+  H208  1  0.39609460  0.28413831  0.66943680  1
  H+  H209  1  0.32263068  0.68417062  0.66162129  1
  H+  H210  1  0.84677092  0.16760843  0.45067236  1
  H+  H211  1  0.27753497  0.64075425  0.15854448  1
  H+  H212  1  0.88860581  0.86529125  0.18155466  1
  H+  H213  1  0.36388772  0.22885379  0.34306885  1
  H+  H214  1  0.78560526  0.40601809  0.14950392  1
  H+  H215  1  0.62209858  0.90484373  1.00011676  1
  H+  H216  1  0.61501930  0.63926498  0.68409397  1
  H+  H217  1  0.50252100  0.11789638  0.34214163  1
  H+  H218  1  0.87036393  0.38104849  0.67604139  1
  H+  H219  1  0.62761853  0.25920240  0.97079571  1
  H+  H220  1  0.01681297  0.62782389  0.14588777  1
  H+  H221  1  0.70907209  0.82995406  0.94747893  1
  H+  H222  1  0.66038626  0.39602255  0.17678681  1
  H+  H223  1  0.67341417  0.58301288  0.62111088  1
  H+  H224  1  0.77225131  0.88119765  0.17265676  1
  H+  H225  1  0.15704860  0.58306360  0.56617738  1
  H+  H226  1  0.77326737  0.89012116  0.02388530  1
  H+  H227  1  0.83572535  0.87752860  0.82738955  1
  H+  H228  1  0.35864909  0.13795466  0.34312845  1
  H+  H229  1  0.39385235  0.87945933  0.66392628  1
  H+  H230  1  0.52577300  0.88836823  0.34056955  1
  H+  H231  1  0.14592677  0.37649039  0.98026970  1
  H+  H232  1  0.48669092  0.37126751  0.67049733  1
  H+  H233  1  0.58305480  0.41788991  0.40194445  1
  H+  H234  1  0.63665026  0.77188988  0.17147846  1
  H+  H235  1  0.85966106  -0.02781512  0.17598110  1
  H+  H236  1  0.05855625  0.17697598  0.09928631  1
  H+  H237  1  0.79624388  0.63252622  0.78127906  1
  H+  H238  1  0.10356830  0.64058312  0.49628693  1
  H+  H239  1  0.84001828  0.63945860  0.02476287  1
  H+  H240  1  0.77639712  0.44152753  0.35660035  1
  H+  H241  1  0.65854960  0.82611654  0.23275814  1
  H+  H242  1  0.62546905  0.84830078  0.32748826  1
  H+  H243  1  0.62326351  0.47833617  0.68849278  1
  H+  H244  1  0.77049140  0.64721385  0.17118133  1
  H+  H245  1  0.18654983  0.12396334  0.56930555  1
  H+  H246  1  0.97693111  0.60932506  0.82386972  1
  H+  H247  1  0.29232302  0.12745320  0.00226476  1
  H+  H248  1  0.08145651  0.11769254  0.68373569  1
  H+  H249  1  0.88783781  0.49141415  0.66336130  1
  H+  H250  1  0.13277683  0.36111080  0.81547057  1
  H+  H251  1  0.71936768  0.11775988  1.00729175  1
  H+  H252  1  0.88944395  0.77866038  0.67313309  1
  H+  H253  1  0.61360907  0.63786048  0.15592147  1
  H+  H254  1  0.47363775  0.86040762  -0.01336395  1
  H+  H255  1  0.85207395  0.28620776  0.31791668  1
  H+  H256  1  0.60404768  0.21740828  0.49223312  1
  H+  H257  1  0.38099972  0.49544648  0.67841202  1
  H+  H258  1  0.63873773  0.51986997  0.32581011  1
  H+  H259  1  0.84613508  -0.02739089  0.83089466  1
  H+  H260  1  0.41900017  0.80243052  0.67312382  1
  H+  H261  1  0.14563041  0.27304112  0.17821185  1
  H+  H262  1  0.62102319  0.36127376  0.84943674  1
  H+  H263  1  0.82866261  0.17553059  0.25843258  1
  H+  H264  1  0.86433393  0.10676998  0.49172409  1
  H+  H265  1  0.84926843  0.06847825  0.39323725  1
  H+  H266  1  0.48288407  0.61722401  0.51107859  1
  H+  H267  1  0.88155178  0.11288207  0.84861847  1
  H+  H268  1  0.86004387  0.97067825  0.51687682  1
  H+  H269  1  0.90148867  0.78518914  -0.00189923  1
  H+  H270  1  0.97455947  0.36906457  0.84516646  1
  H+  H271  1  0.21004301  0.58910692  0.33179105  1
  H+  H272  1  0.36120134  0.38454239  0.50866788  1
  H+  H273  1  0.86549402  0.48168515  0.81620220  1
  H+  H274  1  0.60536498  0.88568415  0.70798432  1
  H+  H275  1  0.87457471  0.25165677  0.67136456  1
  H+  H276  1  0.16325975  0.32221970  0.76439749  1
  H+  H277  1  0.63147115  0.35908490  0.65394333  1
  H+  H278  1  0.43494785  0.74681376  0.32059336  1
  H+  H279  1  0.14471055  0.12054210  0.33651758  1
  H+  H280  1  0.52219378  0.14200970  0.15752713  1
  H+  H281  1  0.83298922  0.40343519  0.44203384  1
  H+  H282  1  0.62607412  1.02293970  0.00202599  1
  H+  H283  1  0.63166158  0.10872061  0.50132060  1
  H+  H284  1  0.97129839  0.52219244  0.27396895  1
  H+  H285  1  0.88609764  0.51800535  0.29492083  1
  H+  H286  1  0.11814492  0.97043552  0.82415435  1
  H+  H287  1  0.11331874  0.63457067  0.66964267  1
  H+  H288  1  0.09480891  0.92033486  0.73300683  1
  H+  H289  1  0.88874131  0.81330765  0.88721134  1
  H+  H290  1  0.62659598  0.69515259  0.85228882  1
  H+  H291  1  0.32754818  0.91630511  0.43741799  1
  H+  H292  1  0.33874339  0.67267641  0.76782630  1
  H+  H293  1  0.06443918  0.64023779  0.04882667  1
  H+  H294  1  0.83866148  0.42074192  0.73061693  1
  H+  H295  1  0.59078722  0.67085891  0.43374884  1
  H+  H296  1  0.26147986  0.54513694  0.40916353  1
  H+  H297  1  0.91834484  0.08640440  0.24144378  1
  H+  H298  1  0.61315327  0.29926458  0.26128364  1
  H+  H299  1  0.65347933  0.32512421  0.56113756  1
  H+  H300  1  0.08893699  0.42803074  0.42932490  1
  H+  H301  1  0.90050489  0.07425166  0.90788503  1
  H+  H302  1  0.42366404  0.32974844  0.89775104  1
  H+  H303  1  0.76767813  0.12193203  0.68486916  1
  H+  H304  1  0.40890239  0.08281443  0.26634719  1
  H+  H305  1  0.88516390  0.36810772  0.84279312  1
  H+  H306  1  0.23232361  0.11919703  0.33399560  1
  H+  H307  1  0.11403473  0.77911176  0.50564749  1
  H+  H308  1  0.07315283  0.66226057  0.43395390  1
  H+  H309  1  0.82668998  0.91848482  0.73504706  1
  H+  H310  1  0.81704122  0.15962284  0.07602240  1
  H+  H311  1  0.58067855  0.90929269  0.43677496  1
  H+  H312  1  0.41817552  0.33459373  0.57592968  1
  H+  H313  1  0.33332784  0.16460511  0.76663470  1
  H+  H314  1  0.62455140  0.10745340  0.16881507  1
  H+  H315  1  0.72517169  0.57400596  0.87202199  1
  H+  H316  1  0.32880176  0.16828710  0.44607658  1
  H+  H317  1  0.38712127  0.10891408  0.84091521  1
  H+  H318  1  0.42826818  0.86445397  0.25554846  1
  H+  H319  1  0.39742140  0.02978239  0.17007256  1
  H+  H320  1  0.11667393  0.15516561  0.43253304  1
  H+  H321  1  0.19235700  0.05605579  0.92888016  1
  H+  H322  1  0.63303048  0.01132682  0.81552037  1
  H+  H323  1  0.16633427  0.58774010  0.22621258  1
  H+  H324  1  0.29426652  0.38646290  0.34945916  1
  H+  H325  1  0.41749626  0.07541622  0.93567455  1
  H+  H326  1  0.57041474  0.15345116  0.43499345  1
  H+  H327  1  0.42667257  0.83367650  0.88908195  1
  H+  H328  1  0.34414795  0.16911728  0.06442600  1
  H+  H329  1  0.93949934  0.58245938  0.20618708  1
  H+  H330  1  0.89600433  0.40401506  0.54548306  1
  H+  H331  1  0.08597705  0.66933141  0.76277493  1
  H+  H332  1  0.29991177  0.76783029  0.46124390  1
  H+  H333  1  0.37791653  0.59485750  0.33227558  1
  H+  H334  1  0.62430488  0.39737008  -0.01179356  1
  H+  H335  1  0.95384826  0.73346187  0.45728828  1
  H+  H336  1  0.91196276  0.32350280  0.93617422  1
  H+  H337  1  0.28450876  0.38651527  0.82134784  1
  H+  H338  1  0.58865293  0.92050083  0.06405967  1
  H+  H339  1  0.92939784  0.09767294  0.58410884  1
  H+  H340  1  0.43179220  0.34023841  0.22953713  1
  H+  H341  1  0.63627076  0.82520204  0.88124345  1
  H+  H342  1  0.85038970  0.67765179  0.12064233  1
  H+  H343  1  0.72114576  0.40401820  0.23322111  1
  H+  H344  1  0.42838433  0.59652609  0.60634948  1
  H+  H345  1  0.89321092  0.77093909  0.32541209  1
  H+  H346  1  0.82774666  0.41070680  0.08423407  1
  H+  H347  1  0.06639466  0.93037218  0.44310833  1
  H+  H348  1  0.64419681  0.06854465  0.26453154  1
  H+  H349  1  0.19042080  0.80559232  0.24669891  1
  H+  H350  1  0.16459374  0.83676201  0.60101257  1
  H+  H351  1  0.17640273  0.08998322  0.24045668  1
  H+  H352  1  0.10707723  0.42872470  0.09538222  1
  H+  H353  1  0.09200395  0.25566432  0.00995469  1
  H+  H354  1  0.08894172  0.04102412  0.49597812  1
  H+  H355  1  0.18127270  0.33050488  0.23677630  1
  H+  H356  1  0.33703779  0.41702078  0.44889989  1
  H+  H357  1  0.61419925  0.21478584  0.84382463  1
  H+  H358  1  0.89991486  0.31237991  0.61115549  1
  H+  H359  1  0.48106955  0.85928279  0.16633270  1
  H+  H360  1  0.89043633  0.33719245  0.22912834  1
  H+  H361  1  0.11546879  0.72589204  0.82381877  1
  H+  H362  1  0.59906466  0.42833937  0.09364151  1
  H+  H363  1  0.05226265  0.08980810  0.11290404  1
  H+  H364  1  0.62393878  0.11947839  1.00039406  1
  H+  H365  1  0.32815385  0.66445724  0.06124124  1
  H+  H366  1  0.27388841  0.88302374  0.66965982  1
  H+  H367  1  0.48179551  0.36191390  0.32733329  1
  H+  H368  1  0.92165132  0.56512545  0.88183969  1
  H+  H369  1  0.43843776  0.84671758  0.60298341  1
  H+  H370  1  0.10959922  0.38835401  0.68269086  1
  H+  H371  1  0.38073179  1.01497785  0.51157321  1
  H+  H372  1  0.96556410  0.57486993  0.98140724  1
  H+  H373  1  0.33891559  0.91915909  0.76402727  1
  H+  H374  1  0.41113628  0.57669462  0.26866576  1
  H+  H375  1  0.07413487  0.94216224  0.07303243  1
  H+  H376  1  0.16630812  0.58227946  0.92576823  1
  H+  H377  1  0.83601391  0.16675748  0.77762079  1
  H+  H378  1  0.17145396  0.33364361  0.92638076  1
  H+  H379  1  0.14857272  0.80498596  0.24320749  1
  H+  H380  1  0.18273389  0.84118727  0.89195745  1
  H+  H381  1  0.92211952  0.83306196  0.24042339  1
  H+  H382  1  0.05773226  0.14025525  0.74874821  1
  H+  H383  1  0.17329326  0.33978452  0.62762850  1
  O2-  O384  1  0.05952946  0.14089608  0.13411084  1
  O2-  O385  1  0.09842846  0.10070827  0.49910752  1
  O2-  O386  1  0.07428553  0.14952887  0.82794969  1
  O2-  O387  1  0.11101622  0.43514778  0.14015550  1
  O2-  O388  1  0.13233728  0.44968148  0.46197348  1
  O2-  O389  1  0.07733599  0.41711080  0.81594470  1
  O2-  O390  1  0.09081596  0.66387414  0.12956672  1
  O2-  O391  1  0.07006246  0.66658293  0.47902844  1
  O2-  O392  1  0.08432844  0.66544069  0.80788463  1
  O2-  O393  1  0.09209529  0.91743358  0.14852485  1
  O2-  O394  1  0.06944546  0.93361586  0.48838668  1
  O2-  O395  1  0.09019802  0.91347483  0.80401735  1
  O2-  O396  1  0.34418531  0.17271786  0.14471531  1
  O2-  O397  1  0.32847802  0.16885570  0.49098878  1
  O2-  O398  1  0.33371045  0.16210805  0.81195041  1
  O2-  O399  1  0.34462218  0.41783382  0.14200554  1
  O2-  O400  1  0.33106114  0.41559026  0.49384124  1
  O2-  O401  1  0.34735590  0.41987725  0.81588552  1
  O2-  O402  1  0.33753967  0.66902621  0.14291892  1
  O2-  O403  1  0.30810918  0.71922272  0.47117547  1
  O2-  O404  1  0.32871998  0.66856694  0.81222139  1
  O2-  O405  1  0.35713105  0.93461437  0.14069044  1
  O2-  O406  1  0.32378544  0.90614822  0.48201513  1
  O2-  O407  1  0.33847484  0.91568396  0.80917999  1
  O2-  O408  1  0.58211904  0.17025033  0.13876408  1
  O2-  O409  1  0.57618226  0.15536018  0.48040710  1
  O2-  O410  1  0.58138759  0.16181295  0.81909701  1
  O2-  O411  1  0.59908478  0.43094603  0.13881461  1
  O2-  O412  1  0.57291534  0.41332206  0.48120806  1
  O2-  O413  1  0.59873200  0.39295048  0.82406306  1
  O2-  O414  1  0.58058675  0.66735109  0.14654626  1
  O2-  O415  1  0.59288630  0.67667283  0.47888923  1
  O2-  O416  1  0.61271361  0.63684521  0.86454282  1
  O2-  O417  1  0.58711286  0.91348223  0.13944981  1
  O2-  O418  1  0.58288552  0.91108255  0.48209585  1
  O2-  O419  1  0.57942530  0.89702451  0.78314333  1
  O2-  O420  1  0.82155474  0.16415271  0.15752694  1
  O2-  O421  1  0.82422483  0.10701756  0.45999676  1
  O2-  O422  1  0.83491280  0.16818631  0.82288899  1
  O2-  O423  1  0.84160380  0.42781282  0.12769181  1
  O2-  O424  1  0.80111158  0.43359837  0.44767801  1
  O2-  O425  1  0.83321152  0.41727092  0.80434844  1
  O2-  O426  1  0.83599538  0.68203285  0.16383499  1
  O2-  O427  1  0.89371797  0.70436681  0.46974576  1
  O2-  O428  1  0.84790496  0.68466013  0.76506723  1
  O2-  O429  1  0.83490452  0.91261656  0.16046287  1
  O2-  O430  1  0.83062497  0.91543110  0.49640527  1
  O2-  O431  1  0.81283968  0.91503473  0.81152350  1
  O2-  O432  1  0.17799906  0.08694190  0.19481577  1
  O2-  O433  1  0.19711764  0.12621639  0.61344552  1
  O2-  O434  1  0.17182201  0.07519784  0.85825784  1
  O2-  O435  1  0.17931411  0.33252855  0.19185669  1
  O2-  O436  1  0.16883186  0.32892912  0.53982375  1
  O2-  O437  1  0.16247530  0.32707014  0.80894391  1
  O2-  O438  1  0.16924731  0.59130495  0.18113650  1
  O2-  O439  1  0.16019345  0.59423535  0.52163033  1
  O2-  O440  1  0.16505381  0.58352724  0.84970737  1
  O2-  O441  1  0.17625932  0.82956855  0.11581124  1
  O2-  O442  1  0.15103773  0.84133221  0.51396106  1
  O2-  O443  1  0.17449155  0.82823839  0.84798714  1
  O2-  O444  1  0.42611876  0.09017362  0.18750686  1
  O2-  O445  1  0.41019242  0.07516349  0.52695588  1
  O2-  O446  1  0.41550232  0.07754603  0.85737430  1
  O2-  O447  1  0.43464979  0.34093750  0.18402871  1
  O2-  O448  1  0.41280089  0.33232310  0.53058085  1
  O2-  O449  1  0.42698554  0.32941316  0.85249319  1
  O2-  O450  1  0.41338560  0.57985724  0.18927979  1
  O2-  O451  1  0.42655256  0.58748610  0.53182390  1
  O2-  O452  1  0.40761295  0.58512340  0.86252811  1
  O2-  O453  1  0.42209338  0.83406217  0.18351483  1
  O2-  O454  1  0.44200279  0.82406521  0.54707746  1
  O2-  O455  1  0.42422391  0.83250986  0.84324824  1
  O2-  O456  1  0.65123673  0.07501531  0.18627088  1
  O2-  O457  1  0.65931849  0.07606609  0.51862992  1
  O2-  O458  1  0.65393383  0.06616520  0.83744690  1
  O2-  O459  1  0.69537979  0.37246868  0.19526675  1
  O2-  O460  1  0.64951644  0.32265639  0.51473507  1
  O2-  O461  1  0.67077054  0.31609621  0.88642196  1
  O2-  O462  1  0.67392099  0.59181586  0.18563689  1
  O2-  O463  1  0.62845139  0.56394015  0.53930714  1
  O2-  O464  1  0.71269734  0.56248436  0.82870464  1
  O2-  O465  1  0.66727014  0.83216305  0.18730805  1
  O2-  O466  1  0.66480380  0.83423717  0.53219720  1
  O2-  O467  1  0.64884834  0.80956916  0.84170853  1
  O2-  O468  1  0.91023286  0.08349551  0.19745034  1
  O2-  O469  1  0.94636431  0.11437344  0.53893628  1
  O2-  O470  1  0.90650503  0.07685972  0.86303563  1
  O2-  O471  1  0.89713910  0.32588171  0.18611549  1
  O2-  O472  1  0.88564792  0.34669531  0.53557213  1
  O2-  O473  1  0.91412523  0.33822060  0.86081325  1
  O2-  O474  1  0.94161312  0.58986053  0.16062602  1
  O2-  O475  1  0.90743967  0.57182724  0.51780336  1
  O2-  O476  1  0.91639672  0.57437002  0.83834380  1
  O2-  O477  1  0.91803676  0.83178290  0.19343837  1
  O2-  O478  1  0.90983202  0.83245704  0.53185203  1
  O2-  O479  1  0.85072236  0.80151018  0.85218037  1
  O2-  O480  1  0.17096457  0.08944827  0.31766641  1
  O2-  O481  1  0.11235955  0.06238522  0.63560302  1
  O2-  O482  1  0.20737747  0.04204361  0.96977227  1
  O2-  O483  1  0.18811468  0.32692617  0.32194511  1
  O2-  O484  1  0.18013269  0.35797854  0.67063353  1
  O2-  O485  1  0.17209108  0.33955727  0.97052138  1
  O2-  O486  1  0.15692708  0.57698756  0.30909528  1
  O2-  O487  1  0.14943792  0.56385178  0.64454778  1
  O2-  O488  1  0.16163783  0.57896614  0.97142752  1
  O2-  O489  1  0.15295469  0.83482865  0.37311081  1
  O2-  O490  1  0.16719392  0.83178388  0.64556308  1
  O2-  O491  1  0.21408209  0.89990171  0.96228107  1
  O2-  O492  1  0.40466410  0.08205226  0.31172433  1
  O2-  O493  1  0.40632871  0.07759009  0.64928560  1
  O2-  O494  1  0.42117348  0.07586398  0.98129343  1
  O2-  O495  1  0.42215450  0.33226579  0.31058632  1
  O2-  O496  1  0.42646512  0.34484277  0.65475063  1
  O2-  O497  1  0.42343563  0.33515700  0.97737182  1
  O2-  O498  1  0.41495691  0.57483089  0.31409175  1
  O2-  O499  1  0.42654045  0.59936848  0.65227356  1
  O2-  O500  1  0.41453284  0.58671790  0.97814741  1
  O2-  O501  1  0.44027535  0.89487259  0.29606478  1
  O2-  O502  1  0.43680360  0.85942941  0.65291508  1
  O2-  O503  1  0.41909710  0.82869013  0.96472352  1
  O2-  O504  1  0.64919475  0.07014755  0.30998313  1
  O2-  O505  1  0.67710957  0.11476354  0.63995794  1
  O2-  O506  1  0.65770435  0.08752446  0.99064759  1
  O2-  O507  1  0.58727782  0.29217778  0.30140374  1
  O2-  O508  1  0.65143251  0.32281301  0.63348478  1
  O2-  O509  1  0.66416416  0.32055537  0.95441726  1
  O2-  O510  1  0.66715805  0.57965350  0.30807070  1
  O2-  O511  1  0.67064787  0.58340587  0.66582237  1
  O2-  O512  1  0.66997936  0.58809285  0.95621534  1
  O2-  O513  1  0.65080712  0.81608532  0.30774693  1
  O2-  O514  1  0.66012111  0.83882968  0.65400125  1
  O2-  O515  1  0.67678287  0.84039357  0.97877255  1
  O2-  O516  1  0.87117775  0.06450079  0.35212583  1
  O2-  O517  1  0.90771247  0.07920943  0.65215350  1
  O2-  O518  1  0.89523897  0.07829476  0.98996105  1
  O2-  O519  1  0.87436900  0.34826683  0.31102848  1
  O2-  O520  1  0.90522615  0.31299854  0.65591884  1
  O2-  O521  1  0.91260933  0.32218876  0.98207410  1
  O2-  O522  1  0.94613668  0.55905301  0.27888890  1
  O2-  O523  1  0.92310061  0.56387171  0.64062712  1
  O2-  O524  1  0.90556376  0.53534554  0.96195517  1
  O2-  O525  1  0.92199079  0.83114779  0.31028032  1
  O2-  O526  1  0.92373891  0.83767544  0.65237385  1
  O2-  O527  1  0.91787920  0.83898383  0.97656521  1
  O2-  O528  1  0.04178021  0.22015463  0.03741786  1
  O2-  O529  1  0.11334651  0.18071887  0.39226962  1
  O2-  O530  1  0.05362111  0.14669579  0.70420307  1
  O2-  O531  1  0.09017127  0.41820927  0.01212397  1
  O2-  O532  1  0.04137930  0.42216186  0.34959294  1
  O2-  O533  1  0.06993619  0.41161177  0.69226193  1
  O2-  O534  1  0.05419853  0.63385905  0.00470364  1
  O2-  O535  1  0.08326809  0.66551414  0.35417710  1
  O2-  O536  1  0.08139490  0.66379793  0.68235341  1
  O2-  O537  1  0.06488143  0.96611170  0.03512637  1
  O2-  O538  1  0.07627082  0.92706951  0.36425866  1
  O2-  O539  1  0.09376577  0.91994626  0.68623183  1
  O2-  O540  1  0.34989768  0.17041211  0.01931301  1
  O2-  O541  1  0.32975455  0.16902530  0.35931833  1
  O2-  O542  1  0.33869941  0.17471669  0.68702745  1
  O2-  O543  1  0.34143839  0.41820051  0.01795829  1
  O2-  O544  1  0.35254577  0.41894264  0.36702781  1
  O2-  O545  1  0.35026166  0.43527982  0.69458647  1
  O2-  O546  1  0.32443967  0.66257961  0.01610069  1
  O2-  O547  1  0.28886762  0.59584297  0.38287218  1
  O2-  O548  1  0.37073925  0.69786109  0.68850997  1
  O2-  O549  1  0.26694807  0.89630673  0.01105021  1
  O2-  O550  1  0.32536468  0.92230942  0.35693068  1
  O2-  O551  1  0.33473466  0.91467425  0.68424275  1
  O2-  O552  1  0.57942140  0.16914943  0.01231855  1
  O2-  O553  1  0.56310838  0.14806230  0.35786479  1
  O2-  O554  1  0.56769863  0.16226256  0.69328392  1
  O2-  O555  1  0.59843438  0.42748089  0.00888009  1
  O2-  O556  1  0.58650161  0.42197384  0.35661326  1
  O2-  O557  1  0.59115164  0.41487171  0.69620687  1
  O2-  O558  1  0.54931869  0.70299499  0.03143922  1
  O2-  O559  1  0.58118162  0.65798410  0.35432113  1
  O2-  O560  1  0.58032060  0.66630671  0.69520133  1
  O2-  O561  1  0.58849445  0.92859908  0.01855411  1
  O2-  O562  1  0.58392363  0.90956019  0.35761032  1
  O2-  O563  1  0.61882788  0.89094055  0.66332133  1
  O2-  O564  1  0.81365946  0.15745146  0.03069812  1
  O2-  O565  1  0.82448781  0.17687576  0.30289005  1
  O2-  O566  1  0.82770408  0.15318834  0.69940898  1
  O2-  O567  1  0.80828616  0.38143519  0.00593459  1
  O2-  O568  1  0.79209950  0.43906236  0.31403281  1
  O2-  O569  1  0.84877122  0.42172513  0.68503462  1
  O2-  O570  1  0.88572209  0.68774506  0.04685869  1
  O2-  O571  1  0.83415181  0.66606134  0.35553141  1
  O2-  O572  1  0.82825543  0.68816457  0.70202589  1
  O2-  O573  1  0.83437109  0.91876967  0.03631485  1
  O2-  O574  1  0.81876876  0.88741220  0.32903541  1
  O2-  O575  1  0.83060962  0.91823798  0.68946955  1
