# generated using pymatgen
data_H2O
_symmetry_space_group_name_H-M   'P 1'
_cell_length_a   17.99313296
_cell_length_b   17.99179315
_cell_length_c   21.99831844
_cell_angle_alpha   89.99999022
_cell_angle_beta   89.98190011
_cell_angle_gamma   120.05330471
_symmetry_Int_Tables_number   1
_chemical_formula_structural   H2O
_chemical_formula_sum   'H384 O192'
_cell_volume   6164.07339081
_cell_formula_units_Z   192
loop_
 _symmetry_equiv_pos_site_id
 _symmetry_equiv_pos_as_xyz
  1  'x, y, z'
loop_
 _atom_type_symbol
 _atom_type_oxidation_number
  H+  1.0
  O2-  -2.0
loop_
 _atom_site_type_symbol
 _atom_site_label
 _atom_site_symmetry_multiplicity
 _atom_site_fract_x
 _atom_site_fract_y
 _atom_site_fract_z
 _atom_site_occupancy
  H+  H0  1  0.59390675  0.34344696  1.02205193  1
  H+  H1  1  0.72335717  0.34533619  0.84508194  1
  H+  H2  1  0.51732901  0.89606797  0.83886472  1
  H+  H3  1  0.36258158  0.38278668  1.00992174  1
  H+  H4  1  0.89169980  0.87164921  0.33360923  1
  H+  H5  1  0.11960734  0.90224176  0.83943228  1
  H+  H6  1  0.35873545  0.38693339  0.16264689  1
  H+  H7  1  0.27823370  0.13698406  0.34192199  1
  H+  H8  1  0.88454483  0.86823024  0.66972563  1
  H+  H9  1  0.85807137  0.47100168  0.68674300  1
  H+  H10  1  0.48353911  0.60306098  0.17076361  1
  H+  H11  1  0.48588756  0.13052732  0.16287334  1
  H+  H12  1  0.34895161  0.11359933  0.49496730  1
  H+  H13  1  0.08005349  0.63713589  -0.01014288  1
  H+  H14  1  0.76393285  0.37130682  0.33088905  1
  H+  H15  1  1.01657809  0.39296482  0.48147711  1
  H+  H16  1  0.36534023  0.36140661  0.49840541  1
  H+  H17  1  0.60949900  0.13467208  0.33148278  1
  H+  H18  1  0.35048558  0.46400771  0.65056425  1
  H+  H19  1  0.70802523  1.02544786  0.41975977  1
  H+  H20  1  0.14838144  1.03633797  0.85368275  1
  H+  H21  1  0.62243665  0.16022735  0.15768779  1
  H+  H22  1  0.74412294  0.88590830  0.49597844  1
  H+  H23  1  0.60186768  -0.02516546  0.32128312  1
  H+  H24  1  0.52541561  0.37671441  0.48785636  1
  H+  H25  1  0.97767902  0.86947442  0.84777065  1
  H+  H26  1  0.82550566  0.14661818  0.80051513  1
  H+  H27  1  0.91419954  0.08094594  0.24207303  1
  H+  H28  1  0.88393640  0.60351174  0.84845551  1
  H+  H29  1  0.13609323  0.36506666  0.16980343  1
  H+  H30  1  0.16084042  0.61992231  0.15961213  1
  H+  H31  1  0.62708677  0.02570903  0.85095649  1
  H+  H32  1  0.47233541  0.10274024  0.65614226  1
  H+  H33  1  0.63221987  0.36221119  0.66552471  1
  H+  H34  1  0.66706403  0.09156295  0.56441733  1
  H+  H35  1  0.92241938  0.62888555  0.18312318  1
  H+  H36  1  -0.01971524  0.39385193  0.65191771  1
  H+  H37  1  -0.03026623  0.10874150  0.32968909  1
  H+  H38  1  0.63920522  0.88152874  0.84987082  1
  H+  H39  1  0.64488344  0.37445762  0.17367077  1
  H+  H40  1  0.76881018  0.88277027  0.34008253  1
  H+  H41  1  0.37719721  0.85710427  0.33883403  1
  H+  H42  1  0.83897401  0.42014252  0.11104147  1
  H+  H43  1  0.33985890  0.68485746  0.76553227  1
  H+  H44  1  0.52445593  0.38990707  0.33691853  1
  H+  H45  1  0.26818104  0.38479396  0.16251855  1
  H+  H46  1  0.38217650  0.34919909  0.64837074  1
  H+  H47  1  0.39756392  0.64188643  0.13590935  1
  H+  H48  1  0.39092901  0.11600087  0.84396185  1
  H+  H49  1  0.64041909  0.86673455  0.65650301  1
  H+  H50  1  0.77890056  0.68508425  0.04294381  1
  H+  H51  1  0.65272331  0.61810036  0.16694121  1
  H+  H52  1  0.61290174  0.71940514  0.15506047  1
  H+  H53  1  0.89809902  0.86721671  0.17830962  1
  H+  H54  1  0.12473113  0.89969952  0.16981606  1
  H+  H55  1  0.45824849  0.86032707  0.48986662  1
  H+  H56  1  0.33697213  0.95877881  0.37463238  1
  H+  H57  1  0.23884382  0.87828472  0.85714709  1
  H+  H58  1  0.10668306  0.84181518  0.57445070  1
  H+  H59  1  0.88518588  0.73590825  0.17755269  1
  H+  H60  1  0.38844322  0.27382234  0.32860456  1
  H+  H61  1  0.39818400  0.05288344  0.99636321  1
  H+  H62  1  0.13039157  1.01271381  0.64877115  1
  H+  H63  1  0.56831506  0.60604855  0.88929524  1
  H+  H64  1  0.17501546  0.76641127  0.46187553  1
  H+  H65  1  0.72075177  0.36278956  0.66738356  1
  H+  H66  1  0.63905784  0.11370309  0.65914230  1
  H+  H67  1  0.64081926  0.36140205  0.50393516  1
  H+  H68  1  0.58389800  0.11426089  0.48923358  1
  H+  H69  1  0.38077463  0.60513265  0.34767687  1
  H+  H70  1  0.86496111  0.32414723  0.33723624  1
  H+  H71  1  0.67737517  0.56271635  0.90427779  1
  H+  H72  1  0.38022618  0.87496939  0.17677277  1
  H+  H73  1  0.85311502  0.46559651  0.47583885  1
  H+  H74  1  0.38237803  0.76374171  0.49443218  1
  H+  H75  1  0.14607334  0.02263918  1.00966272  1
  H+  H76  1  0.86932470  0.14892960  0.16990058  1
  H+  H77  1  0.39202709  0.28375835  0.17546363  1
  H+  H78  1  0.11654473  0.23248042  0.65281250  1
  H+  H79  1  0.78249602  0.81330718  0.13203237  1
  H+  H80  1  0.10977384  0.88413043  0.34093165  1
  H+  H81  1  0.50704524  0.85834029  0.69150600  1
  H+  H82  1  0.13872245  0.11409292  0.33261310  1
  H+  H83  1  0.90291156  0.15345302  0.83994786  1
  H+  H84  1  0.22706344  0.64107909  0.64522309  1
  H+  H85  1  0.26815970  0.13867044  1.01672992  1
  H+  H86  1  0.86401718  0.18772198  0.10465144  1
  H+  H87  1  0.29228940  0.36956065  0.83161286  1
  H+  H88  1  0.76636430  0.37851179  0.49326657  1
  H+  H89  1  0.15715533  0.36774194  0.84294675  1
  H+  H90  1  0.88295459  0.01748862  0.32849565  1
  H+  H91  1  0.02257017  0.88672110  0.35035426  1
  H+  H92  1  0.90387149  0.13504698  1.01672112  1
  H+  H93  1  0.60301088  -0.02524174  1.01693261  1
  H+  H94  1  0.15348469  0.37908056  0.87550261  1
  H+  H95  1  0.35370444  0.62094934  0.48336334  1
  H+  H96  1  0.90693791  0.29164464  0.17207597  1
  H+  H97  1  0.49340287  0.86651440  0.16640535  1
  H+  H98  1  0.59791848  0.64337560  0.86966461  1
  H+  H99  1  0.86888103  0.77522869  0.51170196  1
  H+  H100  1  0.62980153  0.85854899  0.00016816  1
  H+  H101  1  0.12986289  0.47894035  0.14439947  1
  H+  H102  1  0.38918249  0.86997772  0.67886896  1
  H+  H103  1  0.60931736  0.22516325  0.33408151  1
  H+  H104  1  0.81614941  0.43614202  1.01518961  1
  H+  H105  1  0.13971287  0.02538945  0.33580219  1
  H+  H106  1  0.86186368  0.64243079  0.68387763  1
  H+  H107  1  0.86566412  0.89799010  0.83772777  1
  H+  H108  1  0.63082022  0.86299401  0.32377036  1
  H+  H109  1  0.66006358  0.50757630  0.84497808  1
  H+  H110  1  0.13066612  0.65635662  0.82105416  1
  H+  H111  1  0.70730463  0.85661556  0.17036073  1
  H+  H112  1  0.47641709  0.34875811  1.00252301  1
  H+  H113  1  0.31444383  0.59323477  0.86179131  1
  H+  H114  1  0.12049037  0.48185482  0.33190226  1
  H+  H115  1  0.36513874  0.23599347  0.01148726  1
  H+  H116  1  0.09355887  0.40853197  0.05320621  1
  H+  H117  1  0.33496156  0.55850825  0.92203305  1
  H+  H118  1  0.89421703  0.87358698  0.99864226  1
  H+  H119  1  0.97186346  0.63770104  0.52939228  1
  H+  H120  1  1.09556159  0.90128468  0.43493921  1
  H+  H121  1  0.13146964  0.23468424  0.90737719  1
  H+  H122  1  0.61285173  0.84507405  0.17299750  1
  H+  H123  1  0.39294102  0.86972502  0.99660698  1
  H+  H124  1  0.49598537  0.13326375  0.99422888  1
  H+  H125  1  0.74873566  0.14275034  0.16496798  1
  H+  H126  1  0.12262647  0.75506708  0.82844138  1
  H+  H127  1  0.58594005  0.94701434  0.17449402  1
  H+  H128  1  0.18354037  0.58191554  0.21595041  1
  H+  H129  1  0.46956275  0.86431297  0.32885550  1
  H+  H130  1  0.69366634  0.30046304  0.02075556  1
  H+  H131  1  0.89951259  0.27785599  0.00535782  1
  H+  H132  1  0.11693464  0.12994606  0.02048717  1
  H+  H133  1  0.65234579  0.77358334  0.80659717  1
  H+  H134  1  0.81871577  0.15422590  0.43557910  1
  H+  H135  1  0.38334941  0.36003248  0.32792798  1
  H+  H136  1  0.35692875  0.73110464  1.00441577  1
  H+  H137  1  0.27784195  0.14513362  0.16690188  1
  H+  H138  1  0.39902326  0.55801792  0.43653794  1
  H+  H139  1  0.60474505  0.48970122  0.67970477  1
  H+  H140  1  0.60724247  0.22082888  0.66917780  1
  H+  H141  1  0.10249352  0.48558199  0.47971336  1
  H+  H142  1  0.57702272  0.39594973  0.07490945  1
  H+  H143  1  0.17191957  0.30875545  0.57041111  1
  H+  H144  1  0.32300793  0.65777621  0.11932897  1
  H+  H145  1  0.28907055  0.58689951  0.69985593  1
  H+  H146  1  0.10758970  0.88880713  0.67311508  1
  H+  H147  1  0.87668399  0.89829235  0.49448990  1
  H+  H148  1  0.51556687  0.13203523  0.82181514  1
  H+  H149  1  0.70852456  0.57183590  0.00113481  1
  H+  H150  1  0.62326796  0.73885203  0.64317385  1
  H+  H151  1  0.33349390  0.17876882  0.07964167  1
  H+  H152  1  0.97934044  0.62396706  0.67318879  1
  H+  H153  1  0.36973018  0.14819225  0.16014394  1
  H+  H154  1  0.47984130  0.86683584  -0.00230448  1
  H+  H155  1  0.67102832  0.94221584  0.46711487  1
  H+  H156  1  0.90488664  0.04104515  0.86222712  1
  H+  H157  1  0.11763312  0.67054414  0.66652738  1
  H+  H158  1  0.24137329  0.96835363  0.03381207  1
  H+  H159  1  0.38322824  0.87313930  0.84655553  1
  H+  H160  1  0.65931194  0.82767526  0.26784265  1
  H+  H161  1  0.19850819  0.86024303  0.59721441  1
  H+  H162  1  0.78156425  0.15283835  0.50094343  1
  H+  H163  1  0.26468704  0.37398401  0.66580567  1
  H+  H164  1  0.14531363  0.25136836  0.50688412  1
  H+  H165  1  0.36470132  0.99768070  0.15791130  1
  H+  H166  1  0.28605111  0.14473981  0.83763681  1
  H+  H167  1  0.97448987  0.10352516  1.00909081  1
  H+  H168  1  0.88321557  0.36451191  0.84402382  1
  H+  H169  1  0.12658088  0.99037793  0.17210840  1
  H+  H170  1  0.89159479  0.13420910  0.65969513  1
  H+  H171  1  0.66777574  0.57224554  0.56360735  1
  H+  H172  1  0.35381013  0.46466668  0.35179974  1
  H+  H173  1  0.47523869  0.36168899  0.65646042  1
  H+  H174  1  0.52680594  0.39492829  0.16630478  1
  H+  H175  1  0.13445804  -0.02556786  0.49402269  1
  H+  H176  1  0.72214384  0.60654359  0.50213471  1
  H+  H177  1  0.88434124  1.02692972  0.18021511  1
  H+  H178  1  0.13355045  0.27423987  0.17764771  1
  H+  H179  1  0.39137248  0.05460002  0.56543284  1
  H+  H180  1  0.10840535  0.22410189  0.33767225  1
  H+  H181  1  0.87928409  0.98963730  0.48806364  1
  H+  H182  1  0.30366995  0.38037470  0.86459857  1
  H+  H183  1  0.62786917  0.11697320  1.00986006  1
  H+  H184  1  0.15424568  0.77791415  0.16626300  1
  H+  H185  1  0.72856057  0.61530340  0.66170398  1
  H+  H186  1  0.04641573  0.03624270  0.78336499  1
  H+  H187  1  0.87081261  0.74623886  1.01538218  1
  H+  H188  1  0.09741668  0.67709654  0.37362096  1
  H+  H189  1  0.15500902  0.12697527  0.87316306  1
  H+  H190  1  0.37635221  0.51668272  0.00273152  1
  H+  H191  1  0.77268199  0.89150206  0.00621459  1
  H+  H192  1  0.73188450  0.87376375  0.65770236  1
  H+  H193  1  0.61925512  0.48178833  0.16066722  1
  H+  H194  1  0.92050244  0.54041914  0.17864822  1
  H+  H195  1  0.78165790  0.90697965  0.83863476  1
  H+  H196  1  0.86333748  0.65839310  0.48305882  1
  H+  H197  1  0.92034721  0.57440949  1.01403904  1
  H+  H198  1  0.37739243  0.77880377  0.66288695  1
  H+  H199  1  0.35943421  0.45198107  0.48979925  1
  H+  H200  1  -0.00813958  0.87733270  0.18253765  1
  H+  H201  1  0.36000290  0.74341211  0.82602541  1
  H+  H202  1  0.37793620  0.23079970  0.83482315  1
  H+  H203  1  0.36917362  0.63208505  0.65861866  1
  H+  H204  1  0.42586685  0.58957854  0.58273676  1
  H+  H205  1  0.85093413  0.60140485  1.00882815  1
  H+  H206  1  0.36550664  0.98739061  0.83971086  1
  H+  H207  1  0.86142254  0.73151210  0.67997076  1
  H+  H208  1  0.06979013  0.12911550  0.80367832  1
  H+  H209  1  0.25169024  0.34703319  0.50881638  1
  H+  H210  1  0.62454778  0.36700442  0.83481399  1
  H+  H211  1  0.63494420  0.52572951  0.32461568  1
  H+  H212  1  0.50073498  0.35779381  0.84987786  1
  H+  H213  1  0.24620581  0.88132494  0.17086489  1
  H+  H214  1  0.65874075  0.05204687  0.49670287  1
  H+  H215  1  0.74152014  0.61708024  0.17715339  1
  H+  H216  1  0.38914846  0.52476738  0.17045005  1
  H+  H217  1  0.45900848  0.61947377  0.80553791  1
  H+  H218  1  0.60922843  0.63659224  0.33731542  1
  H+  H219  1  0.02372603  0.13457983  0.49399654  1
  H+  H220  1  0.03643814  0.39397584  0.14938110  1
  H+  H221  1  0.38523353  0.10603444  0.66412248  1
  H+  H222  1  0.63223094  0.25880939  0.83738578  1
  H+  H223  1  0.26825186  0.62934907  0.48839269  1
  H+  H224  1  0.89142638  0.27688852  0.50214086  1
  H+  H225  1  1.03875108  0.89562572  1.01554504  1
  H+  H226  1  0.44274256  0.58830392  0.83184319  1
  H+  H227  1  0.45057117  0.49942693  0.78367527  1
  H+  H228  1  0.63312228  0.02402665  0.65717669  1
  H+  H229  1  0.32978226  0.85306309  0.49959733  1
  H+  H230  1  0.37159045  0.21763810  0.67616502  1
  H+  H231  1  0.47142987  0.60631018  0.35261910  1
  H+  H232  1  0.86062791  0.98437423  0.01369261  1
  H+  H233  1  0.71229272  0.09690559  0.33340177  1
  H+  H234  1  -0.00525618  0.10610622  0.64464999  1
  H+  H235  1  0.59950527  0.61919177  1.00162094  1
  H+  H236  1  0.84156141  0.22982055  0.35227910  1
  H+  H237  1  0.02783257  0.38144744  -0.00125001  1
  H+  H238  1  0.31522090  -0.06651784  0.50353136  1
  H+  H239  1  0.49117927  0.12637157  0.31905959  1
  H+  H240  1  0.90515063  0.28684258  0.84185909  1
  H+  H241  1  0.81914553  0.67813636  0.42849625  1
  H+  H242  1  0.22664899  0.60872074  0.31834563  1
  H+  H243  1  0.09839150  0.30696106  0.65412362  1
  H+  H244  1  0.51478977  0.62716988  0.00386014  1
  H+  H245  1  0.36733620  0.98429666  0.68128723  1
  H+  H246  1  0.22095983  0.85802999  0.32592000  1
  H+  H247  1  0.11279168  0.08832510  0.63492133  1
  H+  H248  1  0.71160697  0.11620021  0.86430133  1
  H+  H249  1  0.07463874  0.69761802  0.46511037  1
  H+  H250  1  0.05125721  0.65544048  0.15203709  1
  H+  H251  1  0.85772006  0.73423631  0.34228551  1
  H+  H252  1  0.13591299  0.60441984  0.30995817  1
  H+  H253  1  0.35767934  0.72319606  0.33548465  1
  H+  H254  1  0.43899176  0.06818939  0.50142984  1
  H+  H255  1  0.21724683  0.35788993  0.32620905  1
  H+  H256  1  0.15910936  0.77935744  -0.05222251  1
  H+  H257  1  0.14216565  0.11870839  0.18212437  1
  H+  H258  1  0.32338734  0.66259289  0.39400481  1
  H+  H259  1  0.88920197  0.12524870  0.49867284  1
  H+  H260  1  0.64501792  0.28629230  0.17039012  1
  H+  H261  1  0.85396863  0.46707342  0.83637102  1
  H+  H262  1  0.25996002  0.91081212  -0.00666942  1
  H+  H263  1  0.66008244  0.06833433  0.14181200  1
  H+  H264  1  0.93048456  0.26616157  0.67457398  1
  H+  H265  1  0.82040505  0.09978078  0.35506364  1
  H+  H266  1  0.12136281  0.43610803  0.68406698  1
  H+  H267  1  0.88527545  0.36226939  0.50224096  1
  H+  H268  1  0.48779352  0.62163360  0.64000169  1
  H+  H269  1  0.14906400  0.63442345  0.48747420  1
  H+  H270  1  0.22391975  0.64236417  0.82414508  1
  H+  H271  1  1.02530774  0.13395142  0.17156408  1
  H+  H272  1  0.61291087  0.46775687  0.49007091  1
  H+  H273  1  0.85667191  0.38312915  0.67467046  1
  H+  H274  1  0.11534096  0.38548540  0.33742825  1
  H+  H275  1  0.59561717  0.93292976  0.38403841  1
  H+  H276  1  0.13308530  0.77091888  0.31108650  1
  H+  H277  1  0.78714974  0.63605736  0.83786956  1
  H+  H278  1  0.10241279  0.74959968  0.65786090  1
  H+  H279  1  0.42121760  0.36881245  0.83882632  1
  H+  H280  1  0.27881373  0.89571308  0.68924591  1
  H+  H281  1  0.64423890  0.62139804  0.64873839  1
  H+  H282  1  0.22138142  0.34375602  0.99085905  1
  H+  H283  1  0.79031191  0.40553875  0.17238012  1
  H+  H284  1  0.90963163  0.38112229  0.17349087  1
  H+  H285  1  0.01291983  0.41197368  0.83243893  1
  H+  H286  1  0.22121942  0.09459297  0.49779433  1
  H+  H287  1  0.60135166  0.61401726  0.49407752  1
  H+  H288  1  0.62914761  0.35871075  0.32290860  1
  H+  H289  1  0.82366787  0.89822783  0.09377220  1
  H+  H290  1  0.57803671  0.91787262  0.78102791  1
  H+  H291  1  0.13571292  0.56039112  0.65570655  1
  H+  H292  1  0.47084250  0.58738187  0.48562236  1
  H+  H293  1  0.33111023  0.92504965  0.78120189  1
  H+  H294  1  0.04414235  0.11136614  0.70606764  1
  H+  H295  1  0.66663604  0.84120154  0.90423619  1
  H+  H296  1  0.09064837  0.92554340  0.07794165  1
  H+  H297  1  0.52516864  0.44607676  0.72557563  1
  H+  H298  1  0.09590264  0.70854716  0.76082372  1
  H+  H299  1  0.09146160  0.92441365  0.77605993  1
  H+  H300  1  0.62067146  0.48590378  1.00030283  1
  H+  H301  1  0.08252455  0.16565548  0.39750158  1
  H+  H302  1  0.91881410  0.09192597  0.92677162  1
  H+  H303  1  0.93098974  0.21715887  0.73541868  1
  H+  H304  1  0.65947689  0.33073887  0.26235798  1
  H+  H305  1  0.82774647  0.40767060  0.77531855  1
  H+  H306  1  0.96616445  0.84558393  0.52322182  1
  H+  H307  1  0.56779091  0.90540448  0.07162355  1
  H+  H308  1  0.31897132  0.93868895  0.09896652  1
  H+  H309  1  0.17512605  0.08984895  0.24104847  1
  H+  H310  1  0.11555402  0.69079168  0.09260245  1
  H+  H311  1  0.12667926  0.55439564  0.83082096  1
  H+  H312  1  0.83277518  0.91635445  0.39842039  1
  H+  H313  1  0.80415661  0.06281429  0.63002466  1
  H+  H314  1  0.36953689  0.14126521  0.33696617  1
  H+  H315  1  0.58619538  0.41715804  0.39482420  1
  H+  H316  1  0.92343385  0.84004292  0.94127683  1
  H+  H317  1  0.90713570  0.08859295  0.55875040  1
  H+  H318  1  0.55011735  0.13246268  0.42747635  1
  H+  H319  1  0.90862536  0.83529375  0.60932085  1
  H+  H320  1  0.67416522  0.09419702  0.26291719  1
  H+  H321  1  0.17931259  0.83655081  0.23606527  1
  H+  H322  1  0.69275780  0.71817084  0.78510078  1
  H+  H323  1  0.13122035  0.34073042  0.98643275  1
  H+  H324  1  0.33245927  0.15531546  0.43491962  1
  H+  H325  1  0.42037931  0.31781318  0.56269658  1
  H+  H326  1  0.60299226  0.13108079  0.82460555  1
  H+  H327  1  0.83432324  0.92763167  0.74267395  1
  H+  H328  1  0.01961715  0.88722250  0.68217510  1
  H+  H329  1  0.92001693  0.34388228  0.59471455  1
  H+  H330  1  0.85101933  0.98077016  0.68090593  1
  H+  H331  1  0.40428743  0.03832566  0.30293983  1
  H+  H332  1  0.25830235  0.60947422  0.93672356  1
  H+  H333  1  0.04280688  0.15598014  0.88469907  1
  H+  H334  1  0.67081504  0.33788240  0.56563996  1
  H+  H335  1  0.10467660  0.11822149  0.48925076  1
  H+  H336  1  0.58047203  0.65555532  0.43724455  1
  H+  H337  1  0.38586679  0.25539995  0.50412369  1
  H+  H338  1  0.90827227  0.57496652  0.62296121  1
  H+  H339  1  0.82077829  0.39529276  0.38914780  1
  H+  H340  1  0.76664916  0.64645219  0.33921472  1
  H+  H341  1  0.08500463  0.16207149  0.11203816  1
  H+  H342  1  0.42994885  0.09094263  0.90224144  1
  H+  H343  1  0.88364094  0.55875564  0.91001973  1
  H+  H344  1  0.39065446  0.42750904  0.73737705  1
  H+  H345  1  0.98926181  0.61632927  0.27575650  1
  H+  H346  1  0.15532443  0.05876081  0.55652762  1
  H+  H347  1  0.92937681  0.84607676  0.27656651  1
  H+  H348  1  0.40099270  0.83859854  0.23708137  1
  H+  H349  1  0.60376857  0.69266992  0.70551993  1
  H+  H350  1  0.89088211  0.77838288  0.84796072  1
  H+  H351  1  0.58816392  0.66110610  0.09423928  1
  H+  H352  1  0.60780966  0.72504391  0.34107515  1
  H+  H353  1  0.29553528  0.88112495  0.41897475  1
  H+  H354  1  0.17822726  0.67090228  -0.00870002  1
  H+  H355  1  0.59434508  0.40559319  0.77757389  1
  H+  H356  1  0.34701205  0.16508014  0.73826666  1
  H+  H357  1  0.11420037  0.21691175  0.01622160  1
  H+  H358  1  0.07795525  0.45735633  0.73823512  1
  H+  H359  1  0.18057950  0.08305944  0.94901780  1
  H+  H360  1  0.85881521  0.68098893  0.11720085  1
  H+  H361  1  0.42900181  0.10421282  0.22340697  1
  H+  H362  1  0.15887570  0.60051666  0.55264079  1
  H+  H363  1  0.58916314  0.18899331  0.09698124  1
  H+  H364  1  0.84189403  0.67461778  0.77732298  1
  H+  H365  1  0.90957717  0.33151591  0.94256350  1
  H+  H366  1  0.63165655  0.77025070  0.99506279  1
  H+  H367  1  0.57717584  0.15923836  0.72697029  1
  H+  H368  1  0.31741507  0.38885937  0.39960687  1
  H+  H369  1  0.84592624  0.36596646  0.01653827  1
  H+  H370  1  0.64473913  0.07737094  0.95159889  1
  H+  H371  1  0.96393181  0.24037613  0.05350597  1
  H+  H372  1  0.08189619  0.42319012  0.40002450  1
  H+  H373  1  0.32625246  0.40842609  0.06784357  1
  H+  H374  1  0.15753887  0.33307403  0.26663636  1
  H+  H375  1  1.00290359  0.73417169  0.50828048  1
  H+  H376  1  0.41919488  0.34030165  0.23588262  1
  H+  H377  1  0.54761372  0.81050912  0.72664723  1
  H+  H378  1  0.38067612  0.60670163  1.01303860  1
  H+  H379  1  0.42274933  0.32724421  0.94005323  1
  H+  H380  1  0.10888938  0.42962838  0.83057275  1
  H+  H381  1  0.66569421  0.58512551  0.26519429  1
  H+  H382  1  0.68003283  0.86824202  0.55008711  1
  H+  H383  1  0.41299012  0.83696117  0.90268162  1
  O2-  O384  1  0.08654866  0.16404481  0.15777795  1
  O2-  O385  1  0.08482955  0.15944253  0.47917696  1
  O2-  O386  1  0.03526081  0.08281856  0.77453906  1
  O2-  O387  1  0.09716726  0.41705671  0.13280695  1
  O2-  O388  1  0.07573772  0.42635471  0.46341486  1
  O2-  O389  1  0.07321029  0.45223969  0.81408254  1
  O2-  O390  1  0.11277698  0.69280744  0.13760165  1
  O2-  O391  1  0.13108578  0.70843132  0.44855964  1
  O2-  O392  1  0.09545689  0.69935959  0.80570277  1
  O2-  O393  1  0.09371388  0.92904952  0.15669665  1
  O2-  O394  1  0.12060340  0.90964248  0.47842552  1
  O2-  O395  1  0.09029123  0.93111997  0.82120692  1
  O2-  O396  1  0.33654614  0.17754353  0.14792207  1
  O2-  O397  1  0.32537947  0.15092534  0.48015021  1
  O2-  O398  1  0.34437162  0.17051046  0.81929983  1
  O2-  O399  1  0.32704922  0.41361775  0.14428949  1
  O2-  O400  1  0.32721866  0.38652665  0.48533943  1
  O2-  O401  1  0.43881075  0.44452319  0.76645118  1
  O2-  O402  1  0.37985799  0.67108975  0.10518883  1
  O2-  O403  1  0.32854234  0.65738393  0.47255645  1
  O2-  O404  1  0.32439924  0.68373370  0.80847199  1
  O2-  O405  1  0.32867088  0.93590964  0.14347024  1
  O2-  O406  1  0.28677314  0.87196045  0.48999139  1
  O2-  O407  1  0.33060828  0.92394135  0.82663544  1
  O2-  O408  1  0.58648479  0.18535683  0.14499608  1
  O2-  O409  1  0.53276529  0.11091163  0.46936797  1
  O2-  O410  1  0.57493891  0.15953914  0.80361471  1
  O2-  O411  1  0.58578505  0.41989833  0.14853849  1
  O2-  O412  1  0.58504254  0.40859861  0.47195687  1
  O2-  O413  1  0.59648534  0.40355540  0.82219590  1
  O2-  O414  1  0.59656809  0.66133400  0.13916147  1
  O2-  O415  1  0.56736530  0.64108133  0.48105559  1
  O2-  O416  1  0.64826854  0.73180698  0.77499545  1
  O2-  O417  1  0.55637558  0.89303488  0.15206220  1
  O2-  O418  1  0.65649477  0.98202602  0.44424469  1
  O2-  O419  1  0.57945805  0.92771329  0.82570114  1
  O2-  O420  1  0.84516823  0.18179981  0.15046409  1
  O2-  O421  1  0.83841840  0.17384385  0.48051666  1
  O2-  O422  1  0.88496985  0.18670687  0.81120769  1
  O2-  O423  1  0.84943833  0.43581952  0.15494446  1
  O2-  O424  1  0.82636086  0.40349180  0.47384556  1
  O2-  O425  1  0.82869177  0.40594659  0.82048761  1
  O2-  O426  1  0.85783699  0.67557729  0.16194837  1
  O2-  O427  1  0.82095838  0.67661582  0.47558315  1
  O2-  O428  1  0.84754822  0.67582925  0.82232248  1
  O2-  O429  1  0.81357025  0.87549851  0.13750722  1
  O2-  O430  1  0.85051277  0.92907634  0.47355072  1
  O2-  O431  1  0.84197421  0.93438781  0.82316084  1
  O2-  O432  1  0.17636008  0.09075809  0.19545426  1
  O2-  O433  1  0.15843424  0.05705512  0.50893018  1
  O2-  O434  1  0.18513433  0.09257179  0.87402744  1
  O2-  O435  1  0.16382072  0.33516712  0.19153944  1
  O2-  O436  1  0.18201560  0.31159762  0.52518193  1
  O2-  O437  1  0.10629255  0.18619800  0.87806809  1
  O2-  O438  1  0.18769458  0.58599790  0.17110183  1
  O2-  O439  1  0.16376238  0.59410951  0.50831001  1
  O2-  O440  1  0.16216487  0.61833926  0.83826941  1
  O2-  O441  1  0.18278300  0.83940519  0.18745785  1
  O2-  O442  1  0.05564628  0.84341861  0.51981083  1
  O2-  O443  1  0.17535637  0.84600650  0.87123874  1
  O2-  O444  1  0.42377307  0.09941458  0.17802803  1
  O2-  O445  1  0.38023081  0.04492813  0.52089226  1
  O2-  O446  1  0.42061629  0.08352145  0.85616301  1
  O2-  O447  1  0.42136156  0.34409221  0.19028163  1
  O2-  O448  1  0.41734140  0.31733361  0.51694544  1
  O2-  O449  1  0.43832350  0.33357909  0.86275161  1
  O2-  O450  1  0.42458816  0.58512784  0.18409230  1
  O2-  O451  1  0.40368289  0.55449228  0.48213332  1
  O2-  O452  1  0.28738985  0.55321183  0.89586335  1
  O2-  O453  1  0.40235531  0.83839772  0.19185418  1
  O2-  O454  1  0.40243975  0.82356377  0.50845154  1
  O2-  O455  1  0.41332142  0.84031180  0.85720727  1
  O2-  O456  1  0.68360352  0.11094111  0.17415530  1
  O2-  O457  1  0.67216588  0.10517714  0.52032586  1
  O2-  O458  1  0.64952231  0.08498157  0.86881831  1
  O2-  O459  1  0.67694373  0.34582136  0.18805449  1
  O2-  O460  1  0.67535867  0.33711878  0.52100022  1
  O2-  O461  1  0.66205444  0.31601784  0.85763882  1
  O2-  O462  1  0.67898376  0.58575091  0.18591142  1
  O2-  O463  1  0.66260893  0.56858222  0.51849106  1
  O2-  O464  1  0.69107506  0.56778322  0.86059186  1
  O2-  O465  1  0.64912720  0.82051023  0.18718472  1
  O2-  O466  1  0.68453156  0.87199693  0.50546182  1
  O2-  O467  1  0.67337188  0.85326113  0.85958557  1
  O2-  O468  1  0.91909395  0.08519113  0.19561254  1
  O2-  O469  1  0.92100680  0.09527157  0.51492382  1
  O2-  O470  1  0.93121899  0.09925119  0.88056509  1
  O2-  O471  1  0.94488340  0.35386462  0.18022453  1
  O2-  O472  1  0.92034528  0.33749143  0.51855089  1
  O2-  O473  1  0.92437101  0.34490112  0.85879238  1
  O2-  O474  1  0.95849160  0.60216185  0.19068219  1
  O2-  O475  1  0.97751457  0.67286803  0.49418240  1
  O2-  O476  1  0.89814790  0.56158996  0.86660553  1
  O2-  O477  1  0.93129080  0.84336321  0.19781633  1
  O2-  O478  1  0.90548967  0.83308535  0.53090803  1
  O2-  O479  1  0.91804666  0.83916010  0.86365998  1
  O2-  O480  1  0.17115985  0.08470826  0.31931802  1
  O2-  O481  1  0.15025921  0.06469589  0.62330891  1
  O2-  O482  1  0.17881937  0.08485154  0.99479445  1
  O2-  O483  1  0.15609379  0.33060495  0.31273215  1
  O2-  O484  1  0.14558225  0.29659254  0.64458404  1
  O2-  O485  1  0.16097684  0.30674938  0.97702723  1
  O2-  O486  1  0.16725004  0.57337915  0.30076591  1
  O2-  O487  1  0.16587338  0.61748391  0.63504305  1
  O2-  O488  1  0.25404833  0.65628400  0.96007769  1
  O2-  O489  1  0.16710407  0.83436181  0.30074488  1
  O2-  O490  1  0.14041618  0.83921010  0.61238644  1
  O2-  O491  1  0.18016643  0.84081794  0.93797790  1
  O2-  O492  1  0.42878743  0.10023665  0.30042653  1
  O2-  O493  1  0.40964616  0.07003463  0.64621406  1
  O2-  O494  1  0.43956131  0.10128324  0.97177995  1
  O2-  O495  1  0.41755682  0.33392900  0.31272386  1
  O2-  O496  1  0.41769629  0.32305387  0.63795162  1
  O2-  O497  1  0.41630768  0.32389743  0.98545189  1
  O2-  O498  1  0.40776297  0.57070810  0.36019553  1
  O2-  O499  1  0.42534858  0.58835735  0.62723234  1
  O2-  O500  1  0.40446155  0.57764951  0.98812816  1
  O2-  O501  1  0.40670845  0.83124171  0.31708594  1
  O2-  O502  1  0.41934625  0.83992975  0.66352773  1
  O2-  O503  1  0.41912839  0.83779102  0.98038358  1
  O2-  O504  1  0.65692729  0.08115721  0.30576174  1
  O2-  O505  1  0.66994668  0.08338708  0.64467554  1
  O2-  O506  1  0.64608386  0.07547714  0.99637869  1
  O2-  O507  1  0.65322761  0.32284016  0.30773088  1
  O2-  O508  1  0.66138115  0.33269177  0.64991841  1
  O2-  O509  1  0.63288451  0.27546902  1.00733993  1
  O2-  O510  1  0.66176371  0.58667032  0.31031172  1
  O2-  O511  1  0.66975515  0.58360006  0.64333124  1
  O2-  O512  1  0.64962864  0.54775052  0.98698103  1
  O2-  O513  1  0.66210759  0.83177452  0.31298212  1
  O2-  O514  1  0.67727685  0.84959738  0.63417885  1
  O2-  O515  1  0.66284446  0.83204533  0.98337306  1
  O2-  O516  1  0.91020714  0.07809001  0.31358090  1
  O2-  O517  1  0.86299590  0.07589169  0.63828760  1
  O2-  O518  1  0.91440424  0.08417502  0.99648847  1
  O2-  O519  1  0.89008161  0.28625880  0.34122911  1
  O2-  O520  1  0.92172419  0.34862310  0.64074492  1
  O2-  O521  1  0.91095662  0.33539368  0.98737268  1
  O2-  O522  1  0.99703078  0.62639724  0.32064721  1
  O2-  O523  1  0.91588209  0.58376835  0.66669722  1
  O2-  O524  1  0.86513268  0.55749804  0.99514598  1
  O2-  O525  1  0.92737405  0.84504511  0.32185893  1
  O2-  O526  1  0.91369934  0.83691331  0.65484572  1
  O2-  O527  1  0.92426082  0.84157861  0.98706959  1
  O2-  O528  1  0.08482980  0.15787033  0.03565566  1
  O2-  O529  1  0.08213518  0.16339358  0.35236607  1
  O2-  O530  1  0.05234877  0.12935825  0.66153412  1
  O2-  O531  1  0.08811176  0.39856345  0.00837166  1
  O2-  O532  1  0.08975771  0.42220593  0.35141742  1
  O2-  O533  1  0.08584022  0.46174993  0.69254299  1
  O2-  O534  1  0.13349637  0.68588159  0.00418085  1
  O2-  O535  1  0.09089510  0.66983271  0.32810480  1
  O2-  O536  1  0.08424348  0.69682172  0.68308449  1
  O2-  O537  1  0.09742586  0.92726012  0.03295922  1
  O2-  O538  1  0.08460047  0.91274240  0.36486245  1
  O2-  O539  1  0.08078548  0.91633045  0.69637292  1
  O2-  O540  1  0.33115538  0.17576744  0.03243547  1
  O2-  O541  1  0.33903096  0.16838012  0.35658618  1
  O2-  O542  1  0.34664255  0.15932359  0.69340605  1
  O2-  O543  1  0.32788351  0.40913604  0.02204312  1
  O2-  O544  1  0.32070553  0.40010419  0.35543392  1
  O2-  O545  1  0.32788679  0.40705251  0.66986974  1
  O2-  O546  1  0.31177162  0.66979547  0.01126475  1
  O2-  O547  1  0.32524145  0.66162632  0.34858029  1
  O2-  O548  1  0.32667496  0.64282858  0.68134379  1
  O2-  O549  1  0.28578233  0.95298953  0.02699022  1
  O2-  O550  1  0.30647699  0.89618204  0.37337255  1
  O2-  O551  1  0.33819913  0.92511302  0.70303817  1
  O2-  O552  1  0.58859367  0.18643579  0.03037861  1
  O2-  O553  1  0.57662216  0.16274128  0.34699654  1
  O2-  O554  1  0.57901520  0.15932718  0.68129007  1
  O2-  O555  1  0.57306724  0.38510994  0.02973594  1
  O2-  O556  1  0.58602777  0.42035548  0.34931479  1
  O2-  O557  1  0.56346171  0.43371618  0.69996752  1
  O2-  O558  1  0.57712152  0.65647921  0.01563785  1
  O2-  O559  1  0.57895974  0.66475827  0.35637582  1
  O2-  O560  1  0.59193921  0.67957609  0.66115383  1
  O2-  O561  1  0.57470439  0.91096914  0.02666708  1
  O2-  O562  1  0.57447186  0.91613307  0.34078588  1
  O2-  O563  1  0.56291585  0.86687759  0.71032651  1
  O2-  O564  1  0.90360413  0.20394687  0.04244728  1
  O2-  O565  1  0.77750027  0.10838307  0.37642005  1
  O2-  O566  1  0.94787485  0.22566080  0.69187078  1
  O2-  O567  1  0.80504861  0.38284955  0.03541506  1
  O2-  O568  1  0.82446433  0.39819213  0.34446280  1
  O2-  O569  1  0.82484748  0.40856541  0.69520108  1
  O2-  O570  1  0.83363289  0.68764212  0.03576620  1
  O2-  O571  1  0.82401838  0.67546536  0.35911816  1
  O2-  O572  1  0.82925416  0.67112222  0.69581485  1
  O2-  O573  1  0.83220058  0.92018678  0.02308574  1
  O2-  O574  1  0.83041772  0.91339765  0.35282420  1
  O2-  O575  1  0.83164273  0.92266007  0.69725388  1
