# generated using pymatgen
data_H2O
_symmetry_space_group_name_H-M   'P 1'
_cell_length_a   17.99191593
_cell_length_b   17.99607262
_cell_length_c   22.00968239
_cell_angle_alpha   89.99198757
_cell_angle_beta   90.02313902
_cell_angle_gamma   119.99674426
_symmetry_Int_Tables_number   1
_chemical_formula_structural   H2O
_chemical_formula_sum   'H384 O192'
_cell_volume   6171.82733511
_cell_formula_units_Z   192
loop_
 _symmetry_equiv_pos_site_id
 _symmetry_equiv_pos_as_xyz
  1  'x, y, z'
loop_
 _atom_type_symbol
 _atom_type_oxidation_number
  H+  1.0
  O2-  -2.0
loop_
 _atom_site_type_symbol
 _atom_site_label
 _atom_site_symmetry_multiplicity
 _atom_site_fract_x
 _atom_site_fract_y
 _atom_site_fract_z
 _atom_site_occupancy
  H+  H0  1  0.14593006  0.78561511  0.98983258  1
  H+  H1  1  0.12748451  0.30468139  0.50413824  1
  H+  H2  1  0.27946739  0.62214991  0.33125610  1
  H+  H3  1  0.38442842  0.36295563  0.50553905  1
  H+  H4  1  0.22392875  0.85855369  0.66138085  1
  H+  H5  1  0.63615224  0.11129538  0.16230157  1
  H+  H6  1  0.97687230  0.62930987  0.99174361  1
  H+  H7  1  0.36934010  0.39392695  0.33775037  1
  H+  H8  1  0.81883488  0.21557028  0.47636175  1
  H+  H9  1  0.86840448  0.48838019  0.00045145  1
  H+  H10  1  0.89094900  0.37184910  -0.01217208  1
  H+  H11  1  0.10548950  0.94171093  0.48791921  1
  H+  H12  1  0.35300640  0.09955941  0.16296611  1
  H+  H13  1  0.21597085  0.56870257  0.50449879  1
  H+  H14  1  0.51533665  0.13861732  0.68070879  1
  H+  H15  1  0.65880299  0.61211927  0.22198969  1
  H+  H16  1  0.61171921  0.72431878  0.34438319  1
  H+  H17  1  0.12386284  0.83483554  0.50227473  1
  H+  H18  1  0.55235203  0.90310458  0.99750842  1
  H+  H19  1  -0.01845480  0.10015525  -0.00622603  1
  H+  H20  1  0.61276503  0.72851690  0.82769654  1
  H+  H21  1  0.27288211  0.88339364  0.14444891  1
  H+  H22  1  0.51854534  0.13426026  0.15850688  1
  H+  H23  1  0.13347728  0.02555482  0.84460550  1
  H+  H24  1  0.39640613  0.28074682  0.50713495  1
  H+  H25  1  0.71912299  0.85907595  0.33164656  1
  H+  H26  1  0.11249795  0.59063144  0.65738461  1
  H+  H27  1  0.39984306  0.55036029  1.02301395  1
  H+  H28  1  0.16569332  0.34708607  0.56746942  1
  H+  H29  1  0.36569526  0.98093241  -0.00292766  1
  H+  H30  1  -0.02617795  0.36186486  -0.01343303  1
  H+  H31  1  0.87116092  0.21931338  1.00928025  1
  H+  H32  1  0.14195545  0.77423670  0.15836228  1
  H+  H33  1  0.96502789  0.10781814  0.32713390  1
  H+  H34  1  0.38295953  0.21293571  0.02490948  1
  H+  H35  1  0.96716049  0.86365066  0.83541372  1
  H+  H36  1  0.27629827  0.39216781  0.00746355  1
  H+  H37  1  0.96254998  0.85129379  0.50799550  1
  H+  H38  1  0.60713483  0.88327866  0.33613848  1
  H+  H39  1  0.23906043  0.12341159  -0.01008481  1
  H+  H40  1  0.12583644  0.47914690  0.82077830  1
  H+  H41  1  0.40125951  0.63684243  0.03116452  1
  H+  H42  1  0.38163458  0.10026149  0.98928086  1
  H+  H43  1  0.47521782  0.11132259  0.51347826  1
  H+  H44  1  0.06535375  0.17575773  0.39867011  1
  H+  H45  1  0.48591079  0.36684640  0.83248657  1
  H+  H46  1  0.09651409  0.25999956  0.94710220  1
  H+  H47  1  0.48167375  0.60868634  0.32759790  1
  H+  H48  1  0.64009985  0.11647787  0.83920073  1
  H+  H49  1  0.51079626  0.87657513  0.49476599  1
  H+  H50  1  0.57246624  0.91699925  0.38922152  1
  H+  H51  1  0.26849404  0.89060066  0.49953509  1
  H+  H52  1  0.38710654  0.88981461  0.51258501  1
  H+  H53  1  0.85649832  0.97187454  0.33874953  1
  H+  H54  1  0.35813868  0.22350568  0.67025314  1
  H+  H55  1  0.21124618  0.09013539  0.17915645  1
  H+  H56  1  0.86768729  0.62381502  0.14875006  1
  H+  H57  1  0.40318186  0.86972303  -0.01275280  1
  H+  H58  1  0.14994613  0.60145683  0.50497111  1
  H+  H59  1  0.88715935  0.34607035  0.17286836  1
  H+  H60  1  0.26752080  0.88516574  -0.00442391  1
  H+  H61  1  0.23112994  0.63305606  0.98851419  1
  H+  H62  1  0.87136425  -0.02061569  0.99699854  1
  H+  H63  1  0.62300583  0.25437370  0.33676557  1
  H+  H64  1  0.88149020  0.61577525  0.34210575  1
  H+  H65  1  0.54045546  0.65105621  1.03802635  1
  H+  H66  1  0.98942607  0.66328785  0.51676097  1
  H+  H67  1  0.76773066  0.13106434  0.15750882  1
  H+  H68  1  0.38720283  0.11578306  0.66537617  1
  H+  H69  1  0.09633138  0.12505358  0.68158044  1
  H+  H70  1  0.75295730  0.12180530  0.49751927  1
  H+  H71  1  0.61203711  0.38810640  0.67553924  1
  H+  H72  1  0.39408593  0.27682961  0.83277998  1
  H+  H73  1  0.13421109  0.39174685  0.81941097  1
  H+  H74  1  0.87937082  0.77249747  0.83552853  1
  H+  H75  1  0.82722872  0.42089782  0.76984675  1
  H+  H76  1  0.98217139  0.13080315  0.84252409  1
  H+  H77  1  0.34483310  0.05828605  0.30429958  1
  H+  H78  1  0.97438701  0.31829076  0.52080628  1
  H+  H79  1  0.97198136  0.60138870  0.33177365  1
  H+  H80  1  0.60916590  0.23123935  0.83067042  1
  H+  H81  1  0.63724479  0.61968258  0.32632331  1
  H+  H82  1  0.02150231  0.37848284  0.34617466  1
  H+  H83  1  0.32189940  0.67760785  0.06659789  1
  H+  H84  1  0.25893556  0.38918247  0.17012394  1
  H+  H85  1  0.72150132  0.61342130  0.84277476  1
  H+  H86  1  0.38548822  0.77683340  0.83491370  1
  H+  H87  1  0.63427336  0.76711868  0.18162429  1
  H+  H88  1  0.42593254  0.83450145  0.92874179  1
  H+  H89  1  0.96826854  0.35651375  0.67578262  1
  H+  H90  1  0.49700944  0.62633091  0.18157553  1
  H+  H91  1  0.14401354  0.44985812  0.02252169  1
  H+  H92  1  0.27958365  0.38373854  0.19821057  1
  H+  H93  1  0.87549951  0.48377539  0.52422992  1
  H+  H94  1  0.36765191  0.40210757  -0.00657960  1
  H+  H95  1  0.60850807  0.12141216  0.50690024  1
  H+  H96  1  0.50494105  0.12934332  0.34773757  1
  H+  H97  1  0.87733889  0.14645163  0.83101398  1
  H+  H98  1  0.09348376  0.11166057  0.16771039  1
  H+  H99  1  0.85606575  0.63653607  0.82898542  1
  H+  H100  1  0.37620720  0.80089915  0.53189197  1
  H+  H101  1  0.67223356  0.94238133  0.66615179  1
  H+  H102  1  0.64935769  0.12428452  -0.00571906  1
  H+  H103  1  0.53807596  0.65017507  0.49996441  1
  H+  H104  1  0.51897432  0.88058698  0.15932234  1
  H+  H105  1  0.85670973  0.47941141  0.67420324  1
  H+  H106  1  0.62421897  0.64645709  0.49669725  1
  H+  H107  1  0.61686337  0.41342768  0.16685078  1
  H+  H108  1  0.86941105  0.85549169  0.32691686  1
  H+  H109  1  0.34644642  0.67207377  0.48762798  1
  H+  H110  1  0.48372332  0.37077698  0.32294065  1
  H+  H111  1  0.84350004  0.88927119  0.18779097  1
  H+  H112  1  0.88163785  0.35662771  0.32734640  1
  H+  H113  1  0.51934000  0.13907673  0.82954372  1
  H+  H114  1  0.17107592  0.83641933  0.31967582  1
  H+  H115  1  0.71948939  0.10561073  0.31379242  1
  H+  H116  1  0.76587915  0.62794663  1.01730589  1
  H+  H117  1  0.85617825  0.12823941  0.16513506  1
  H+  H118  1  0.22414107  0.11829388  0.33430269  1
  H+  H119  1  0.89911486  0.65789135  0.51786732  1
  H+  H120  1  0.36407687  0.73658938  0.00607209  1
  H+  H121  1  0.72615804  0.11398706  0.83914235  1
  H+  H122  1  0.08503090  0.47565693  0.35325324  1
  H+  H123  1  0.65285379  0.77801857  0.51599586  1
  H+  H124  1  0.24483073  0.36883337  0.82947835  1
  H+  H125  1  0.32657037  0.40405785  0.43290296  1
  H+  H126  1  0.40264405  0.30916199  0.15954887  1
  H+  H127  1  0.84577878  0.21198990  0.67782641  1
  H+  H128  1  0.86384095  0.72144045  0.34103220  1
  H+  H129  1  0.00952477  0.65087505  0.15403360  1
  H+  H130  1  0.39965985  0.53346554  0.66278422  1
  H+  H131  1  0.63257911  0.61297203  0.84170427  1
  H+  H132  1  0.75131690  0.61643218  0.11637096  1
  H+  H133  1  0.91478312  0.50201805  0.50428938  1
  H+  H134  1  0.76439896  0.63525561  0.49205323  1
  H+  H135  1  0.62996105  1.02027441  0.31188128  1
  H+  H136  1  0.71684838  0.85661412  0.83186639  1
  H+  H137  1  0.38961629  0.76347605  0.30981513  1
  H+  H138  1  0.14029403  0.60939133  0.82741244  1
  H+  H139  1  0.66280372  0.08015790  0.22244214  1
  H+  H140  1  0.38588007  0.66073198  0.67137632  1
  H+  H141  1  0.16038786  0.32353483  0.26611735  1
  H+  H142  1  0.54676008  0.82473402  0.46134683  1
  H+  H143  1  0.37388344  0.38993676  0.81637791  1
  H+  H144  1  0.87466836  0.11639831  0.51044255  1
  H+  H145  1  0.01021411  0.63378897  0.67428121  1
  H+  H146  1  0.42180614  0.34645400  0.91802478  1
  H+  H147  1  0.41221904  0.58402281  0.86658121  1
  H+  H148  1  0.14066521  0.11693556  -0.00095056  1
  H+  H149  1  0.51976725  0.38891792  0.49180980  1
  H+  H150  1  0.86546457  0.34729502  0.49087838  1
  H+  H151  1  0.38109162  0.61602747  0.81078696  1
  H+  H152  1  0.39038423  0.12044739  0.51132508  1
  H+  H153  1  0.10402807  0.71911548  0.66689791  1
  H+  H154  1  0.61308093  0.50164138  0.15779148  1
  H+  H155  1  0.10155747  0.14150029  0.34501145  1
  H+  H156  1  0.72499605  0.61796755  0.31936663  1
  H+  H157  1  0.61214809  0.22966386  0.68129704  1
  H+  H158  1  0.87542808  0.51373122  0.34553676  1
  H+  H159  1  0.58780266  0.66687517  0.40438753  1
  H+  H160  1  0.75571521  0.88174697  0.17166415  1
  H+  H161  1  0.11146545  0.89411371  0.83207832  1
  H+  H162  1  0.36459087  0.97835262  0.67538352  1
  H+  H163  1  0.39535766  0.58824617  0.50682353  1
  H+  H164  1  0.36982592  0.24022810  0.33827769  1
  H+  H165  1  0.13186184  0.03204049  0.33695245  1
  H+  H166  1  0.22305878  0.35872785  0.66163126  1
  H+  H167  1  0.72668348  0.35929470  0.66558061  1
  H+  H168  1  0.72320811  0.36215027  0.84216741  1
  H+  H169  1  0.13868848  0.86068388  0.16622316  1
  H+  H170  1  0.00968217  0.87599162  0.67834123  1
  H+  H171  1  0.64387314  0.37094184  0.99584895  1
  H+  H172  1  0.86849276  0.85942313  0.66054930  1
  H+  H173  1  0.11214704  0.37993104  0.67624240  1
  H+  H174  1  0.02521738  0.87181434  0.15894607  1
  H+  H175  1  0.85165550  0.21512647  0.33931087  1
  H+  H176  1  0.14191892  0.75760150  0.50681260  1
  H+  H177  1  0.52242426  0.38986480  0.00360156  1
  H+  H178  1  0.87794552  0.10500461  0.66469946  1
  H+  H179  1  0.30206247  0.86415028  0.34317153  1
  H+  H180  1  0.27465463  0.13969913  0.82721858  1
  H+  H181  1  0.62384123  0.64410147  0.01862047  1
  H+  H182  1  0.39826952  0.75509976  0.67375421  1
  H+  H183  1  0.33155147  0.16598035  0.76657930  1
  H+  H184  1  0.89184910  0.61297880  0.21680613  1
  H+  H185  1  0.86679948  -0.01441705  0.49407510  1
  H+  H186  1  0.37736917  0.77303882  0.16171608  1
  H+  H187  1  0.57936467  0.17325057  0.06359937  1
  H+  H188  1  0.18994822  0.72137086  0.78220645  1
  H+  H189  1  0.87979557  0.25399873  0.17639979  1
  H+  H190  1  0.36770483  0.47702091  0.80846759  1
  H+  H191  1  0.47279109  0.35789901  0.66057767  1
  H+  H192  1  0.52659876  0.14147157  0.00146996  1
  H+  H193  1  0.87247750  0.35488223  0.83545629  1
  H+  H194  1  0.27921216  0.38942130  0.33252589  1
  H+  H195  1  0.49019344  0.62242300  0.66576415  1
  H+  H196  1  0.64144501  0.62043112  0.66127678  1
  H+  H197  1  0.40954781  0.42409935  0.14919203  1
  H+  H198  1  0.61045312  0.96570890  0.15918125  1
  H+  H199  1  0.65009619  0.86448440  0.52382107  1
  H+  H200  1  0.23068146  0.87291064  0.83633503  1
  H+  H201  1  0.08696773  0.23956531  0.18065172  1
  H+  H202  1  0.13605162  0.55115565  0.98440057  1
  H+  H203  1  0.12272987  1.00640388  0.68067922  1
  H+  H204  1  0.97297432  0.86638437  0.98347523  1
  H+  H205  1  0.14259744  0.78499058  0.83445609  1
  H+  H206  1  0.63320265  0.52143019  0.50735552  1
  H+  H207  1  1.00893655  0.15575959  0.49437769  1
  H+  H208  1  0.06572145  0.46359530  0.50562009  1
  H+  H209  1  0.36375206  0.28785891  0.97044104  1
  H+  H210  1  0.38401345  0.16186201  0.34865330  1
  H+  H211  1  0.11452018  0.20661768  0.02135630  1
  H+  H212  1  0.28320764  0.15565235  0.49431598  1
  H+  H213  1  0.86897576  0.01343722  0.17660835  1
  H+  H214  1  0.76825246  0.63829143  0.67588249  1
  H+  H215  1  0.37909130  0.99824827  0.32768490  1
  H+  H216  1  0.59935059  0.22869535  0.16097693  1
  H+  H217  1  0.86094551  0.39177686  0.67846005  1
  H+  H218  1  0.92325317  0.34515187  0.61328120  1
  H+  H219  1  0.11651697  0.65613273  -0.00199220  1
  H+  H220  1  0.84336287  0.87629694  0.81243236  1
  H+  H221  1  0.66342011  0.05807090  0.58162407  1
  H+  H222  1  0.09930313  0.67497002  0.75242566  1
  H+  H223  1  0.90634589  0.32697599  0.89377600  1
  H+  H224  1  0.26873020  0.38052677  0.49353856  1
  H+  H225  1  0.49565436  0.39087792  0.17016137  1
  H+  H226  1  0.76654559  0.31687486  0.48573394  1
  H+  H227  1  0.36376103  0.88711985  0.82653503  1
  H+  H228  1  0.26996406  0.63441563  0.16834109  1
  H+  H229  1  0.62773180  0.35860198  0.50027024  1
  H+  H230  1  1.00208709  0.10918977  0.16138349  1
  H+  H231  1  0.09927505  0.87397906  0.67716076  1
  H+  H232  1  0.12334174  0.23179751  0.82489840  1
  H+  H233  1  0.10696980  0.17883998  0.49012013  1
  H+  H234  1  0.01560989  0.38204821  0.16461651  1
  H+  H235  1  0.35489555  -0.01409240  0.50069664  1
  H+  H236  1  0.87850740  0.61590960  0.67030459  1
  H+  H237  1  0.34420096  0.18126319  0.17139937  1
  H+  H238  1  0.11709054  0.33117432  0.99602782  1
  H+  H239  1  0.07852694  0.91856619  0.77275851  1
  H+  H240  1  0.47369684  0.86370377  0.83011428  1
  H+  H241  1  0.27590184  0.63867279  0.81226442  1
  H+  H242  1  0.13133523  0.26979365  0.66476727  1
  H+  H243  1  0.12775253  0.33767947  0.16943288  1
  H+  H244  1  0.12351176  0.59149371  0.27958234  1
  H+  H245  1  0.43710685  0.59502374  0.57218193  1
  H+  H246  1  -0.00179205  0.88516171  0.33812773  1
  H+  H247  1  0.40780803  0.83202222  0.22068234  1
  H+  H248  1  0.12936792  0.61521835  0.17907730  1
  H+  H249  1  0.11759291  0.69960903  0.32111704  1
  H+  H250  1  0.42323832  0.34293254  0.26438391  1
  H+  H251  1  0.61730680  0.39071786  0.83024075  1
  H+  H252  1  0.52490321  0.64010516  0.81288241  1
  H+  H253  1  0.41265314  0.52299782  0.15211824  1
  H+  H254  1  0.70382678  0.36367350  0.18480535  1
  H+  H255  1  0.85781095  0.47599720  0.83119506  1
  H+  H256  1  0.88245893  0.47018770  0.15553197  1
  H+  H257  1  0.61848592  0.48912666  0.33144722  1
  H+  H258  1  0.36057321  0.63838136  0.16043549  1
  H+  H259  1  0.39103597  0.51794774  0.32419873  1
  H+  H260  1  0.12935616  0.52955876  0.18745386  1
  H+  H261  1  0.08806178  0.89490075  0.32610930  1
  H+  H262  1  0.63919990  -0.00609475  0.99816836  1
  H+  H263  1  0.63654815  0.52733373  0.99368501  1
  H+  H264  1  0.65310771  0.78779983  1.00324619  1
  H+  H265  1  0.60218967  0.87557879  0.81427194  1
  H+  H266  1  0.63157461  0.00843420  0.51715278  1
  H+  H267  1  0.63391929  0.52680092  0.66299658  1
  H+  H268  1  0.88031219  0.79691658  0.15861479  1
  H+  H269  1  0.26917982  0.13230156  0.67609557  1
  H+  H270  1  0.51521187  0.90498088  0.66210228  1
  H+  H271  1  0.76195394  0.11241559  0.67983688  1
  H+  H272  1  0.61391642  0.21263504  0.50213744  1
  H+  H273  1  0.14486263  0.27584763  0.32773697  1
  H+  H274  1  0.38353792  0.11015420  0.83673969  1
  H+  H275  1  0.86672084  0.23997608  0.82658500  1
  H+  H276  1  0.64299289  0.28191956  0.99645460  1
  H+  H277  1  0.13562979  0.11690176  0.84202641  1
  H+  H278  1  0.90272655  0.11648274  0.99974907  1
  H+  H279  1  0.08899646  0.65044530  0.42171546  1
  H+  H280  1  0.13673934  0.08646846  0.52695235  1
  H+  H281  1  0.10567122  0.47059800  0.67374406  1
  H+  H282  1  0.03746919  0.58841719  0.47424917  1
  H+  H283  1  0.38512316  0.02087915  0.83539822  1
  H+  H284  1  0.36116553  0.38469313  0.66196756  1
  H+  H285  1  -0.02911250  0.61457242  0.84393496  1
  H+  H286  1  0.84692940  0.73061716  0.49067601  1
  H+  H287  1  0.38831082  0.00677617  0.16423296  1
  H+  H288  1  0.41856405  0.33152763  0.59854883  1
  H+  H289  1  0.15811149  0.07383078  0.24069101  1
  H+  H290  1  0.37764664  0.89787151  0.67701532  1
  H+  H291  1  0.61564400  0.47999744  0.83010213  1
  H+  H292  1  0.70220733  0.27478392  0.29546170  1
  H+  H293  1  0.07739759  0.91160553  0.05691229  1
  H+  H294  1  0.88429500  0.44950234  0.08451385  1
  H+  H295  1  0.14865969  0.55855542  0.60242288  1
  H+  H296  1  0.07445068  0.40225410  0.07222515  1
  H+  H297  1  0.07967858  0.16495973  0.77020450  1
  H+  H298  1  0.41259912  0.05770365  0.22864149  1
  H+  H299  1  0.07958619  0.67408019  0.05912426  1
  H+  H300  1  0.66893021  0.59084091  0.93705676  1
  H+  H301  1  0.33399444  0.41245089  0.72226152  1
  H+  H302  1  0.78121854  0.89442280  0.49733557  1
  H+  H303  1  0.65640849  0.87913754  0.99344486  1
  H+  H304  1  0.46735663  0.59291165  0.93371836  1
  H+  H305  1  0.34174612  0.68223244  0.75418984  1
  H+  H306  1  0.62267804  0.40287918  0.33720722  1
  H+  H307  1  0.87513649  0.88301311  0.99059725  1
  H+  H308  1  0.83556476  0.16636635  0.76473921  1
  H+  H309  1  0.41165897  0.07455074  0.92692088  1
  H+  H310  1  0.57580945  0.17105894  0.74834648  1
  H+  H311  1  0.91743374  0.60403880  0.60947868  1
  H+  H312  1  0.58042266  0.42293717  0.06381588  1
  H+  H313  1  0.90657028  0.07580279  0.23461747  1
  H+  H314  1  0.44871490  0.87413375  0.60765586  1
  H+  H315  1  0.01659775  0.45362913  0.12796670  1
  H+  H316  1  0.58366136  0.41877316  0.73428762  1
  H+  H317  1  0.72016460  0.39352136  0.52361230  1
  H+  H318  1  0.59321070  0.93079283  0.76090353  1
  H+  H319  1  0.36115693  0.87836885  0.14592029  1
  H+  H320  1  0.18785906  0.34520099  0.89061072  1
  H+  H321  1  0.90155540  0.82138124  0.26877798  1
  H+  H322  1  0.00863413  0.12721698  0.67753662  1
  H+  H323  1  0.47247848  0.85578431  0.30990546  1
  H+  H324  1  0.66296461  0.32244009  0.60795981  1
  H+  H325  1  0.77796505  0.88668336  -0.00091935  1
  H+  H326  1  0.19216222  0.17192600  0.56368480  1
  H+  H327  1  0.90798306  0.08719268  0.56907114  1
  H+  H328  1  0.06491592  0.89137070  0.42789673  1
  H+  H329  1  0.16430632  0.82749039  0.60242826  1
  H+  H330  1  0.61150704  0.66061264  0.11344912  1
  H+  H331  1  0.88278815  0.61799828  1.00099286  1
  H+  H332  1  0.81394566  0.14941157  0.39516384  1
  H+  H333  1  0.14253806  0.05423661  0.61994234  1
  H+  H334  1  0.82972082  0.66398586  0.40238408  1
  H+  H335  1  0.85567925  0.72914049  0.67758874  1
  H+  H336  1  0.32671746  0.14210862  0.07259642  1
  H+  H337  1  0.62221053  0.85221399  0.17989094  1
  H+  H338  1  0.09369685  0.41629754  0.74985349  1
  H+  H339  1  0.56087654  0.15878616  0.40920335  1
  H+  H340  1  0.66511606  0.58069143  0.56761137  1
  H+  H341  1  0.82465704  0.66511753  0.76962536  1
  H+  H342  1  0.90743751  0.32010754  0.26997711  1
  H+  H343  1  0.33461184  0.91709161  0.76626894  1
  H+  H344  1  0.18219757  0.81238573  0.25291858  1
  H+  H345  1  0.17812381  0.84195047  0.92746147  1
  H+  H346  1  0.17322719  0.09531951  0.92549836  1
  H+  H347  1  0.17087884  0.58772429  0.88940020  1
  H+  H348  1  0.83274719  0.39518686  0.40371736  1
  H+  H349  1  0.11116713  0.89198778  0.99677602  1
  H+  H350  1  0.72137134  0.86061097  0.61151344  1
  H+  H351  1  0.66713413  0.33474378  0.90312772  1
  H+  H352  1  0.33276378  0.91496355  0.40690714  1
  H+  H353  1  0.83119134  0.91606246  0.39991115  1
  H+  H354  1  0.91920312  0.74547812  0.18944161  1
  H+  H355  1  0.00907536  0.57386132  0.12517234  1
  H+  H356  1  0.36900694  0.62439521  0.33228704  1
  H+  H357  1  0.85903161  0.17292898  0.07331404  1
  H+  H358  1  0.33263294  0.91584118  0.06167252  1
  H+  H359  1  0.57940240  0.42188146  0.43173678  1
  H+  H360  1  0.07834569  0.13797580  0.07707575  1
  H+  H361  1  0.42166608  0.08945438  0.60676991  1
  H+  H362  1  0.88373530  0.86927269  0.50756434  1
  H+  H363  1  0.67813372  0.09727183  0.93447466  1
  H+  H364  1  0.64442132  0.74852241  0.67772439  1
  H+  H365  1  0.37288626  0.45257148  0.08703344  1
  H+  H366  1  0.90568026  0.83140438  0.60471965  1
  H+  H367  1  0.91316095  0.58984531  0.90322848  1
  H+  H368  1  0.10810876  0.96441588  0.16433852  1
  H+  H369  1  0.76969761  0.38435586  0.34934902  1
  H+  H370  1  0.87352865  0.10268668  0.32619767  1
  H+  H371  1  0.64621458  0.32872239  0.24214416  1
  H+  H372  1  0.65749139  0.82606641  0.27309520  1
  H+  H373  1  0.66608596  0.83376997  0.89600348  1
  H+  H374  1  0.78167038  0.39732671  0.00920575  1
  H+  H375  1  0.34105064  0.17710612  0.43506306  1
  H+  H376  1  0.90980969  0.83699990  0.92425215  1
  H+  H377  1  0.42771779  0.58447507  0.23519540  1
  H+  H378  1  0.32246792  0.62675606  0.42444783  1
  H+  H379  1  0.60368681  0.68402757  0.73351036  1
  H+  H380  1  0.92044370  0.09829561  0.90131347  1
  H+  H381  1  0.80723425  0.89992647  0.75271487  1
  H+  H382  1  0.86930545  0.01206826  0.65743263  1
  H+  H383  1  0.46816872  0.63543152  0.93280794  1
  O2-  O384  1  0.06374058  0.13825915  0.14644752  1
  O2-  O385  1  0.06550687  0.19407733  0.47392534  1
  O2-  O386  1  0.08830302  0.16947936  0.81555247  1
  O2-  O387  1  0.05620145  0.43299755  0.13948465  1
  O2-  O388  1  0.00654755  0.43032288  0.48788906  1
  O2-  O389  1  0.10097167  0.41917074  0.80369707  1
  O2-  O390  1  0.04999530  0.63547772  0.13439106  1
  O2-  O391  1  0.08413816  0.64707707  0.46688649  1
  O2-  O392  1  0.12947345  0.69125521  0.79407473  1
  O2-  O393  1  0.08550387  0.90681864  0.14470405  1
  O2-  O394  1  0.06833462  0.88374459  0.47277324  1
  O2-  O395  1  0.08132788  0.92477254  0.81793297  1
  O2-  O396  1  0.31835580  0.12770380  0.14852170  1
  O2-  O397  1  0.34195238  0.17370249  0.48032292  1
  O2-  O398  1  0.33476296  0.16789718  0.81213852  1
  O2-  O399  1  0.41011397  0.47215826  0.12455697  1
  O2-  O400  1  0.32386685  0.38910443  0.47639596  1
  O2-  O401  1  0.33784827  0.41353979  0.80014713  1
  O2-  O402  1  0.32558795  0.66347110  0.14641598  1
  O2-  O403  1  0.31612214  0.61523658  0.46943606  1
  O2-  O404  1  0.33706901  0.67359316  0.80067898  1
  O2-  O405  1  0.33265184  0.91176258  0.12771570  1
  O2-  O406  1  0.32881839  0.92551214  0.48481534  1
  O2-  O407  1  0.33274460  0.91782660  0.81194597  1
  O2-  O408  1  0.57751949  0.17170817  0.14228496  1
  O2-  O409  1  0.58012402  0.15247913  0.48921425  1
  O2-  O410  1  0.57863570  0.17202784  0.81194872  1
  O2-  O411  1  0.58668746  0.43985552  0.14582088  1
  O2-  O412  1  0.58097646  0.41592809  0.47642280  1
  O2-  O413  1  0.58700820  0.42001031  0.81307941  1
  O2-  O414  1  0.60762912  0.65460803  0.16054664  1
  O2-  O415  1  0.59892467  0.68174154  0.48247933  1
  O2-  O416  1  0.58827628  0.66904243  0.80891962  1
  O2-  O417  1  0.58097550  0.90257772  0.15397765  1
  O2-  O418  1  0.56399330  0.88260179  0.47548047  1
  O2-  O419  1  0.56224171  0.89068383  0.79402529  1
  O2-  O420  1  0.83129991  0.16304711  0.14833640  1
  O2-  O421  1  0.80976957  0.15689615  0.47668871  1
  O2-  O422  1  0.84110719  0.17366535  0.81172321  1
  O2-  O423  1  0.91913408  0.46726236  0.12410983  1
  O2-  O424  1  0.81580324  0.32313453  0.46258152  1
  O2-  O425  1  0.82592467  0.41634672  0.81517520  1
  O2-  O426  1  0.78811517  0.59580952  0.09823771  1
  O2-  O427  1  0.82376211  0.67090701  0.47438087  1
  O2-  O428  1  0.82441997  0.66559397  0.81534954  1
  O2-  O429  1  0.81804812  0.91145740  0.15936795  1
  O2-  O430  1  0.84004511  0.92533412  0.47870451  1
  O2-  O431  1  0.80656114  0.89901675  0.79832394  1
  O2-  O432  1  0.15238288  0.06467363  0.19564785  1
  O2-  O433  1  0.18339312  0.14568590  0.52351466  1
  O2-  O434  1  0.16621689  0.08718472  0.85928877  1
  O2-  O435  1  0.09184839  0.29268892  0.19800802  1
  O2-  O436  1  0.17055779  0.35879922  0.52340810  1
  O2-  O437  1  0.18365424  0.34147495  0.84606468  1
  O2-  O438  1  0.15842200  0.58982774  0.20206511  1
  O2-  O439  1  0.16103178  0.55799421  0.52334176  1
  O2-  O440  1  0.16774047  0.57770711  0.84476087  1
  O2-  O441  1  0.17257055  0.83086312  0.17742798  1
  O2-  O442  1  0.16255920  0.81665614  0.52118873  1
  O2-  O443  1  0.17018199  0.84311939  0.85297357  1
  O2-  O444  1  0.41384958  0.06513021  0.18330932  1
  O2-  O445  1  0.41489733  0.08599402  0.52888000  1
  O2-  O446  1  0.41457390  0.08095186  0.85259564  1
  O2-  O447  1  0.43214217  0.36111060  0.18390630  1
  O2-  O448  1  0.42323692  0.34054651  0.52255357  1
  O2-  O449  1  0.42382174  0.33811948  0.84641978  1
  O2-  O450  1  0.43412559  0.59429136  0.18908056  1
  O2-  O451  1  0.44638180  0.59433937  0.52765605  1
  O2-  O452  1  0.41036937  0.58170219  0.82213125  1
  O2-  O453  1  0.40472708  0.83429755  0.17432540  1
  O2-  O454  1  0.41953179  0.86150575  0.52990285  1
  O2-  O455  1  0.41542573  0.83685641  0.85078627  1
  O2-  O456  1  0.66508197  0.08006840  0.17619198  1
  O2-  O457  1  0.65701596  0.06576990  0.53483908  1
  O2-  O458  1  0.66879663  0.08773233  0.85751169  1
  O2-  O459  1  0.64441192  0.34041024  0.19772358  1
  O2-  O460  1  0.66656330  0.33902665  0.51908661  1
  O2-  O461  1  0.66256411  0.33189335  0.85764199  1
  O2-  O462  1  0.65574593  0.60995951  0.17635627  1
  O2-  O463  1  0.66591999  0.58194591  0.52204638  1
  O2-  O464  1  0.66125234  0.58191631  0.85885398  1
  O2-  O465  1  0.65640006  0.82537315  0.19789621  1
  O2-  O466  1  0.68562465  0.83849363  0.53284131  1
  O2-  O467  1  0.65732555  0.82707319  0.85147294  1
  O2-  O468  1  0.90591064  0.07557747  0.18896904  1
  O2-  O469  1  0.91015177  0.09102624  0.52340715  1
  O2-  O470  1  0.92246960  0.10926927  0.85665355  1
  O2-  O471  1  0.91254157  0.31570981  0.19303799  1
  O2-  O472  1  0.95788745  0.36092139  0.53209385  1
  O2-  O473  1  0.90153306  0.32260718  0.84839753  1
  O2-  O474  1  0.91509986  0.64849062  0.18048472  1
  O2-  O475  1  0.94601007  0.66172344  0.54405070  1
  O2-  O476  1  0.91136340  0.58440443  0.85756729  1
  O2-  O477  1  0.92105012  0.80208616  0.19006354  1
  O2-  O478  1  0.90386416  0.82985690  0.52363806  1
  O2-  O479  1  0.90636290  0.83376300  0.84873576  1
  O2-  O480  1  0.16451344  0.08995916  0.31869354  1
  O2-  O481  1  0.15229381  0.06683000  0.66319664  1
  O2-  O482  1  0.17968008  0.09957121  0.97349049  1
  O2-  O483  1  0.18984153  0.32391839  0.30416713  1
  O2-  O484  1  0.16034162  0.33059946  0.65116763  1
  O2-  O485  1  0.14236556  0.29994561  0.97411222  1
  O2-  O486  1  0.11463358  0.58756244  0.32478689  1
  O2-  O487  1  0.13796422  0.55449601  0.64697646  1
  O2-  O488  1  0.17230445  0.60867142  0.96811356  1
  O2-  O489  1  0.18524176  0.79885038  0.29678512  1
  O2-  O490  1  0.16299475  0.82868279  0.64760273  1
  O2-  O491  1  0.18295257  0.84540755  0.97340704  1
  O2-  O492  1  0.39777695  0.05576444  0.30488440  1
  O2-  O493  1  0.42208451  0.08903164  0.65244741  1
  O2-  O494  1  0.41127303  0.07048596  0.97306446  1
  O2-  O495  1  0.42260181  0.33792798  0.30921574  1
  O2-  O496  1  0.41311842  0.32587220  0.64421208  1
  O2-  O497  1  0.41332776  0.34482099  0.96428377  1
  O2-  O498  1  0.42381346  0.57966520  0.30769176  1
  O2-  O499  1  0.43010743  0.59504471  0.65103925  1
  O2-  O500  1  0.43138739  0.60599444  1.04354805  1
  O2-  O501  1  0.41462127  0.82084763  0.29136495  1
  O2-  O502  1  0.45304719  0.87119678  0.65238663  1
  O2-  O503  1  0.42752152  0.83415693  0.97439704  1
  O2-  O504  1  0.66120796  0.07960177  0.29552329  1
  O2-  O505  1  0.67873709  0.05410024  0.64955223  1
  O2-  O506  1  0.68288350  0.09835055  0.97975440  1
  O2-  O507  1  0.67252573  0.30327361  0.31218277  1
  O2-  O508  1  0.66420183  0.32419543  0.65280335  1
  O2-  O509  1  0.67664469  0.34302397  0.98198988  1
  O2-  O510  1  0.66561123  0.59122073  0.30376116  1
  O2-  O511  1  0.66736706  0.58582230  0.64587406  1
  O2-  O512  1  0.66994910  0.58923673  0.98269325  1
  O2-  O513  1  0.65760309  0.82695079  0.31895713  1
  O2-  O514  1  0.71989614  0.86712653  0.65632908  1
  O2-  O515  1  0.68394119  0.84271832  0.98100400  1
  O2-  O516  1  0.90445574  0.07234297  0.31184053  1
  O2-  O517  1  0.90737299  0.07554960  0.64677584  1
  O2-  O518  1  0.92307604  0.07943828  0.97780812  1
  O2-  O519  1  0.90359750  0.31859301  0.31534443  1
  O2-  O520  1  0.91061949  0.33375239  0.65707357  1
  O2-  O521  1  0.91544805  0.33760796  0.97039475  1
  O2-  O522  1  0.90746556  0.57577844  0.32762946  1
  O2-  O523  1  0.90830665  0.58575029  0.65320807  1
  O2-  O524  1  0.91557029  0.59431033  0.97921052  1
  O2-  O525  1  0.90133313  0.82464548  0.31381482  1
  O2-  O526  1  0.90555068  0.83314187  0.64999081  1
  O2-  O527  1  0.91173435  0.84012676  0.96998748  1
  O2-  O528  1  0.08890885  0.14469267  0.03070570  1
  O2-  O529  1  0.06554365  0.16732304  0.35369181  1
  O2-  O530  1  0.06941402  0.15933373  0.69335421  1
  O2-  O531  1  0.08841654  0.39825531  0.02817770  1
  O2-  O532  1  0.07913599  0.41952153  0.36115475  1
  O2-  O533  1  0.08146326  0.40942356  0.69453117  1
  O2-  O534  1  0.08533491  0.68473396  0.01443274  1
  O2-  O535  1  0.07667824  0.64184706  0.34024246  1
  O2-  O536  1  0.07329777  0.65985375  0.68418397  1
  O2-  O537  1  0.07515834  0.91467165  0.01228853  1
  O2-  O538  1  0.06018237  0.91637412  0.35315623  1
  O2-  O539  1  0.06995726  0.90367559  0.69463612  1
  O2-  O540  1  0.33467672  0.15428298  0.02754258  1
  O2-  O541  1  0.34203666  0.18030448  0.35606765  1
  O2-  O542  1  0.33046011  0.16390341  0.68821565  1
  O2-  O543  1  0.33752539  0.42738787  0.01636208  1
  O2-  O544  1  0.33928907  0.42474930  0.35066288  1
  O2-  O545  1  0.33168520  0.41569863  0.67708322  1
  O2-  O546  1  0.32451185  0.67657201  0.02142511  1
  O2-  O547  1  0.33675948  0.65273975  0.34911969  1
  O2-  O548  1  0.35910526  0.69460861  0.68506906  1
  O2-  O549  1  0.33237940  0.91787590  0.01341299  1
  O2-  O550  1  0.34653987  0.91614686  0.36302758  1
  O2-  O551  1  0.33612132  0.91728919  0.68860030  1
  O2-  O552  1  0.58451884  0.17790402  0.01840057  1
  O2-  O553  1  0.54871677  0.17907199  0.37053219  1
  O2-  O554  1  0.57587198  0.16967287  0.69934253  1
  O2-  O555  1  0.58201954  0.41929993  0.01887371  1
  O2-  O556  1  0.58830594  0.42887955  0.34836631  1
  O2-  O557  1  0.58085871  0.41762994  0.68882209  1
  O2-  O558  1  0.60392809  0.67689136  0.04388863  1
  O2-  O559  1  0.58479842  0.66317625  0.35877823  1
  O2-  O560  1  0.60646292  0.68709343  0.68782631  1
  O2-  O561  1  0.61299700  0.93152677  0.00928972  1
  O2-  O562  1  0.57506080  0.91453219  0.34468145  1
  O2-  O563  1  0.63378990  0.96592098  0.67520888  1
  O2-  O564  1  0.88821210  0.18424323  0.03307176  1
  O2-  O565  1  0.82049771  0.15262374  0.35025881  1
  O2-  O566  1  0.82461828  0.15497603  0.69653377  1
  O2-  O567  1  0.84469583  0.42977572  0.01865508  1
  O2-  O568  1  0.82998193  0.41994555  0.36350377  1
  O2-  O569  1  0.82677839  0.41932651  0.69075221  1
  O2-  O570  1  0.82027038  0.64835682  0.04229776  1
  O2-  O571  1  0.83706671  0.66085705  0.35634201  1
  O2-  O572  1  0.82789426  0.66873478  0.69321182  1
  O2-  O573  1  0.84274795  0.91702636  0.01019231  1
  O2-  O574  1  0.82736834  0.91095397  0.35454650  1
  O2-  O575  1  0.81217891  0.90882806  0.67526127  1
