# generated using pymatgen
data_H2O
_symmetry_space_group_name_H-M   'P 1'
_cell_length_a   17.98851256
_cell_length_b   17.99173596
_cell_length_c   22.00852760
_cell_angle_alpha   89.99462250
_cell_angle_beta   90.02088407
_cell_angle_gamma   119.98345699
_symmetry_Int_Tables_number   1
_chemical_formula_structural   H2O
_chemical_formula_sum   'H384 O192'
_cell_volume   6169.67495224
_cell_formula_units_Z   192
loop_
 _symmetry_equiv_pos_site_id
 _symmetry_equiv_pos_as_xyz
  1  'x, y, z'
loop_
 _atom_type_symbol
 _atom_type_oxidation_number
  H+  1.0
  O2-  -2.0
loop_
 _atom_site_type_symbol
 _atom_site_label
 _atom_site_symmetry_multiplicity
 _atom_site_fract_x
 _atom_site_fract_y
 _atom_site_fract_z
 _atom_site_occupancy
  H+  H0  1  0.28299584  0.87928827  0.66260195  1
  H+  H1  1  -0.04709171  0.57270902  0.16938986  1
  H+  H2  1  0.63839599  0.28581692  0.83767438  1
  H+  H3  1  0.41507775  0.40993801  0.50072559  1
  H+  H4  1  0.35212927  0.44274133  0.58723040  1
  H+  H5  1  0.25436738  0.36674438  0.32701638  1
  H+  H6  1  0.57711808  0.39834350  0.11532919  1
  H+  H7  1  0.12414546  0.08604758  -0.00602090  1
  H+  H8  1  0.65859967  0.11587922  0.49355453  1
  H+  H9  1  0.74547169  0.09680271  0.17946210  1
  H+  H10  1  0.20369326  0.12154602  0.17881929  1
  H+  H11  1  0.42659261  0.75295662  0.31348014  1
  H+  H12  1  0.73704820  0.37942737  0.33001289  1
  H+  H13  1  0.69252353  0.63738565  0.89824034  1
  H+  H14  1  0.15397556  0.37217522  0.17243645  1
  H+  H15  1  0.84597535  0.99489436  0.14946811  1
  H+  H16  1  0.38696019  0.84756843  0.17607249  1
  H+  H17  1  0.84830900  0.43959153  0.16573113  1
  H+  H18  1  0.40508541  0.56137357  0.40285932  1
  H+  H19  1  0.64188269  0.28509242  0.99504073  1
  H+  H20  1  0.36775700  0.16051602  0.32888690  1
  H+  H21  1  0.77843059  0.65230580  0.82935296  1
  H+  H22  1  0.88873972  0.62080252  0.51106695  1
  H+  H23  1  0.85531148  0.15924856  0.07523900  1
  H+  H24  1  0.10824589  0.30314016  0.33196634  1
  H+  H25  1  0.14588637  0.86238719  0.65649870  1
  H+  H26  1  0.31416080  0.92336843  0.15937259  1
  H+  H27  1  0.38617180  0.51891875  0.16505523  1
  H+  H28  1  0.47541460  0.36640862  0.68230583  1
  H+  H29  1  0.88714410  0.10361074  -0.00599997  1
  H+  H30  1  0.94680879  0.36206310  0.86338972  1
  H+  H31  1  0.19401018  0.90962605  0.88360582  1
  H+  H32  1  0.90225479  0.57969812  0.61444786  1
  H+  H33  1  0.62910379  0.49998538  0.83715067  1
  H+  H34  1  0.60428071  0.38074217  0.01763336  1
  H+  H35  1  0.12337907  0.48735213  0.66886071  1
  H+  H36  1  0.12857080  0.79646245  0.30791387  1
  H+  H37  1  0.38001110  0.11781933  1.00911430  1
  H+  H38  1  0.40792476  0.63413483  0.86680525  1
  H+  H39  1  0.86649848  0.48182933  0.68658789  1
  H+  H40  1  0.35390771  0.71461867  0.15734712  1
  H+  H41  1  0.62932356  0.90673462  0.33555482  1
  H+  H42  1  0.60799745  0.65023825  0.16459211  1
  H+  H43  1  0.34178187  0.95721335  0.00235077  1
  H+  H44  1  0.35546222  -0.12355892  0.82389869  1
  H+  H45  1  0.12971032  0.38510147  0.82572107  1
  H+  H46  1  0.85932001  0.26890770  0.86935286  1
  H+  H47  1  0.47588732  0.62026638  0.16729317  1
  H+  H48  1  0.85166006  0.47619309  0.50542697  1
  H+  H49  1  0.89413523  0.12202045  0.64311412  1
  H+  H50  1  0.66354021  0.83853101  0.56329571  1
  H+  H51  1  0.47996242  0.37919438  0.31784242  1
  H+  H52  1  0.88748854  0.20908091  0.17355015  1
  H+  H53  1  0.52498341  0.65178659  0.67640269  1
  H+  H54  1  0.65021841  0.03793629  0.65478501  1
  H+  H55  1  0.78765364  0.11840782  0.50610285  1
  H+  H56  1  0.96797179  0.60931256  0.53183016  1
  H+  H57  1  0.20796506  0.89347863  0.30893451  1
  H+  H58  1  0.91046598  0.07656235  0.90101200  1
  H+  H59  1  0.11371900  0.76401688  0.49655668  1
  H+  H60  1  0.49938676  0.33427087  0.45662298  1
  H+  H61  1  0.03935140  0.58421361  0.01009701  1
  H+  H62  1  0.46741757  0.62748134  0.92196718  1
  H+  H63  1  0.86455630  0.61143987  0.99931466  1
  H+  H64  1  0.77713219  0.65311524  0.68093088  1
  H+  H65  1  0.73335289  0.86877635  0.83896318  1
  H+  H66  1  0.45728804  0.83011293  0.57586261  1
  H+  H67  1  0.50769468  0.84648325  0.30855435  1
  H+  H68  1  0.33678623  0.41857273  0.06616232  1
  H+  H69  1  0.13993392  0.61807621  0.66112215  1
  H+  H70  1  0.39108393  0.07216657  0.28762967  1
  H+  H71  1  0.38411256  0.12024421  0.67867534  1
  H+  H72  1  0.12382799  0.31471792  0.99870477  1
  H+  H73  1  0.23941975  0.37148116  0.84801854  1
  H+  H74  1  0.10883960  0.63353999  0.83092197  1
  H+  H75  1  0.15152561  0.63579273  0.99236214  1
  H+  H76  1  0.36555288  0.64061081  0.67360157  1
  H+  H77  1  0.86275118  0.87721507  0.48724294  1
  H+  H78  1  0.63314920  0.77935276  0.50265514  1
  H+  H79  1  0.23081436  0.62081749  0.66043830  1
  H+  H80  1  0.83832444  0.71163970  0.02035883  1
  H+  H81  1  0.15225017  0.06845404  0.90526736  1
  H+  H82  1  0.00959548  0.14440025  0.14423700  1
  H+  H83  1  0.51096366  0.37398955  1.01998221  1
  H+  H84  1  1.02085137  0.13466855  0.67822789  1
  H+  H85  1  0.87828354  0.22705235  1.02256530  1
  H+  H86  1  0.62420537  0.79253310  0.66909806  1
  H+  H87  1  0.27098017  0.62376693  0.14632924  1
  H+  H88  1  0.34517981  0.90440353  0.53943470  1
  H+  H89  1  1.00127432  0.88870702  0.33930433  1
  H+  H90  1  0.11322979  0.90760993  0.15426700  1
  H+  H91  1  0.61955092  0.27815207  0.65593369  1
  H+  H92  1  0.25932378  0.86316516  1.00666080  1
  H+  H93  1  0.99039454  0.38244803  0.66980661  1
  H+  H94  1  0.23204476  0.87505275  0.83406055  1
  H+  H95  1  0.98206757  0.87764361  0.50167838  1
  H+  H96  1  0.13357969  0.60380882  0.50123915  1
  H+  H97  1  0.62994460  0.15883439  0.83034445  1
  H+  H98  1  0.62734269  0.77913816  0.31795536  1
  H+  H99  1  0.47100884  0.15804596  0.52451338  1
  H+  H100  1  0.40082900  0.31362352  0.83393257  1
  H+  H101  1  0.60758519  0.89540835  0.15766114  1
  H+  H102  1  0.34816040  0.67173076  0.05669711  1
  H+  H103  1  0.21273111  0.12289965  0.50878077  1
  H+  H104  1  0.53734758  0.41371161  0.83668936  1
  H+  H105  1  0.23137952  0.36800170  0.64279219  1
  H+  H106  1  0.56919477  0.48675679  0.44727506  1
  H+  H107  1  0.11080251  0.14007748  0.83416964  1
  H+  H108  1  0.09328010  0.24518847  0.52024900  1
  H+  H109  1  0.11131044  0.99314974  0.67192877  1
  H+  H110  1  0.64076434  0.63606482  0.83955571  1
  H+  H111  1  0.88486586  0.34274200  0.16080368  1
  H+  H112  1  0.37810453  0.40218905  0.16132806  1
  H+  H113  1  0.02949031  0.37646412  0.14542947  1
  H+  H114  1  0.58468406  0.17925091  0.37033193  1
  H+  H115  1  0.08326753  0.11797643  0.51398974  1
  H+  H116  1  0.28258066  0.63647794  0.83159712  1
  H+  H117  1  0.39315332  0.53468690  0.65148840  1
  H+  H118  1  0.79893871  0.66128051  0.47774802  1
  H+  H119  1  0.66417604  0.66296886  0.48105989  1
  H+  H120  1  0.57447678  0.60185158  0.01132878  1
  H+  H121  1  0.88190924  0.61717397  0.67314524  1
  H+  H122  1  0.38268542  0.36256686  0.00109851  1
  H+  H123  1  0.52871255  0.63877626  0.48249727  1
  H+  H124  1  0.47788210  0.86159863  0.83676775  1
  H+  H125  1  0.60467021  0.47559018  0.44973705  1
  H+  H126  1  0.10764101  0.72134230  0.83141111  1
  H+  H127  1  0.84994667  -0.03806150  1.00223377  1
  H+  H128  1  0.25094539  0.10063444  0.84181796  1
  H+  H129  1  0.07055259  0.38038395  0.41396154  1
  H+  H130  1  0.88922389  0.78760185  0.65853574  1
  H+  H131  1  0.76179120  0.87184434  0.00480084  1
  H+  H132  1  0.33930716  0.23127279  0.16333660  1
  H+  H133  1  0.47357985  0.35618140  0.17463783  1
  H+  H134  1  0.63188838  0.12180473  0.30501785  1
  H+  H135  1  0.55414463  -0.13028509  0.66659194  1
  H+  H136  1  0.64084010  1.01936769  0.49988776  1
  H+  H137  1  0.09565868  0.90549134  0.32956440  1
  H+  H138  1  0.82027288  0.92482891  0.09598669  1
  H+  H139  1  0.88225198  0.77883409  0.83515513  1
  H+  H140  1  0.10600702  0.46420050  0.49966595  1
  H+  H141  1  0.48209135  0.10682697  0.43883188  1
  H+  H142  1  0.85657745  0.19964585  0.36305197  1
  H+  H143  1  0.95827971  0.61761158  1.00003389  1
  H+  H144  1  0.53557256  0.88983971  0.49523119  1
  H+  H145  1  0.61793931  0.49447793  0.30002603  1
  H+  H146  1  0.41718463  0.86860019  0.66518493  1
  H+  H147  1  0.78480268  0.16211784  0.63884233  1
  H+  H148  1  0.01770096  0.40221161  0.00571780  1
  H+  H149  1  0.34325102  0.93321644  0.32464059  1
  H+  H150  1  0.03059011  0.65340297  0.32099755  1
  H+  H151  1  0.38727669  0.17018529  0.53068966  1
  H+  H152  1  0.62375987  0.24930314  0.31788951  1
  H+  H153  1  0.84746529  0.38940564  0.84828325  1
  H+  H154  1  0.28785600  0.40211551  0.16487228  1
  H+  H155  1  0.37905369  0.61343531  0.16165712  1
  H+  H156  1  0.89072025  0.73978849  0.48317017  1
  H+  H157  1  0.10700360  0.41774095  -0.02076277  1
  H+  H158  1  0.62103844  0.36983951  0.65827581  1
  H+  H159  1  0.85095752  0.68828203  0.16730885  1
  H+  H160  1  0.27944029  0.15840669  0.34280058  1
  H+  H161  1  0.97713111  0.87091573  0.83033130  1
  H+  H162  1  0.01045142  0.37918420  0.49981256  1
  H+  H163  1  0.42063980  0.83320972  0.89686963  1
  H+  H164  1  0.35065010  0.22286128  1.00662919  1
  H+  H165  1  0.62127388  0.00986467  0.85845815  1
  H+  H166  1  0.54075851  0.16132625  0.00817474  1
  H+  H167  1  0.31619021  0.98499816  0.36671304  1
  H+  H168  1  0.38411797  0.85562459  0.98809615  1
  H+  H169  1  0.51541531  0.90239627  0.00489210  1
  H+  H170  1  0.56553583  0.16817275  0.14737015  1
  H+  H171  1  0.34876859  0.37868493  0.32914851  1
  H+  H172  1  0.85143305  0.19136458  0.58504348  1
  H+  H173  1  0.88465345  0.37238738  1.01321959  1
  H+  H174  1  0.14230362  0.36655158  0.65944024  1
  H+  H175  1  0.61973293  0.33728741  0.49781422  1
  H+  H176  1  0.90702641  0.58884287  0.90745352  1
  H+  H177  1  0.85494875  0.48598405  0.84329340  1
  H+  H178  1  0.64060370  0.01340378  0.16902222  1
  H+  H179  1  0.43259096  0.04636767  0.15167780  1
  H+  H180  1  0.12538780  0.59786005  0.15900274  1
  H+  H181  1  0.43209836  0.59946583  0.59944340  1
  H+  H182  1  0.66444637  0.59857957  0.61888833  1
  H+  H183  1  0.95328024  0.83632297  1.00159009  1
  H+  H184  1  0.87248912  0.48560654  0.34847098  1
  H+  H185  1  0.71576619  0.31834974  0.15903377  1
  H+  H186  1  0.63736835  0.03570187  0.31834444  1
  H+  H187  1  0.24084335  0.08350890  0.65928521  1
  H+  H188  1  0.89410158  0.10219846  0.32974854  1
  H+  H189  1  0.89509898  0.29349857  0.64961365  1
  H+  H190  1  0.62046374  0.73908051  0.82886146  1
  H+  H191  1  0.89236512  0.38521746  0.67916942  1
  H+  H192  1  0.14430696  0.54513947  0.99339470  1
  H+  H193  1  0.11753059  0.01573972  0.84246831  1
  H+  H194  1  0.36382336  0.01689826  0.48935155  1
  H+  H195  1  0.76966343  0.39443673  0.01048980  1
  H+  H196  1  0.86603838  0.64844280  0.83370040  1
  H+  H197  1  0.62159468  0.88852082  0.83098629  1
  H+  H198  1  0.17995258  0.82957920  0.15466336  1
  H+  H199  1  0.07867527  0.92498256  0.43008236  1
  H+  H200  1  0.63613325  0.63383989  0.67489274  1
  H+  H201  1  0.29028419  0.65015474  0.99834791  1
  H+  H202  1  0.36439558  0.97181776  0.66730609  1
  H+  H203  1  0.10507802  0.88959675  0.81518168  1
  H+  H204  1  0.96152179  0.09362358  0.56415534  1
  H+  H205  1  0.85162875  0.89157166  0.66602047  1
  H+  H206  1  0.14680256  0.55870348  0.31203687  1
  H+  H207  1  0.32502869  1.01064381  0.50681689  1
  H+  H208  1  0.39822151  0.07763792  0.85743712  1
  H+  H209  1  0.96834389  0.61180252  0.84761669  1
  H+  H210  1  0.84944086  0.96869412  0.33864015  1
  H+  H211  1  0.74840955  0.62058431  0.01769938  1
  H+  H212  1  0.95953065  0.33640821  0.34800313  1
  H+  H213  1  0.26387674  0.12905267  1.00436669  1
  H+  H214  1  0.33169127  0.82258998  0.32097830  1
  H+  H215  1  0.76565352  0.87424458  0.49222951  1
  H+  H216  1  0.86243991  0.73054898  0.32546988  1
  H+  H217  1  0.86806632  -0.01430883  0.82444393  1
  H+  H218  1  0.12602355  0.66742480  0.31480221  1
  H+  H219  1  0.87028429  0.85790323  0.32839012  1
  H+  H220  1  0.13700475  0.52290676  0.84100919  1
  H+  H221  1  0.67250394  0.83460528  0.89949777  1
  H+  H222  1  0.96449728  0.88348122  0.17411974  1
  H+  H223  1  0.60468581  0.64346157  0.32139618  1
  H+  H224  1  0.13267275  0.76793748  0.66099239  1
  H+  H225  1  0.48336480  0.15427951  0.29585122  1
  H+  H226  1  0.10707324  0.41900695  0.34963391  1
  H+  H227  1  0.39978345  0.82232453  0.52123971  1
  H+  H228  1  0.13063072  1.00032022  -0.00894087  1
  H+  H229  1  0.39726058  0.77337513  0.99001952  1
  H+  H230  1  0.71947104  0.61241378  0.19825127  1
  H+  H231  1  0.52281695  0.20808046  0.44518566  1
  H+  H232  1  0.17328909  0.32983329  0.22994869  1
  H+  H233  1  0.35586566  0.92019690  0.09802435  1
  H+  H234  1  0.10556613  0.19077510  0.99630947  1
  H+  H235  1  0.01901462  0.63528751  0.67810955  1
  H+  H236  1  0.47743552  0.12404517  0.66801389  1
  H+  H237  1  0.36692829  0.49924892  0.34748710  1
  H+  H238  1  0.07214740  0.68375372  0.15526662  1
  H+  H239  1  0.63821241  0.38026361  0.83958259  1
  H+  H240  1  0.88413265  0.12819614  0.50821914  1
  H+  H241  1  0.25510053  0.83148441  0.52045055  1
  H+  H242  1  0.11521345  0.21276082  0.67835609  1
  H+  H243  1  0.74424194  0.38623271  0.84030753  1
  H+  H244  1  0.35879015  0.62331421  0.34765389  1
  H+  H245  1  0.40456688  0.40119966  0.84881455  1
  H+  H246  1  0.09036583  0.12911021  0.39700411  1
  H+  H247  1  0.34657763  0.16791575  0.85822225  1
  H+  H248  1  0.85133105  0.14307728  0.85874879  1
  H+  H249  1  0.88933384  0.61504266  0.31866504  1
  H+  H250  1  0.41043429  0.33799064  0.23020269  1
  H+  H251  1  0.88519414  0.02971679  0.65536453  1
  H+  H252  1  0.61057199  0.49062426  0.68369367  1
  H+  H253  1  0.38160276  0.57627374  0.50398174  1
  H+  H254  1  0.75825978  0.88039671  0.33803078  1
  H+  H255  1  0.65432258  0.38532512  0.31119551  1
  H+  H256  1  0.72510773  0.37175480  0.51135094  1
  H+  H257  1  0.53944427  0.15078633  0.83820479  1
  H+  H258  1  0.09693860  0.86142753  1.00802196  1
  H+  H259  1  0.40494925  0.77528553  0.67065998  1
  H+  H260  1  0.64548750  0.86723529  0.98226130  1
  H+  H261  1  0.62887360  0.78411847  0.16684344  1
  H+  H262  1  0.13865524  0.23448164  0.32429942  1
  H+  H263  1  0.59450335  0.05792870  0.90766645  1
  H+  H264  1  0.73217508  0.63242487  0.29811813  1
  H+  H265  1  0.66548870  0.57790683  0.47924742  1
  H+  H266  1  0.51182693  0.62884783  0.33921439  1
  H+  H267  1  0.76140965  0.13545036  0.87752553  1
  H+  H268  1  0.96665729  0.07890582  0.30796980  1
  H+  H269  1  0.85721105  0.48446560  0.01226889  1
  H+  H270  1  0.26714084  0.60104918  0.49091132  1
  H+  H271  1  0.88453000  0.27346240  0.50413499  1
  H+  H272  1  0.86252618  0.56970362  0.17506775  1
  H+  H273  1  0.32823591  0.90409267  0.76285717  1
  H+  H274  1  0.38347931  0.50977548  0.85800217  1
  H+  H275  1  0.09861053  0.98645786  0.15346615  1
  H+  H276  1  0.27215979  0.37225882  1.01132476  1
  H+  H277  1  0.61194076  0.76341275  0.97766164  1
  H+  H278  1  0.35215677  0.25306323  0.48994138  1
  H+  H279  1  0.00680252  0.63640229  0.44860520  1
  H+  H280  1  0.13251319  0.02710448  0.50560979  1
  H+  H281  1  0.11398884  0.73852563  -0.00315842  1
  H+  H282  1  0.28720955  0.64869920  0.33077292  1
  H+  H283  1  0.39454015  0.28707187  0.32886490  1
  H+  H284  1  0.10871993  0.89006654  0.48776284  1
  H+  H285  1  0.66435598  0.84203841  0.26080396  1
  H+  H286  1  0.37632276  0.86013590  0.31562745  1
  H+  H287  1  0.03646933  0.35854655  0.80582240  1
  H+  H288  1  0.32852181  0.64025886  0.43381477  1
  H+  H289  1  0.42761972  0.08245797  1.04870305  1
  H+  H290  1  0.57925076  0.68114040  0.41991457  1
  H+  H291  1  0.59365162  0.93181594  0.39376315  1
  H+  H292  1  0.59483095  0.34747904  0.16543222  1
  H+  H293  1  0.09513171  0.41764954  0.09059330  1
  H+  H294  1  0.18631586  0.05790124  0.59747210  1
  H+  H295  1  0.61764168  0.49482173  0.56603665  1
  H+  H296  1  0.62751717  0.90000871  0.48684475  1
  H+  H297  1  0.42209109  0.13125317  0.60153870  1
  H+  H298  1  0.06752160  0.14065965  0.05866440  1
  H+  H299  1  0.17641507  0.60012197  0.24722639  1
  H+  H300  1  0.30518364  0.16692558  0.10778843  1
  H+  H301  1  0.56984544  0.66149406  0.10029996  1
  H+  H302  1  0.88379679  0.87630365  0.82859554  1
  H+  H303  1  0.36235003  0.39501609  0.64875037  1
  H+  H304  1  0.13114911  0.08862083  0.23257037  1
  H+  H305  1  0.16755101  0.58738019  0.89798117  1
  H+  H306  1  0.87788485  0.35933909  0.50519413  1
  H+  H307  1  0.82752976  0.39828582  0.10015653  1
  H+  H308  1  0.07178924  0.90530544  0.06200104  1
  H+  H309  1  0.05339309  0.63466285  0.08797356  1
  H+  H310  1  0.33707746  0.66518890  0.73585372  1
  H+  H311  1  0.96635338  0.88603348  0.65888266  1
  H+  H312  1  0.83847618  0.42088067  0.74550132  1
  H+  H313  1  0.44109124  0.12527114  0.18905074  1
  H+  H314  1  0.96806201  0.08973429  0.98886825  1
  H+  H315  1  0.90406684  0.33566984  0.95492318  1
  H+  H316  1  0.16238990  0.58206960  0.56459177  1
  H+  H317  1  0.66766992  0.35166845  0.93961660  1
  H+  H318  1  0.76646181  0.89927935  0.67204583  1
  H+  H319  1  0.66114760  0.08737888  0.59332653  1
  H+  H320  1  0.10041699  0.42747819  0.72849229  1
  H+  H321  1  0.17901302  0.86812215  0.21949183  1
  H+  H322  1  0.86850478  0.84313864  1.00463664  1
  H+  H323  1  0.14919366  0.80016674  0.93859741  1
  H+  H324  1  0.15048218  0.27799147  0.83929106  1
  H+  H325  1  0.32979710  0.18071157  0.44089238  1
  H+  H326  1  0.44465510  0.09190952  0.92039389  1
  H+  H327  1  0.37201828  0.90682242  0.42470644  1
  H+  H328  1  0.62530228  0.54100989  0.94871634  1
  H+  H329  1  0.32380596  0.88212219  0.42240894  1
  H+  H330  1  0.58125241  0.68281990  0.73817503  1
  H+  H331  1  0.57795553  0.93600507  0.10269252  1
  H+  H332  1  0.84171838  0.68413411  0.73667148  1
  H+  H333  1  0.89582284  0.09787188  0.22549279  1
  H+  H334  1  0.87806249  0.88739793  0.17615350  1
  H+  H335  1  0.71729801  0.87481140  0.16626354  1
  H+  H336  1  0.85346971  0.14322170  0.41739370  1
  H+  H337  1  0.55968074  0.33632795  0.40310064  1
  H+  H338  1  0.88166024  0.29720308  0.30066808  1
  H+  H339  1  0.08874101  0.67926309  0.41016503  1
  H+  H340  1  0.65242536  0.00029980  0.96327600  1
  H+  H341  1  0.66239229  0.50115950  0.56585320  1
  H+  H342  1  0.97025776  0.11956734  0.84262831  1
  H+  H343  1  0.05020412  1.02119785  0.70233976  1
  H+  H344  1  0.58565706  0.17479228  0.73254482  1
  H+  H345  1  0.13586458  0.51504904  0.16391409  1
  H+  H346  1  0.61218874  0.49845088  0.01289015  1
  H+  H347  1  0.46670313  0.37517391  0.53587578  1
  H+  H348  1  0.36933861  0.72670307  0.83006239  1
  H+  H349  1  0.32418351  0.14638315  0.75522398  1
  H+  H350  1  0.09223376  0.13460906  0.15184451  1
  H+  H351  1  0.83535338  0.66828601  0.38197087  1
  H+  H352  1  0.14304063  0.81665570  0.55991042  1
  H+  H353  1  0.35622436  0.46716198  0.79292874  1
  H+  H354  1  0.90617596  0.84461593  0.26464269  1
  H+  H355  1  0.60962592  0.14327868  0.67097135  1
  H+  H356  1  0.80649780  0.63335374  0.10926068  1
  H+  H357  1  0.08345870  0.16941110  0.77361518  1
  H+  H358  1  0.91819882  0.84301893  0.56001396  1
  H+  H359  1  0.81319900  0.16925176  0.74513181  1
  H+  H360  1  0.60085782  0.92236088  0.77106565  1
  H+  H361  1  0.82067341  0.90430247  0.42361783  1
  H+  H362  1  0.10514865  0.34612875  0.51568577  1
  H+  H363  1  0.16528214  0.31615480  0.93392684  1
  H+  H364  1  0.79607923  0.12170770  0.74504511  1
  H+  H365  1  0.61339740  0.19497015  0.05893703  1
  H+  H366  1  0.59154753  0.43258946  0.74218673  1
  H+  H367  1  0.06940685  0.93171485  0.76297970  1
  H+  H368  1  0.41990984  0.34025880  0.94194406  1
  H+  H369  1  0.86413631  0.39228518  0.35762395  1
  H+  H370  1  0.35747177  0.21993389  0.70269908  1
  H+  H371  1  0.65158715  0.33868257  0.57611602  1
  H+  H372  1  0.08069122  0.66530714  0.73559573  1
  H+  H373  1  0.07142684  0.02074537  0.33084694  1
  H+  H374  1  0.41650770  0.30832619  0.62946793  1
  H+  H375  1  0.91181400  0.56808820  0.26606769  1
  H+  H376  1  0.94338687  0.34724782  0.21559496  1
  H+  H377  1  0.41657430  0.80277731  0.22785790  1
  H+  H378  1  0.67461171  0.08300959  0.23547838  1
  H+  H379  1  0.83657801  0.92709039  0.76284825  1
  H+  H380  1  0.82449080  0.42324544  0.44290705  1
  H+  H381  1  0.60436384  0.46938372  0.36768926  1
  H+  H382  1  0.14295510  0.31678836  0.58006921  1
  H+  H383  1  0.53165088  0.65032156  0.83705276  1
  O2-  O384  1  0.06608767  0.16168206  0.12660049  1
  O2-  O385  1  0.05095122  0.14719663  0.49854236  1
  O2-  O386  1  0.08676042  0.17610257  0.81911577  1
  O2-  O387  1  0.09142483  0.41267619  0.13544246  1
  O2-  O388  1  0.07322664  0.40197299  0.48776076  1
  O2-  O389  1  0.09375319  0.40894368  0.80776059  1
  O2-  O390  1  0.05211516  0.62706697  0.13798079  1
  O2-  O391  1  0.06899703  0.66435641  0.45354705  1
  O2-  O392  1  0.07530866  0.66177088  0.81730603  1
  O2-  O393  1  0.07314906  0.92588455  0.13889008  1
  O2-  O394  1  0.08258828  0.92563954  0.47554762  1
  O2-  O395  1  0.06777926  0.91504254  0.80698579  1
  O2-  O396  1  0.29987918  0.17018356  0.15218495  1
  O2-  O397  1  0.32585983  0.18968327  0.48516760  1
  O2-  O398  1  0.31309017  0.12055673  0.83042893  1
  O2-  O399  1  0.34822740  0.43413245  0.14658012  1
  O2-  O400  1  0.37823206  0.46717760  0.52395712  1
  O2-  O401  1  0.35152778  0.45181030  0.83586591  1
  O2-  O402  1  0.33318144  0.65609864  0.13608193  1
  O2-  O403  1  0.32407242  0.61600340  0.47507025  1
  O2-  O404  1  0.34320010  0.66447602  0.81829019  1
  O2-  O405  1  0.36973659  0.93624757  0.14140373  1
  O2-  O406  1  0.31124217  0.84222849  0.53583745  1
  O2-  O407  1  0.32205906  0.90255601  0.80763357  1
  O2-  O408  1  0.62838999  0.20326273  0.13609977  1
  O2-  O409  1  0.52547032  0.15740582  0.46053542  1
  O2-  O410  1  0.59675359  0.18563933  0.81645707  1
  O2-  O411  1  0.57424586  0.38850452  0.15989728  1
  O2-  O412  1  0.53910223  0.31321939  0.44375919  1
  O2-  O413  1  0.59850979  0.43952888  0.82235865  1
  O2-  O414  1  0.57431271  0.67348058  0.14530607  1
  O2-  O415  1  0.58386643  0.68440258  0.46542451  1
  O2-  O416  1  0.58819367  0.67699707  0.81484521  1
  O2-  O417  1  0.58495986  0.93485444  0.14756282  1
  O2-  O418  1  0.59408230  0.92785729  0.47454511  1
  O2-  O419  1  0.59134850  0.91922914  0.81514185  1
  O2-  O420  1  0.85245673  0.14698542  0.16157824  1
  O2-  O421  1  0.85084853  0.15878974  0.50476548  1
  O2-  O422  1  0.81996715  0.17524364  0.86322515  1
  O2-  O423  1  0.82534601  0.38297986  0.14428560  1
  O2-  O424  1  0.81881939  0.41689214  0.48862096  1
  O2-  O425  1  0.82116103  0.42283796  0.82913207  1
  O2-  O426  1  0.81161835  0.62907485  0.15484838  1
  O2-  O427  1  0.86063835  0.67914839  0.46872035  1
  O2-  O428  1  0.83997003  0.68167955  0.81613057  1
  O2-  O429  1  0.81921598  0.93271668  0.14137211  1
  O2-  O430  1  0.82436014  0.90085693  0.47137618  1
  O2-  O431  1  0.84139241  0.92485227  0.80821434  1
  O2-  O432  1  0.13988014  0.08575741  0.18878053  1
  O2-  O433  1  0.15564959  0.08386417  0.52683776  1
  O2-  O434  1  0.15326927  0.07463795  0.85909076  1
  O2-  O435  1  0.19441649  0.35586838  0.18973768  1
  O2-  O436  1  0.12889501  0.30814044  0.53249294  1
  O2-  O437  1  0.17711423  0.33783433  0.85739966  1
  O2-  O438  1  0.16417382  0.57724520  0.17510431  1
  O2-  O439  1  0.15710856  0.57039891  0.51988527  1
  O2-  O440  1  0.16469425  0.58395332  0.85244255  1
  O2-  O441  1  0.19822176  0.88339857  0.17598724  1
  O2-  O442  1  0.14534464  0.82212810  0.51482178  1
  O2-  O443  1  0.17492012  0.86260166  0.85444546  1
  O2-  O444  1  0.46010580  0.11022007  0.15139154  1
  O2-  O445  1  0.43574061  0.16972019  0.55432444  1
  O2-  O446  1  0.45263390  0.09007853  0.87630755  1
  O2-  O447  1  0.41197041  0.33861071  0.18498920  1
  O2-  O448  1  0.43399543  0.36377143  0.49829984  1
  O2-  O449  1  0.43381675  0.36646513  0.85700261  1
  O2-  O450  1  0.41306898  0.58524024  0.17973557  1
  O2-  O451  1  0.42650308  0.56299748  0.52057755  1
  O2-  O452  1  0.44083956  0.60599491  0.87988849  1
  O2-  O453  1  0.37308739  0.79282392  0.19534675  1
  O2-  O454  1  0.45439039  0.82464053  0.53099253  1
  O2-  O455  1  0.41751364  0.83100137  0.85116687  1
  O2-  O456  1  0.68409561  0.07788549  0.18755375  1
  O2-  O457  1  0.67642398  0.08124048  0.51678403  1
  O2-  O458  1  0.64327280  0.06162492  0.88553755  1
  O2-  O459  1  0.65242859  0.28465406  0.16692314  1
  O2-  O460  1  0.66235619  0.33660321  0.52664486  1
  O2-  O461  1  0.66900695  0.34795186  0.85247519  1
  O2-  O462  1  0.67760449  0.62683661  0.21729603  1
  O2-  O463  1  0.70019930  0.63733110  0.49305991  1
  O2-  O464  1  0.67656165  0.61099168  0.85794872  1
  O2-  O465  1  0.65756739  0.84340560  0.18350037  1
  O2-  O466  1  0.67172027  0.83886390  0.51877803  1
  O2-  O467  1  0.67276575  0.83770809  0.85276930  1
  O2-  O468  1  0.90213099  0.10620973  0.18003347  1
  O2-  O469  1  0.96028783  0.09177822  0.51846215  1
  O2-  O470  1  0.90938089  0.08365052  0.85517385  1
  O2-  O471  1  0.92454742  0.32094122  0.17574254  1
  O2-  O472  1  0.91333918  0.33389788  0.51733411  1
  O2-  O473  1  0.88730635  0.33549221  0.87674809  1
  O2-  O474  1  0.89570043  0.54277254  0.19067402  1
  O2-  O475  1  0.90554212  0.58203704  0.53398903  1
  O2-  O476  1  0.90721370  0.58466965  0.86113439  1
  O2-  O477  1  0.90622650  0.85567828  0.19203441  1
  O2-  O478  1  0.91986398  0.84318471  0.51450085  1
  O2-  O479  1  0.91405184  0.84319242  0.84500699  1
  O2-  O480  1  0.07095594  0.07439287  0.31673341  1
  O2-  O481  1  0.19740133  0.03460494  0.63535297  1
  O2-  O482  1  0.15995857  0.06167226  0.97706986  1
  O2-  O483  1  0.14536978  0.28874272  0.30777180  1
  O2-  O484  1  0.16597413  0.33104802  0.64271987  1
  O2-  O485  1  0.16374902  0.30155532  0.97810665  1
  O2-  O486  1  0.18030853  0.61419303  0.29235028  1
  O2-  O487  1  0.17039458  0.58892245  0.64448711  1
  O2-  O488  1  0.17766794  0.60333729  0.97491491  1
  O2-  O489  1  0.14904796  0.85631139  0.29287102  1
  O2-  O490  1  0.16584736  0.82504884  0.64006886  1
  O2-  O491  1  0.14982829  0.80033946  0.98319881  1
  O2-  O492  1  0.42403257  0.13458935  0.28026514  1
  O2-  O493  1  0.41652420  0.09906702  0.65163507  1
  O2-  O494  1  0.41496972  0.08746352  1.00596807  1
  O2-  O495  1  0.41790081  0.34359885  0.30854002  1
  O2-  O496  1  0.41375208  0.32641665  0.67075790  1
  O2-  O497  1  0.41296816  0.33023258  0.98607534  1
  O2-  O498  1  0.40573579  0.56328260  0.35846992  1
  O2-  O499  1  0.42633076  0.59822553  0.64449926  1
  O2-  O500  1  0.53465399  0.67681575  0.97838343  1
  O2-  O501  1  0.47096747  0.79388114  0.28500531  1
  O2-  O502  1  0.44643296  0.83531027  0.65733118  1
  O2-  O503  1  0.42342734  0.83530521  0.97393171  1
  O2-  O504  1  0.66520921  0.09254815  0.29698504  1
  O2-  O505  1  0.66553888  0.09479836  0.63864713  1
  O2-  O506  1  0.64328086  -0.03905236  0.99730295  1
  O2-  O507  1  0.68105930  0.34924098  0.30862458  1
  O2-  O508  1  0.64292781  0.33563402  0.63676104  1
  O2-  O509  1  0.66915296  0.34933895  0.98409114  1
  O2-  O510  1  0.67137659  0.60301586  0.28198244  1
  O2-  O511  1  0.66606126  0.60067753  0.66332521  1
  O2-  O512  1  0.63800969  0.55705986  0.99132682  1
  O2-  O513  1  0.66644039  0.84008889  0.30644075  1
  O2-  O514  1  0.65381424  0.85118292  0.64909911  1
  O2-  O515  1  0.66382360  0.82581144  0.96970592  1
  O2-  O516  1  0.90723724  0.06641685  0.30104437  1
  O2-  O517  1  0.92434873  0.08888380  0.63939380  1
  O2-  O518  1  0.90742211  0.06644967  0.97426852  1
  O2-  O519  1  0.89688433  0.31615814  0.34259223  1
  O2-  O520  1  0.92759601  0.35793456  0.65811663  1
  O2-  O521  1  0.91731385  0.34353090  0.99910664  1
  O2-  O522  1  0.92165547  0.58418772  0.31035820  1
  O2-  O523  1  0.90861909  0.58257216  0.65941230  1
  O2-  O524  1  0.89894628  0.58653265  0.98106221  1
  O2-  O525  1  0.90493705  0.83410346  0.31039049  1
  O2-  O526  1  0.91043560  0.84506726  0.63944322  1
  O2-  O527  1  0.89105122  0.80464586  0.99267049  1
  O2-  O528  1  0.07007228  0.13190342  0.01266363  1
  O2-  O529  1  0.12808555  0.13974966  0.36151491  1
  O2-  O530  1  0.07844809  0.15617477  0.69720821  1
  O2-  O531  1  0.08318070  0.43620449  0.01173402  1
  O2-  O532  1  0.06370157  0.36642366  0.36907818  1
  O2-  O533  1  0.09246789  0.42561080  0.68356787  1
  O2-  O534  1  0.05524741  0.64106148  0.02544890  1
  O2-  O535  1  0.09227713  0.69262971  0.33250379  1
  O2-  O536  1  0.08082427  0.66585023  0.69032409  1
  O2-  O537  1  0.07081714  0.89745808  0.01684731  1
  O2-  O538  1  0.06287688  0.92737018  0.35262127  1
  O2-  O539  1  0.05609492  0.97013671  0.69714864  1
  O2-  O540  1  0.32265311  0.16261046  0.02211206  1
  O2-  O541  1  0.33783192  0.18064992  0.35802414  1
  O2-  O542  1  0.33162584  0.15731939  0.71024950  1
  O2-  O543  1  0.33330931  0.40900358  0.02149723  1
  O2-  O544  1  0.31264615  0.40231313  0.34402123  1
  O2-  O545  1  0.33424300  0.42664074  0.63413900  1
  O2-  O546  1  0.35059574  0.67846275  0.01177420  1
  O2-  O547  1  0.34010482  0.66666758  0.35441145  1
  O2-  O548  1  0.33453738  0.66911927  0.69069541  1
  O2-  O549  1  0.32127762  0.89864119  0.01756577  1
  O2-  O550  1  0.31572972  0.96868099  0.32433167  1
  O2-  O551  1  0.34129143  0.91209178  0.68053697  1
  O2-  O552  1  0.60334448  0.19165599  0.01395725  1
  O2-  O553  1  0.58398330  0.18527247  0.32625373  1
  O2-  O554  1  0.57873280  0.17234327  0.68758807  1
  O2-  O555  1  0.57099198  0.40565618  0.03662986  1
  O2-  O556  1  0.59324481  0.44308813  0.32727184  1
  O2-  O557  1  0.58302154  0.42942597  0.69732835  1
  O2-  O558  1  0.53745408  0.62351083  0.02812652  1
  O2-  O559  1  0.57506819  0.67007519  0.34223411  1
  O2-  O560  1  0.58510044  0.68689691  0.69268080  1
  O2-  O561  1  0.56599225  0.95236730  0.02650323  1
  O2-  O562  1  0.59738395  0.93607229  0.34865075  1
  O2-  O563  1  0.61687731  0.90073653  0.67827419  1
  O2-  O564  1  0.85557761  0.16565921  0.03081062  1
  O2-  O565  1  0.84954810  0.14320744  0.37295685  1
  O2-  O566  1  0.84750163  0.19415669  0.62988829  1
  O2-  O567  1  0.83021577  0.42346658  0.02636359  1
  O2-  O568  1  0.83798889  0.42800160  0.36819363  1
  O2-  O569  1  0.84467229  0.42129244  0.70098032  1
  O2-  O570  1  0.80760636  0.64860693  0.03420373  1
  O2-  O571  1  0.83171257  0.66772941  0.33707228  1
  O2-  O572  1  0.83944811  0.68182038  0.69141222  1
  O2-  O573  1  0.82095885  0.90447652  0.02247763  1
  O2-  O574  1  0.81798491  0.90976730  0.35726291  1
  O2-  O575  1  0.82765364  0.92604413  0.68460700  1
