# generated using pymatgen
data_H2O
_symmetry_space_group_name_H-M   'P 1'
_cell_length_a   17.99160292
_cell_length_b   17.98549543
_cell_length_c   21.99644963
_cell_angle_alpha   89.99665694
_cell_angle_beta   90.05494776
_cell_angle_gamma   120.01348697
_symmetry_Int_Tables_number   1
_chemical_formula_structural   H2O
_chemical_formula_sum   'H384 O192'
_cell_volume   6163.34096088
_cell_formula_units_Z   192
loop_
 _symmetry_equiv_pos_site_id
 _symmetry_equiv_pos_as_xyz
  1  'x, y, z'
loop_
 _atom_type_symbol
 _atom_type_oxidation_number
  H+  1.0
  O2-  -2.0
loop_
 _atom_site_type_symbol
 _atom_site_label
 _atom_site_symmetry_multiplicity
 _atom_site_fract_x
 _atom_site_fract_y
 _atom_site_fract_z
 _atom_site_occupancy
  H+  H0  1  0.58420965  0.89388930  0.83674576  1
  H+  H1  1  0.15085775  0.80997373  0.26895713  1
  H+  H2  1  0.51290678  0.38865312  0.84010176  1
  H+  H3  1  0.78978973  0.50791654  0.54494916  1
  H+  H4  1  0.01922588  0.63023387  0.49235759  1
  H+  H5  1  0.90572232  0.82591776  0.26723068  1
  H+  H6  1  -0.01089854  0.12105904  0.14956782  1
  H+  H7  1  0.32893258  0.95246033  0.36411789  1
  H+  H8  1  0.58920236  0.11526932  0.77177239  1
  H+  H9  1  0.95533736  0.59027104  0.82200981  1
  H+  H10  1  0.61635216  0.09989966  0.66168505  1
  H+  H11  1  0.85770934  0.22919580  0.50143828  1
  H+  H12  1  0.47503805  0.59915060  0.32692720  1
  H+  H13  1  0.11580518  0.99299911  0.14498779  1
  H+  H14  1  0.78498638  0.65612382  0.81619506  1
  H+  H15  1  0.36358775  0.97003746  0.13966452  1
  H+  H16  1  0.39207043  -0.00448969  0.52248006  1
  H+  H17  1  0.95105666  0.09543643  0.84337164  1
  H+  H18  1  0.90328578  0.40592342  0.15455066  1
  H+  H19  1  0.59771819  0.76629645  0.83575786  1
  H+  H20  1  0.27446060  0.62436484  0.67810369  1
  H+  H21  1  0.62927298  0.84122181  0.50405616  1
  H+  H22  1  0.86750756  0.63316041  -0.00889448  1
  H+  H23  1  0.89086308  0.60259636  0.18878943  1
  H+  H24  1  0.25191340  0.40327478  0.81016635  1
  H+  H25  1  0.78160961  0.89402313  0.15027593  1
  H+  H26  1  0.51697421  0.37644755  0.50333367  1
  H+  H27  1  0.76387503  0.13322469  0.66678694  1
  H+  H28  1  0.37592315  0.22067731  0.14949877  1
  H+  H29  1  0.86221033  0.63431937  0.81835347  1
  H+  H30  1  0.86727621  0.27496923  0.82804990  1
  H+  H31  1  0.88896025  0.86831151  0.17458253  1
  H+  H32  1  0.65924740  0.44438185  0.82880257  1
  H+  H33  1  0.38472063  0.61118391  0.66009744  1
  H+  H34  1  0.85424704  0.43966226  0.42676796  1
  H+  H35  1  0.08108119  0.17847983  0.38821644  1
  H+  H36  1  0.07298337  -0.03056651  0.98710402  1
  H+  H37  1  0.40174329  0.28344594  0.34205412  1
  H+  H38  1  0.86280495  0.48233976  0.49135840  1
  H+  H39  1  0.81589105  0.72129159  0.48579838  1
  H+  H40  1  0.62609707  1.03884211  0.83723840  1
  H+  H41  1  0.15966065  0.28650565  0.31710846  1
  H+  H42  1  0.37644542  0.60799502  -0.02393702  1
  H+  H43  1  0.36353780  0.71608597  0.15599395  1
  H+  H44  1  0.25019368  0.86356564  0.34181495  1
  H+  H45  1  0.40066257  0.50666873  0.84704073  1
  H+  H46  1  0.38760819  0.10950784  0.15180799  1
  H+  H47  1  0.52489135  0.13843509  0.15966343  1
  H+  H48  1  0.08167721  0.83468082  -0.01205281  1
  H+  H49  1  0.07702065  0.41417197  0.44297195  1
  H+  H50  1  0.59283495  0.70482063  0.50073084  1
  H+  H51  1  0.84882990  0.87695627  0.99746644  1
  H+  H52  1  0.84317485  0.86195016  0.34035847  1
  H+  H53  1  0.27680109  0.62601585  0.15942198  1
  H+  H54  1  0.72214582  0.12136028  0.83003232  1
  H+  H55  1  0.47659485  0.54558488  0.80129285  1
  H+  H56  1  0.71967583  0.59316056  0.98464525  1
  H+  H57  1  0.89897249  0.36770544  0.66509852  1
  H+  H58  1  0.57077987  0.92107421  0.05537641  1
  H+  H59  1  0.33193561  0.60938746  0.84840688  1
  H+  H60  1  1.03916587  0.17795211  0.32136995  1
  H+  H61  1  0.35174926  0.43558148  0.73513647  1
  H+  H62  1  0.61201037  0.47608407  0.16242942  1
  H+  H63  1  0.62602189  0.25833295  0.52554183  1
  H+  H64  1  0.71475082  0.12508774  0.51369961  1
  H+  H65  1  0.89301642  0.36401433  0.98501916  1
  H+  H66  1  0.61807596  0.85428196  0.99210562  1
  H+  H67  1  0.11250808  0.74547345  0.32593769  1
  H+  H68  1  0.24146069  0.87542949  0.65309064  1
  H+  H69  1  0.63115631  0.61591281  0.17604599  1
  H+  H70  1  0.28347586  0.17058102  0.33568524  1
  H+  H71  1  0.16053351  0.06838501  0.29670476  1
  H+  H72  1  0.65439196  0.14154327  0.37770077  1
  H+  H73  1  0.95733177  0.85441995  0.98989558  1
  H+  H74  1  0.64356172  0.11604327  0.17642096  1
  H+  H75  1  0.88980882  0.36776376  0.50533149  1
  H+  H76  1  0.36001692  0.71630179  0.68272930  1
  H+  H77  1  0.91434409  0.77667863  0.83230687  1
  H+  H78  1  0.26170007  0.63721993  0.33991659  1
  H+  H79  1  0.07602662  0.36758052  0.34932229  1
  H+  H80  1  0.36534676  0.41376501  0.07468616  1
  H+  H81  1  0.35207421  0.14707070  0.36125664  1
  H+  H82  1  0.55448926  0.16695762  0.37004713  1
  H+  H83  1  0.36225168  0.47720495  0.67135946  1
  H+  H84  1  0.40886634  0.06969476  0.20973728  1
  H+  H85  1  0.38968851  0.34608372  0.17099246  1
  H+  H86  1  0.11206189  0.22444083  0.68184394  1
  H+  H87  1  0.14886241  0.60881312  0.66532989  1
  H+  H88  1  0.16660553  0.57164696  0.26520139  1
  H+  H89  1  0.12435229  1.01268668  0.50929390  1
  H+  H90  1  0.24284337  0.12430249  0.14652324  1
  H+  H91  1  0.91197066  0.33455590  0.56796439  1
  H+  H92  1  0.90151471  1.06015751  0.39054425  1
  H+  H93  1  0.13992379  1.02450223  0.66751620  1
  H+  H94  1  0.10359938  0.61849434  0.34060526  1
  H+  H95  1  0.86426882  0.13477155  0.14529445  1
  H+  H96  1  0.11928090  0.85095628  0.51411724  1
  H+  H97  1  0.39388496  0.11936171  0.53789266  1
  H+  H98  1  0.38772137  0.26037577  0.80511435  1
  H+  H99  1  0.67347053  0.31328161  0.34263353  1
  H+  H100  1  0.49213969  0.14226882  0.53697487  1
  H+  H101  1  0.76250495  0.88145141  1.00331589  1
  H+  H102  1  0.37543401  0.97451180  0.67801405  1
  H+  H103  1  0.28575386  0.38283435  0.14904853  1
  H+  H104  1  0.85833789  0.50957217  0.82607521  1
  H+  H105  1  0.00584296  0.39347350  0.34080236  1
  H+  H106  1  0.11889793  0.70733981  0.16264446  1
  H+  H107  1  0.60651284  -0.02651164  0.99322465  1
  H+  H108  1  0.86790656  0.73069958  0.67204133  1
  H+  H109  1  0.12506548  0.57352808  0.99662884  1
  H+  H110  1  0.45739862  0.09483646  0.79905671  1
  H+  H111  1  0.10025316  0.63684309  0.82766616  1
  H+  H112  1  0.41207685  0.14903662  -0.00752521  1
  H+  H113  1  0.89177513  0.05793629  0.35694512  1
  H+  H114  1  0.14997338  0.14858608  0.31009663  1
  H+  H115  1  0.35446422  0.63323983  0.48826598  1
  H+  H116  1  0.90305784  0.55027042  0.28007669  1
  H+  H117  1  0.32231319  0.67200381  0.40586816  1
  H+  H118  1  0.73882670  0.38305933  0.50938644  1
  H+  H119  1  0.52656275  0.87220195  0.50231187  1
  H+  H120  1  0.73016351  0.62435255  0.66302565  1
  H+  H121  1  0.18906036  0.38446647  0.30018638  1
  H+  H122  1  0.13028834  0.38379136  0.14176798  1
  H+  H123  1  0.95431010  0.95975105  0.54755103  1
  H+  H124  1  0.83301193  0.63996562  0.49950304  1
  H+  H125  1  0.35325350  0.23894780  0.64321592  1
  H+  H126  1  0.12862881  0.10824515  0.66584353  1
  H+  H127  1  0.47183838  0.86155647  0.16693360  1
  H+  H128  1  -0.01879896  0.86590690  0.67507225  1
  H+  H129  1  0.01975926  0.89047917  0.50633565  1
  H+  H130  1  0.46064140  0.85530986  0.32721878  1
  H+  H131  1  0.10358474  0.40118841  0.03920045  1
  H+  H132  1  0.89732278  0.33391152  0.88642776  1
  H+  H133  1  0.47523384  0.61790327  0.64871999  1
  H+  H134  1  0.61416760  0.74392661  0.65799933  1
  H+  H135  1  0.60761983  -0.01864421  0.15088450  1
  H+  H136  1  0.49913140  0.36608060  -0.01269670  1
  H+  H137  1  0.24112455  0.84760339  0.16837910  1
  H+  H138  1  0.88455977  0.11861243  0.51220855  1
  H+  H139  1  0.62260255  0.46217614  0.01113523  1
  H+  H140  1  0.45287870  0.10232877  0.62976753  1
  H+  H141  1  0.45546303  0.60057684  0.50456547  1
  H+  H142  1  0.70223724  0.60288908  0.51151538  1
  H+  H143  1  -0.02723800  0.11431700  -0.00799000  1
  H+  H144  1  -0.02434036  0.12116257  0.50735202  1
  H+  H145  1  0.24522183  0.14004073  0.00755781  1
  H+  H146  1  0.69584432  0.91753317  0.62058721  1
  H+  H147  1  0.64678453  0.26099329  1.00827269  1
  H+  H148  1  0.60856647  0.24624888  0.85139741  1
  H+  H149  1  0.89910284  0.25936049  0.17126225  1
  H+  H150  1  0.73463020  0.07557323  0.31719234  1
  H+  H151  1  0.91576377  0.17059876  0.29358868  1
  H+  H152  1  0.12027681  0.14307785  0.13603196  1
  H+  H153  1  0.88953477  0.39111350  0.31281550  1
  H+  H154  1  0.62267193  0.01592328  0.66551819  1
  H+  H155  1  0.35320856  0.73783114  0.33951206  1
  H+  H156  1  0.74744327  0.35739096  0.81681231  1
  H+  H157  1  0.87113500  0.76221558  -0.01583638  1
  H+  H158  1  0.85147864  0.87717086  0.69079445  1
  H+  H159  1  0.58226368  0.85805264  0.34755414  1
  H+  H160  1  0.61933495  0.16532979  0.51494468  1
  H+  H161  1  0.61373118  0.65068688  0.80680640  1
  H+  H162  1  0.59987799  0.62364188  1.00245642  1
  H+  H163  1  0.14410906  0.46904234  -0.01450293  1
  H+  H164  1  0.55261253  0.19477131  0.43770924  1
  H+  H165  1  0.91709482  0.34159863  0.26255991  1
  H+  H166  1  0.01991707  0.38407606  0.50250770  1
  H+  H167  1  0.04040733  0.37747030  0.14549922  1
  H+  H168  1  0.29226250  0.38063036  0.34628220  1
  H+  H169  1  0.61962720  0.65763719  0.66133407  1
  H+  H170  1  0.27329739  0.62414322  0.00059361  1
  H+  H171  1  0.83462556  0.94221645  0.36212524  1
  H+  H172  1  0.62653165  0.39913722  0.35249122  1
  H+  H173  1  0.13605261  0.59611148  0.17373472  1
  H+  H174  1  0.88483259  0.87098063  0.51814595  1
  H+  H175  1  0.79699868  0.71535172  0.11036160  1
  H+  H176  1  0.97693032  0.12682896  0.66280734  1
  H+  H177  1  0.51180736  0.88001366  0.68103063  1
  H+  H178  1  0.08867374  0.19834522  0.85266484  1
  H+  H179  1  0.47012336  0.34873247  0.61124811  1
  H+  H180  1  0.38487804  0.77590468  0.51234680  1
  H+  H181  1  0.89569782  0.07894403  0.90263314  1
  H+  H182  1  0.42330138  0.09843948  0.39823701  1
  H+  H183  1  -0.01372620  0.38648146  0.81540770  1
  H+  H184  1  0.66354884  0.20245689  0.86276011  1
  H+  H185  1  0.72756740  0.39028441  0.75510745  1
  H+  H186  1  0.15868689  0.78384238  0.66130513  1
  H+  H187  1  0.60618563  0.89272912  0.14262468  1
  H+  H188  1  0.84876738  0.72384761  0.33828644  1
  H+  H189  1  0.79518575  0.43429974  0.33287480  1
  H+  H190  1  0.86488676  0.25041946  0.34269169  1
  H+  H191  1  0.10248874  0.13227072  0.48587959  1
  H+  H192  1  0.62904388  0.09383435  0.38316129  1
  H+  H193  1  0.18317569  0.37079075  0.99302602  1
  H+  H194  1  0.96754528  0.27481987  0.22034121  1
  H+  H195  1  0.60507036  -0.04817804  0.33498041  1
  H+  H196  1  0.06809325  0.37803397  0.82583328  1
  H+  H197  1  0.88098937  0.12629798  0.65738664  1
  H+  H198  1  0.47810074  0.34883119  0.17329717  1
  H+  H199  1  0.02541955  0.62494747  0.17267255  1
  H+  H200  1  0.89751723  0.49146950  0.68415469  1
  H+  H201  1  0.14508331  0.26692104  0.14841746  1
  H+  H202  1  0.24598989  0.10006200  0.99841782  1
  H+  H203  1  0.36605767  0.88264568  0.14522608  1
  H+  H204  1  0.76118405  0.64137457  0.15734981  1
  H+  H205  1  0.63483734  0.78076789  0.16239199  1
  H+  H206  1  0.39899557  0.38537947  1.00657956  1
  H+  H207  1  0.63268849  0.36643449  0.18932545  1
  H+  H208  1  0.14372016  0.51164637  0.16802794  1
  H+  H209  1  0.16434405  0.36433896  0.86617936  1
  H+  H210  1  0.70286792  0.83464187  0.33788690  1
  H+  H211  1  0.38689615  0.51552539  0.32638778  1
  H+  H212  1  0.26135078  0.14665243  0.66330156  1
  H+  H213  1  0.40365482  0.37780778  0.34783429  1
  H+  H214  1  0.88812077  0.62360904  0.66320270  1
  H+  H215  1  0.26717100  0.63574553  0.49152906  1
  H+  H216  1  0.22814289  0.35710987  0.66935830  1
  H+  H217  1  -0.04107144  0.84483767  0.33041617  1
  H+  H218  1  0.02872102  0.90490247  0.15426282  1
  H+  H219  1  0.25350634  0.44612841  0.81107080  1
  H+  H220  1  0.62334746  0.37281319  0.01134981  1
  H+  H221  1  0.42973612  0.08705755  0.90152297  1
  H+  H222  1  0.99930325  0.68425053  -0.03884340  1
  H+  H223  1  0.38129434  0.85431712  0.66826793  1
  H+  H224  1  0.33407808  0.06442020  0.43144292  1
  H+  H225  1  0.30505635  0.38478455  0.01085998  1
  H+  H226  1  0.63948701  0.52183638  0.33527591  1
  H+  H227  1  0.41316105  0.23817154  -0.00191807  1
  H+  H228  1  0.19878703  0.87680424  0.81996116  1
  H+  H229  1  0.85034883  0.13246548  0.82441806  1
  H+  H230  1  0.59911233  0.70195473  0.35788247  1
  H+  H231  1  0.58770929  0.61361501  0.50626883  1
  H+  H232  1  0.86843096  0.47809708  0.00437668  1
  H+  H233  1  0.86281187  0.13700187  1.00246123  1
  H+  H234  1  0.87814907  0.57329937  0.57507198  1
  H+  H235  1  0.07060643  0.10783109  0.87704187  1
  H+  H236  1  0.62022968  0.76610174  -0.00676882  1
  H+  H237  1  0.73917624  0.87982321  0.66651118  1
  H+  H238  1  0.52399164  0.12521833  -0.01208592  1
  H+  H239  1  0.78211969  0.38772638  0.01019770  1
  H+  H240  1  0.88123476  1.02353093  -0.00690798  1
  H+  H241  1  0.45218204  0.89023380  0.84276590  1
  H+  H242  1  0.37846032  0.35476448  0.52343401  1
  H+  H243  1  0.37513701  0.47321680  0.15859806  1
  H+  H244  1  0.10366499  0.21451148  -0.00200822  1
  H+  H245  1  0.08500485  0.10388023  0.97199256  1
  H+  H246  1  0.12206050  0.89159752  0.67262619  1
  H+  H247  1  0.38979855  0.60420971  0.17199584  1
  H+  H248  1  0.63259135  0.27767703  0.19599710  1
  H+  H249  1  0.60459718  0.88840299  0.68651523  1
  H+  H250  1  0.74770531  0.81471984  0.49651324  1
  H+  H251  1  0.37034226  0.85595283  0.32568536  1
  H+  H252  1  0.13604069  0.51696120  0.32736223  1
  H+  H253  1  0.14391682  0.80078002  0.96861267  1
  H+  H254  1  0.82598300  -0.03513706  0.83308634  1
  H+  H255  1  0.42063323  0.57421705  0.23166441  1
  H+  H256  1  1.01442120  0.59285560  1.01134173  1
  H+  H257  1  0.25511120  0.10894698  0.50130737  1
  H+  H258  1  -0.02056667  0.63150073  0.64921607  1
  H+  H259  1  0.10947794  0.46206561  0.67052772  1
  H+  H260  1  0.26766141  0.37598135  0.50240924  1
  H+  H261  1  0.15548853  0.10282384  0.82175986  1
  H+  H262  1  0.89620140  0.51675812  0.18029098  1
  H+  H263  1  0.20828255  0.72507886  0.71935833  1
  H+  H264  1  0.49976572  0.37749028  0.34596723  1
  H+  H265  1  0.77360291  0.13576265  0.99888977  1
  H+  H266  1  0.11133635  0.52127681  0.83384293  1
  H+  H267  1  0.09437391  0.94008908  0.35218825  1
  H+  H268  1  0.65354946  0.38929185  0.51922652  1
  H+  H269  1  0.40859513  0.02314879  0.95905911  1
  H+  H270  1  0.29887207  0.16659991  0.80366320  1
  H+  H271  1  0.13250446  0.35568385  0.51433927  1
  H+  H272  1  0.80961650  0.90374619  0.74626030  1
  H+  H273  1  0.62914054  0.38844742  0.69441700  1
  H+  H274  1  0.13477258  0.51889306  0.50983414  1
  H+  H275  1  0.12460008  0.76033224  0.51091391  1
  H+  H276  1  0.08837250  0.85041043  0.34324438  1
  H+  H277  1  0.89177397  0.78142789  0.17566799  1
  H+  H278  1  0.57857825  0.66638606  0.10074900  1
  H+  H279  1  0.13692995  0.35316280  0.66688426  1
  H+  H280  1  0.92256789  0.10107900  0.59282593  1
  H+  H281  1  0.43419754  0.40218572  0.83470114  1
  H+  H282  1  0.63827922  0.10594479  0.98525928  1
  H+  H283  1  0.74940463  0.62795707  0.33892567  1
  H+  H284  1  0.11270309  0.68241195  0.74085168  1
  H+  H285  1  0.33441566  0.98354902  0.81183023  1
  H+  H286  1  0.65355028  0.54848614  0.83356639  1
  H+  H287  1  0.97478102  0.34963019  0.65565115  1
  H+  H288  1  0.06570592  0.89012287  0.44301347  1
  H+  H289  1  0.35989080  0.94656134  0.46030870  1
  H+  H290  1  0.63089774  0.60641312  0.33763663  1
  H+  H291  1  0.15046212  0.08393294  0.92975844  1
  H+  H292  1  0.92562158  0.85468990  0.61663135  1
  H+  H293  1  0.93621787  0.83211878  0.89322084  1
  H+  H294  1  0.59045470  0.41127058  0.10604445  1
  H+  H295  1  0.34170503  0.19987945  0.71808876  1
  H+  H296  1  0.57262321  0.67464990  0.75165470  1
  H+  H297  1  0.39068942  0.86339901  0.89993453  1
  H+  H298  1  0.23527908  0.78055085  0.21464932  1
  H+  H299  1  0.06829573  0.40458870  0.72937418  1
  H+  H300  1  0.39923716  0.87124749  0.52006103  1
  H+  H301  1  0.33118524  0.17457076  0.45985843  1
  H+  H302  1  0.68419408  0.36375068  0.65194480  1
  H+  H303  1  0.60049879  0.19101657  0.11345089  1
  H+  H304  1  0.41113101  0.83021752  0.22617991  1
  H+  H305  1  0.56456548  0.92760548  0.77637138  1
  H+  H306  1  0.33564681  0.89692992  0.82492584  1
  H+  H307  1  0.65146540  0.08774693  0.56948521  1
  H+  H308  1  0.04160513  0.87246902  0.83168605  1
  H+  H309  1  0.52324716  0.63974976  0.16165816  1
  H+  H310  1  0.39783177  0.57810994  0.56353681  1
  H+  H311  1  0.67021275  0.86142802  0.20889223  1
  H+  H312  1  0.46297984  0.88545683  -0.00581579  1
  H+  H313  1  0.85330953  0.42469207  0.73770869  1
  H+  H314  1  0.08768242  0.72083987  0.82204685  1
  H+  H315  1  0.54290078  0.09156138  0.04757472  1
  H+  H316  1  0.00869662  0.60632168  0.34663909  1
  H+  H317  1  0.16450111  0.82665288  0.57635575  1
  H+  H318  1  0.93437217  0.60314212  0.91921616  1
  H+  H319  1  0.35320097  0.46809762  0.50184603  1
  H+  H320  1  0.52178211  0.42712371  0.71051593  1
  H+  H321  1  0.09567807  0.33957776  0.91768906  1
  H+  H322  1  0.83888897  0.66968835  0.73007591  1
  H+  H323  1  0.63001059  0.81939256  0.89834174  1
  H+  H324  1  0.67026802  0.08590212  0.92351228  1
  H+  H325  1  0.95041127  0.14241733  0.23558767  1
  H+  H326  1  0.82619343  0.64526411  0.05261355  1
  H+  H327  1  0.33445962  0.64830672  0.05844537  1
  H+  H328  1  0.19177044  0.11896657  0.20663846  1
  H+  H329  1  0.36277506  0.91656054  0.04870718  1
  H+  H330  1  0.46345459  0.09395118  0.28648850  1
  H+  H331  1  0.36598452  0.17117587  0.08567643  1
  H+  H332  1  0.06713818  0.92796185  0.05441837  1
  H+  H333  1  0.66195049  0.81720512  0.56520011  1
  H+  H334  1  0.39623908  0.13369061  0.81155718  1
  H+  H335  1  0.81491216  0.66371066  0.40247347  1
  H+  H336  1  0.90047509  0.03161500  0.16098459  1
  H+  H337  1  0.64567305  0.54206863  0.93498357  1
  H+  H338  1  0.63068438  0.78483466  0.28716956  1
  H+  H339  1  0.10832848  0.22329765  0.49052279  1
  H+  H340  1  0.13375833  0.60746181  0.50930096  1
  H+  H341  1  0.81932356  0.16623923  0.44494293  1
  H+  H342  1  0.51297492  0.62430409  -0.00503989  1
  H+  H343  1  0.44610522  0.12463590  0.28633639  1
  H+  H344  1  0.16037695  0.57406191  0.92908557  1
  H+  H345  1  0.56738126  0.63640109  0.41347859  1
  H+  H346  1  0.85370970  0.22516855  0.66612094  1
  H+  H347  1  0.20744693  0.60299257  0.83774113  1
  H+  H348  1  0.17371087  0.02558586  0.82479999  1
  H+  H349  1  0.88425586  0.27260169  -0.01967561  1
  H+  H350  1  0.68355507  0.04977540  0.25513953  1
  H+  H351  1  0.21768468  0.32713416  0.94521970  1
  H+  H352  1  0.07889184  0.16316319  0.07510219  1
  H+  H353  1  0.44263083  0.34988875  0.92528237  1
  H+  H354  1  0.84036869  0.91622632  0.09264405  1
  H+  H355  1  0.82494772  0.16040135  0.76131577  1
  H+  H356  1  0.68680468  0.63979307  0.87688954  1
  H+  H357  1  0.59789519  0.45765286  0.76179079  1
  H+  H358  1  0.32054799  0.91387204  0.73191417  1
  H+  H359  1  0.72986909  0.11273555  0.16370266  1
  H+  H360  1  0.83167255  0.16939430  0.09030300  1
  H+  H361  1  0.67293433  0.30021036  0.94355861  1
  H+  H362  1  0.66184658  0.58488040  0.23480534  1
  H+  H363  1  0.85938971  0.42929952  0.10164704  1
  H+  H364  1  0.67493815  0.35314852  0.27568451  1
  H+  H365  1  0.07795548  0.65821449  0.43348013  1
  H+  H366  1  0.41305466  0.82436924  0.60999912  1
  H+  H367  1  0.15129740  0.07485981  0.56713590  1
  H+  H368  1  0.06256735  0.60678645  0.07426813  1
  H+  H369  1  0.63613685  0.54282229  0.67455533  1
  H+  H370  1  0.58949826  0.42185305  0.41355675  1
  H+  H371  1  0.07151293  0.15720140  0.73760050  1
  H+  H372  1  0.16184054  0.32157322  0.57196489  1
  H+  H373  1  0.33710030  0.40877603  0.41357982  1
  H+  H374  1  0.16813896  0.57620311  0.60286775  1
  H+  H375  1  0.65571682  0.57850039  0.57742692  1
  H+  H376  1  0.80564964  0.84079091  0.43736398  1
  H+  H377  1  0.18201225  0.32261870  0.21018824  1
  H+  H378  1  0.57673918  0.89909945  0.43982773  1
  H+  H379  1  0.59935041  0.47082341  0.50649837  1
  H+  H380  1  0.73439772  0.87979399  0.82942829  1
  H+  H381  1  0.32270475  0.64066562  0.78162142  1
  H+  H382  1  0.91107455  0.21308048  0.38102343  1
  H+  H383  1  0.09841374  0.91301218  0.73739577  1
  O2-  O384  1  0.08671625  0.17108549  0.12376997  1
  O2-  O385  1  0.07533564  0.16527851  0.47079919  1
  O2-  O386  1  0.06948788  0.13936005  0.83890761  1
  O2-  O387  1  0.09834947  0.41304418  0.12804754  1
  O2-  O388  1  0.08123831  0.41378094  0.48781298  1
  O2-  O389  1  0.05007333  0.41378426  0.80335204  1
  O2-  O390  1  0.08138819  0.64595012  0.15171221  1
  O2-  O391  1  0.07914535  0.66333930  0.47952099  1
  O2-  O392  1  0.06803345  0.66238096  0.80622856  1
  O2-  O393  1  0.08144258  0.93316726  0.12979300  1
  O2-  O394  1  0.07496998  0.90057012  0.48769400  1
  O2-  O395  1  0.10563398  0.90371110  0.81311150  1
  O2-  O396  1  0.34674106  0.16136504  0.12975961  1
  O2-  O397  1  0.31454102  0.12620541  0.48760902  1
  O2-  O398  1  0.35598116  0.20346569  0.78355054  1
  O2-  O399  1  0.34938481  0.41357123  0.14117342  1
  O2-  O400  1  0.32920194  0.40621920  0.48939929  1
  O2-  O401  1  0.42554014  0.48986426  0.81194379  1
  O2-  O402  1  0.33696119  0.65472560  0.14414541  1
  O2-  O403  1  0.32623909  0.66650737  0.47339680  1
  O2-  O404  1  0.30620231  0.63766282  0.82465664  1
  O2-  O405  1  0.33407433  0.90881092  0.12594657  1
  O2-  O406  1  0.36243237  0.93736108  0.50379107  1
  O2-  O407  1  0.30175745  0.92088168  0.80253165  1
  O2-  O408  1  0.58930704  0.17464544  0.15627295  1
  O2-  O409  1  0.58976287  0.20094194  0.50769227  1
  O2-  O410  1  0.53026725  0.08575480  0.75500451  1
  O2-  O411  1  0.58652405  0.41468875  0.15108892  1
  O2-  O412  1  0.57703148  0.41169779  0.48861915  1
  O2-  O413  1  0.61642848  0.46241731  0.82578381  1
  O2-  O414  1  0.58420579  0.67384715  0.14568973  1
  O2-  O415  1  0.55943963  0.64336148  0.48649883  1
  O2-  O416  1  0.56726299  0.66336630  0.79610280  1
  O2-  O417  1  0.57245859  0.92152899  0.13412182  1
  O2-  O418  1  0.58360931  0.89131875  0.48352554  1
  O2-  O419  1  0.56410268  0.93329139  0.82143906  1
  O2-  O420  1  0.83259062  0.16610853  0.13641362  1
  O2-  O421  1  0.82625728  0.16672513  0.48940993  1
  O2-  O422  1  0.82147780  0.16280455  0.80617868  1
  O2-  O423  1  0.86646560  0.43016077  0.14674823  1
  O2-  O424  1  0.84808516  0.42738484  0.47096574  1
  O2-  O425  1  0.76621158  0.40918218  0.79188720  1
  O2-  O426  1  0.81471308  0.68049706  0.13353236  1
  O2-  O427  1  0.80327277  0.66295701  0.47381123  1
  O2-  O428  1  0.84566070  0.67615024  0.80239252  1
  O2-  O429  1  0.84265766  0.91902902  0.13857347  1
  O2-  O430  1  0.80051767  0.81669537  0.47886611  1
  O2-  O431  1  0.79533941  0.90548038  0.81704857  1
  O2-  O432  1  0.18353964  0.10329222  0.16330562  1
  O2-  O433  1  0.15049376  0.07376452  0.52186758  1
  O2-  O434  1  0.20106696  0.08871335  0.82862738  1
  O2-  O435  1  0.18055724  0.32786947  0.16566465  1
  O2-  O436  1  0.16064078  0.32221816  0.52647081  1
  O2-  O437  1  0.10677007  0.31974806  0.87861627  1
  O2-  O438  1  0.16954161  0.56881986  0.18892325  1
  O2-  O439  1  0.16701776  0.58052242  0.52351252  1
  O2-  O440  1  0.14508030  0.58075502  0.85031659  1
  O2-  O441  1  0.20014412  0.80292898  0.19774529  1
  O2-  O442  1  0.15198967  0.82073680  0.52795219  1
  O2-  O443  1  0.13491470  0.84243488  0.82850443  1
  O2-  O444  1  0.41718228  0.07533626  0.16573210  1
  O2-  O445  1  0.43399478  0.10208212  0.55465809  1
  O2-  O446  1  0.41157007  0.09128174  0.82666560  1
  O2-  O447  1  0.41636052  0.31186438  0.18334282  1
  O2-  O448  1  0.40720532  0.32077308  0.53527140  1
  O2-  O449  1  0.44870299  0.35699129  0.84703013  1
  O2-  O450  1  0.42293434  0.57591556  0.18563399  1
  O2-  O451  1  0.39391839  0.57384248  0.51764212  1
  O2-  O452  1  0.36191342  0.54481628  0.90031097  1
  O2-  O453  1  0.41078595  0.82819934  0.18108147  1
  O2-  O454  1  0.42107422  0.83162306  0.53277238  1
  O2-  O455  1  0.39110075  0.86367262  0.85505132  1
  O2-  O456  1  0.67084139  0.08018401  0.18202013  1
  O2-  O457  1  0.65465519  0.10371638  0.52600779  1
  O2-  O458  1  0.66296291  0.10203301  0.84691963  1
  O2-  O459  1  0.65972777  0.33728100  0.21139068  1
  O2-  O460  1  0.69794941  0.38086128  0.54033578  1
  O2-  O461  1  0.66274441  0.25680084  0.86900826  1
  O2-  O462  1  0.66255039  0.58592279  0.18970280  1
  O2-  O463  1  0.64561529  0.56999053  0.53182633  1
  O2-  O464  1  0.68425014  0.61984267  0.83551110  1
  O2-  O465  1  0.66767679  0.84554807  0.16630374  1
  O2-  O466  1  0.65626054  0.80647764  0.52079081  1
  O2-  O467  1  0.62371160  0.82485541  0.85377769  1
  O2-  O468  1  0.92976026  0.09439665  0.16893767  1
  O2-  O469  1  0.91923941  0.09379008  0.52918452  1
  O2-  O470  1  0.89168812  0.07607304  0.85676880  1
  O2-  O471  1  0.94526459  0.30666845  0.19701892  1
  O2-  O472  1  0.91513679  0.33376808  0.52204288  1
  O2-  O473  1  0.89190315  0.33549906  0.84098076  1
  O2-  O474  1  0.92003246  0.57319335  0.20445784  1
  O2-  O475  1  0.84646013  0.55795539  0.53504262  1
  O2-  O476  1  0.89862820  0.56759698  0.84213301  1
  O2-  O477  1  0.91812164  0.83914323  0.19442182  1
  O2-  O478  1  0.94081085  0.90037708  0.54217591  1
  O2-  O479  1  0.95385034  0.83421156  0.85018189  1
  O2-  O480  1  0.18985173  0.13053824  0.29220267  1
  O2-  O481  1  0.16356685  0.08369599  0.64942692  1
  O2-  O482  1  0.08994916  0.06270261  0.93832017  1
  O2-  O483  1  0.20464530  0.34003151  0.29609370  1
  O2-  O484  1  0.16742782  0.32179786  0.65379364  1
  O2-  O485  1  0.21525870  0.33646736  0.98865519  1
  O2-  O486  1  0.16635117  0.57661337  0.31114187  1
  O2-  O487  1  0.16836485  0.57058241  0.64800059  1
  O2-  O488  1  0.16871899  0.56583753  0.97289738  1
  O2-  O489  1  0.13878912  0.80705300  0.31318669  1
  O2-  O490  1  0.17856144  0.83968423  0.63923043  1
  O2-  O491  1  0.08449649  0.78199618  0.97868217  1
  O2-  O492  1  0.36040636  0.05539338  0.39454164  1
  O2-  O493  1  0.44915551  0.08783819  0.67464448  1
  O2-  O494  1  0.43661965  0.08410483  0.94651715  1
  O2-  O495  1  0.43671518  0.34815845  0.33100371  1
  O2-  O496  1  0.40936475  0.32811261  0.60246169  1
  O2-  O497  1  0.43952316  0.34301249  0.97087403  1
  O2-  O498  1  0.41813564  0.57230423  0.30683652  1
  O2-  O499  1  0.41316734  0.58296130  0.63816188  1
  O2-  O500  1  0.40968613  0.58363174  0.95296036  1
  O2-  O501  1  0.40013471  0.82431618  0.31060191  1
  O2-  O502  1  0.41062316  0.82201815  0.65567910  1
  O2-  O503  1  0.40097561  0.86640253  0.98465895  1
  O2-  O504  1  0.69300526  0.02622316  0.29359958  1
  O2-  O505  1  0.65308157  0.07619684  0.64906973  1
  O2-  O506  1  0.66997721  0.07835675  0.96869737  1
  O2-  O507  1  0.68955534  0.36787300  0.32277154  1
  O2-  O508  1  0.66244389  0.35793839  0.69327388  1
  O2-  O509  1  0.67540087  0.31668547  0.98718524  1
  O2-  O510  1  0.66632134  0.58206097  0.31847646  1
  O2-  O511  1  0.66859359  0.59723146  0.65003304  1
  O2-  O512  1  0.65572716  0.56168653  0.97725349  1
  O2-  O513  1  0.63931526  0.80249284  0.32963877  1
  O2-  O514  1  0.68188942  0.86470304  0.64213075  1
  O2-  O515  1  0.65065680  0.82602284  0.97791487  1
  O2-  O516  1  0.96806675  0.18470352  0.27048444  1
  O2-  O517  1  0.91918438  0.10193971  0.64175041  1
  O2-  O518  1  0.90882283  0.08353405  0.97808422  1
  O2-  O519  1  0.91197078  0.35081418  0.30688825  1
  O2-  O520  1  0.91339785  0.32678340  0.64303212  1
  O2-  O521  1  0.91237964  0.33042632  0.96134211  1
  O2-  O522  1  0.90181196  0.55026851  0.32614327  1
  O2-  O523  1  0.91790798  0.59238468  0.64539433  1
  O2-  O524  1  0.94838590  0.62432431  0.96180228  1
  O2-  O525  1  0.89953888  0.81883506  0.31334676  1
  O2-  O526  1  0.92103571  0.83691137  0.65974249  1
  O2-  O527  1  0.89823806  0.82257762  0.97057590  1
  O2-  O528  1  0.06677638  0.15522946  0.01115883  1
  O2-  O529  1  0.09230640  0.18893579  0.34368359  1
  O2-  O530  1  0.07374452  0.16116038  0.69300331  1
  O2-  O531  1  0.12373396  0.40672081  -0.00324145  1
  O2-  O532  1  0.06457847  0.41365911  0.35944543  1
  O2-  O533  1  0.07800063  0.40114105  0.68449675  1
  O2-  O534  1  0.04701141  0.57336616  0.03605807  1
  O2-  O535  1  0.07071550  0.64462713  0.35825198  1
  O2-  O536  1  0.15019660  0.69964245  0.70267836  1
  O2-  O537  1  0.05635343  0.91537428  0.00952068  1
  O2-  O538  1  0.05897309  0.87993432  0.36363039  1
  O2-  O539  1  0.09394684  0.92074319  0.69228085  1
  O2-  O540  1  0.41393163  0.19183640  0.02159696  1
  O2-  O541  1  0.33652612  0.19282875  0.36084604  1
  O2-  O542  1  0.32600119  0.18703948  0.67111173  1
  O2-  O543  1  0.36787042  0.41423381  0.02724363  1
  O2-  O544  1  0.34799364  0.41232967  0.36824730  1
  O2-  O545  1  0.33324891  0.42079664  0.69253171  1
  O2-  O546  1  0.33436036  0.65074822  0.01364841  1
  O2-  O547  1  0.32091506  0.67554049  0.35822079  1
  O2-  O548  1  0.33318316  0.65506673  0.69596561  1
  O2-  O549  1  0.39218447  0.93764985  0.00850597  1
  O2-  O550  1  0.31019953  0.89113269  0.35638938  1
  O2-  O551  1  0.33187239  0.91360895  0.68649825  1
  O2-  O552  1  0.57104012  0.13934684  0.01902385  1
  O2-  O553  1  0.52460361  0.18665240  0.39668349  1
  O2-  O554  1  0.53842734  0.12963987  0.69651863  1
  O2-  O555  1  0.59226616  0.40204564  0.02657588  1
  O2-  O556  1  0.59174737  0.42551214  0.36769477  1
  O2-  O557  1  0.58370067  0.45175426  0.71364017  1
  O2-  O558  1  0.56870469  0.65251369  0.01684679  1
  O2-  O559  1  0.57455893  0.63994040  0.36765692  1
  O2-  O560  1  0.58295020  0.68352727  0.67069106  1
  O2-  O561  1  0.56751294  0.91485420  0.01015772  1
  O2-  O562  1  0.56076920  0.89815301  0.35566591  1
  O2-  O563  1  0.57180668  0.91707279  0.69737380  1
  O2-  O564  1  0.83266111  0.16885521  0.01614687  1
  O2-  O565  1  0.85675436  0.19548719  0.36024580  1
  O2-  O566  1  0.82572082  0.16296873  0.67922767  1
  O2-  O567  1  0.84284164  0.42216757  0.02424692  1
  O2-  O568  1  0.85824968  0.45859090  0.34391975  1
  O2-  O569  1  0.89627113  0.44229950  0.70485583  1
  O2-  O570  1  0.82256781  0.64556678  0.00789320  1
  O2-  O571  1  0.81529969  0.66297697  0.35595438  1
  O2-  O572  1  0.83643881  0.66831563  0.68379121  1
  O2-  O573  1  0.82346554  0.90966808  0.01694349  1
  O2-  O574  1  0.80517236  0.87923432  0.36270589  1
  O2-  O575  1  0.81787011  0.90538805  0.70025686  1
