# generated using pymatgen
data_H2O
_symmetry_space_group_name_H-M   'P 1'
_cell_length_a   17.99468576
_cell_length_b   17.98687544
_cell_length_c   22.00481992
_cell_angle_alpha   89.98752168
_cell_angle_beta   90.02095405
_cell_angle_gamma   120.02156924
_symmetry_Int_Tables_number   1
_chemical_formula_structural   H2O
_chemical_formula_sum   'H384 O192'
_cell_volume   6166.71648255
_cell_formula_units_Z   192
loop_
 _symmetry_equiv_pos_site_id
 _symmetry_equiv_pos_as_xyz
  1  'x, y, z'
loop_
 _atom_type_symbol
 _atom_type_oxidation_number
  H+  1.0
  O2-  -2.0
loop_
 _atom_site_type_symbol
 _atom_site_label
 _atom_site_symmetry_multiplicity
 _atom_site_fract_x
 _atom_site_fract_y
 _atom_site_fract_z
 _atom_site_occupancy
  H+  H0  1  0.22353167  0.35782848  0.32008389  1
  H+  H1  1  0.39384512  0.78075327  0.65183230  1
  H+  H2  1  0.83710999  0.94335368  0.73826806  1
  H+  H3  1  0.10603984  0.39028195  0.15973989  1
  H+  H4  1  0.73648744  0.38424247  1.00347213  1
  H+  H5  1  0.61706775  0.35171487  0.99578852  1
  H+  H6  1  0.61502296  0.14222643  0.82591469  1
  H+  H7  1  0.62798906  0.02131891  0.17888681  1
  H+  H8  1  0.52248227  0.63423425  -0.01797183  1
  H+  H9  1  0.10895994  0.48324333  0.67321588  1
  H+  H10  1  0.41065625  0.37593324  0.51573185  1
  H+  H11  1  0.51754565  0.39266444  0.83146484  1
  H+  H12  1  0.07752123  0.93671613  0.74477660  1
  H+  H13  1  0.42647111  0.51089911  0.15361689  1
  H+  H14  1  0.64251052  0.78072474  0.67328487  1
  H+  H15  1  0.15248937  0.33435096  0.22881996  1
  H+  H16  1  0.86686241  0.89373966  -0.02834211  1
  H+  H17  1  0.35952161  0.63459915  0.00298176  1
  H+  H18  1  0.11248245  0.99175763  0.68484580  1
  H+  H19  1  0.13863264  0.03526131  0.99485136  1
  H+  H20  1  0.67168750  0.60381632  0.57311799  1
  H+  H21  1  0.12709509  0.11324507  0.17396003  1
  H+  H22  1  0.00289450  0.65511101  0.84747064  1
  H+  H23  1  0.31916270  0.81468553  0.10089648  1
  H+  H24  1  0.29777350  0.90606141  0.04253849  1
  H+  H25  1  0.48396174  0.61084435  0.67121336  1
  H+  H26  1  0.62413759  0.78891286  0.17858132  1
  H+  H27  1  0.12547138  0.47970120  0.33941385  1
  H+  H28  1  0.35433319  0.79297344  0.50351159  1
  H+  H29  1  0.62095867  0.89121727  0.67127342  1
  H+  H30  1  0.98969528  0.61629893  0.14788143  1
  H+  H31  1  0.50305738  0.95466742  0.30126257  1
  H+  H32  1  0.13821052  0.36429657  0.32643374  1
  H+  H33  1  0.72424183  0.36668445  0.85714872  1
  H+  H34  1  0.62578202  0.51193233  0.32355561  1
  H+  H35  1  0.52526368  0.13412763  0.66953627  1
  H+  H36  1  0.92512117  0.69885343  0.46947149  1
  H+  H37  1  0.22169918  0.36901534  0.66230139  1
  H+  H38  1  0.58871696  0.16608298  0.72722257  1
  H+  H39  1  0.11117935  0.23154184  0.33781771  1
  H+  H40  1  0.87774078  0.78393160  0.93166112  1
  H+  H41  1  0.54745484  0.12991727  0.38077989  1
  H+  H42  1  0.37981484  0.69505694  0.47852660  1
  H+  H43  1  0.47890781  0.35203372  0.17041188  1
  H+  H44  1  0.72909828  0.61564350  0.66560709  1
  H+  H45  1  0.64763738  0.11631655  0.65379295  1
  H+  H46  1  0.91304584  0.27794084  0.84548886  1
  H+  H47  1  0.73067344  0.87060560  0.67116950  1
  H+  H48  1  0.52237173  0.88213737  0.16259411  1
  H+  H49  1  0.13538996  0.64830963  0.84344070  1
  H+  H50  1  0.81577069  0.44812136  0.35086031  1
  H+  H51  1  0.47386296  0.36440818  0.99505877  1
  H+  H52  1  0.84298019  0.87618769  0.31484155  1
  H+  H53  1  0.88540093  1.02175713  0.31572519  1
  H+  H54  1  0.88817013  0.11137789  0.17331762  1
  H+  H55  1  0.86255205  0.39468208  0.61591460  1
  H+  H56  1  0.11964624  0.72948801  0.17062312  1
  H+  H57  1  0.53367060  0.89571916  0.66537438  1
  H+  H58  1  0.63883211  0.27721905  0.84146594  1
  H+  H59  1  0.38011814  0.01324560  0.49172218  1
  H+  H60  1  0.12916779  0.28088380  0.16772590  1
  H+  H61  1  0.38821029  1.02576469  -0.01418595  1
  H+  H62  1  0.77809967  0.12840247  0.33876681  1
  H+  H63  1  0.97581348  0.12431850  0.65202858  1
  H+  H64  1  0.28116006  0.39711712  1.00879254  1
  H+  H65  1  0.14473751  0.62452720  0.65437376  1
  H+  H66  1  0.99479907  0.91461862  0.84267787  1
  H+  H67  1  0.86795177  0.39527306  0.14696184  1
  H+  H68  1  0.76750391  0.13509867  0.18765529  1
  H+  H69  1  0.61227011  0.45754173  0.16184038  1
  H+  H70  1  0.36050689  0.71340479  0.16264974  1
  H+  H71  1  0.38962987  0.25341454  0.49213227  1
  H+  H72  1  0.37437142  0.02396788  0.33150009  1
  H+  H73  1  0.11021087  0.86714331  0.51756303  1
  H+  H74  1  0.36026903  0.63590053  0.33499782  1
  H+  H75  1  0.63215807  0.77260716  0.83598899  1
  H+  H76  1  0.63329451  0.50549839  0.49180292  1
  H+  H77  1  0.47446255  0.65006195  0.19322027  1
  H+  H78  1  0.63646724  0.86458252  0.98983413  1
  H+  H79  1  0.63954522  0.52827310  0.83806099  1
  H+  H80  1  0.85364181  0.47422957  0.63609351  1
  H+  H81  1  0.87558102  0.76409199  0.16827572  1
  H+  H82  1  0.60957632  0.36780101  0.15899844  1
  H+  H83  1  0.86365332  0.98886314  0.67415270  1
  H+  H84  1  0.03103940  0.13105080  0.49240785  1
  H+  H85  1  1.03473339  0.39376059  0.83239360  1
  H+  H86  1  0.72024815  0.60841836  0.99256282  1
  H+  H87  1  0.46890517  0.86563629  0.98610099  1
  H+  H88  1  0.07875006  0.81952374  0.95030420  1
  H+  H89  1  0.02694864  0.37800648  0.49229557  1
  H+  H90  1  0.90207749  0.25288603  0.50392455  1
  H+  H91  1  0.02259026  0.13964712  0.33809691  1
  H+  H92  1  0.15416387  0.50108195  0.50779324  1
  H+  H93  1  0.89708510  0.34871933  0.99545753  1
  H+  H94  1  0.03235409  0.38835365  0.00747831  1
  H+  H95  1  0.26402089  0.36397278  0.49487341  1
  H+  H96  1  0.85719078  0.34429039  0.31322971  1
  H+  H97  1  0.14530463  0.37009563  0.99385481  1
  H+  H98  1  0.93732880  0.55516394  0.32051033  1
  H+  H99  1  0.38352727  0.24918321  0.16267765  1
  H+  H100  1  0.61582793  0.79360958  0.47691390  1
  H+  H101  1  0.61532093  0.89255026  0.82070917  1
  H+  H102  1  0.13222868  0.87756129  0.67417762  1
  H+  H103  1  0.27600034  0.89358848  0.67358102  1
  H+  H104  1  0.13318602  0.37283961  0.66066962  1
  H+  H105  1  0.14853052  0.62302137  0.32839850  1
  H+  H106  1  0.88949226  0.33239606  0.49858495  1
  H+  H107  1  0.89352051  1.01441155  0.49984630  1
  H+  H108  1  0.01008438  0.87457143  0.17164201  1
  H+  H109  1  0.61214561  0.00721759  0.84067708  1
  H+  H110  1  0.24418133  0.36609163  0.84433069  1
  H+  H111  1  0.36843889  0.39623319  0.00231214  1
  H+  H112  1  0.15177505  0.36272816  0.84124830  1
  H+  H113  1  0.61511682  0.63762654  0.68036421  1
  H+  H114  1  0.37222504  0.63747647  0.66457066  1
  H+  H115  1  0.27860128  0.13861398  -0.00219671  1
  H+  H116  1  0.14878664  0.74192730  0.35601921  1
  H+  H117  1  0.84843175  0.54950168  0.01395900  1
  H+  H118  1  0.89318372  0.61324327  0.14342993  1
  H+  H119  1  0.24694781  0.86110261  0.17497440  1
  H+  H120  1  0.40420709  0.45995606  0.09315766  1
  H+  H121  1  0.37553761  0.60912008  0.17854408  1
  H+  H122  1  0.36936940  0.14126147  0.99939155  1
  H+  H123  1  0.38698761  0.36375179  0.31853060  1
  H+  H124  1  0.13880772  0.79568752  0.84031143  1
  H+  H125  1  0.57513658  0.42799068  0.73896734  1
  H+  H126  1  0.90093782  1.03107420  -0.01694750  1
  H+  H127  1  0.38663043  0.52946813  0.99042348  1
  H+  H128  1  0.68340449  0.06838660  0.56585398  1
  H+  H129  1  0.30928359  0.32145457  0.46026746  1
  H+  H130  1  1.02857332  0.84571852  0.33222283  1
  H+  H131  1  0.66862319  0.40284163  0.51961170  1
  H+  H132  1  0.10883311  0.64695258  0.00764113  1
  H+  H133  1  0.36020709  0.72417547  0.00573056  1
  H+  H134  1  0.39330548  0.02881149  0.65828481  1
  H+  H135  1  0.86512700  0.23272414  0.67991650  1
  H+  H136  1  0.64792647  0.02793345  0.65864737  1
  H+  H137  1  -0.06792468  0.60666955  0.61695385  1
  H+  H138  1  0.38007735  0.27195808  0.32418549  1
  H+  H139  1  0.50081683  0.88492293  0.34279878  1
  H+  H140  1  0.85169403  0.62082789  0.34900518  1
  H+  H141  1  0.51692539  0.38152850  0.34194196  1
  H+  H142  1  0.11486866  0.77440556  0.52071700  1
  H+  H143  1  0.88280686  0.98432903  0.14124293  1
  H+  H144  1  0.60018170  0.61950880  0.34424933  1
  H+  H145  1  0.34217904  0.17511037  0.09073998  1
  H+  H146  1  0.09728566  0.90330108  1.01990799  1
  H+  H147  1  0.21689799  0.13044455  0.68976543  1
  H+  H148  1  0.66049603  0.06689200  0.27983910  1
  H+  H149  1  0.53165336  0.65376917  0.49814698  1
  H+  H150  1  0.24965478  0.88921098  -0.01873443  1
  H+  H151  1  0.27988587  0.89956505  0.82172656  1
  H+  H152  1  0.86946341  0.48574446  0.86286709  1
  H+  H153  1  0.22043992  0.60948049  0.17067759  1
  H+  H154  1  0.72759369  0.86750767  -0.01655979  1
  H+  H155  1  0.61213766  0.63651135  0.83261169  1
  H+  H156  1  0.12335108  0.86318517  0.34632355  1
  H+  H157  1  0.89245577  0.62191489  0.67707354  1
  H+  H158  1  0.73895792  0.08525299  0.50515943  1
  H+  H159  1  0.76388376  0.33261207  0.48969666  1
  H+  H160  1  0.38554842  0.59632443  0.83283853  1
  H+  H161  1  0.61162471  0.97729175  0.00121200  1
  H+  H162  1  0.49503169  0.14199681  0.51127047  1
  H+  H163  1  0.17321655  0.88128175  0.19182634  1
  H+  H164  1  0.90210361  0.26156810  1.00052833  1
  H+  H165  1  0.38096661  0.57396072  0.51302530  1
  H+  H166  1  0.46541463  0.61176515  0.33433388  1
  H+  H167  1  0.89131743  0.11312607  0.31824868  1
  H+  H168  1  0.62716199  0.67317082  0.50054043  1
  H+  H169  1  0.10319632  0.14690229  0.67981573  1
  H+  H170  1  0.38498064  0.27656740  -0.00892600  1
  H+  H171  1  0.38973091  0.86729192  0.65767394  1
  H+  H172  1  0.35568805  0.74544271  0.83563514  1
  H+  H173  1  0.61340672  0.34437318  0.32373219  1
  H+  H174  1  0.92443058  0.07873437  0.22456478  1
  H+  H175  1  0.35646716  0.38124231  0.67208680  1
  H+  H176  1  0.27204382  0.61980644  0.80680063  1
  H+  H177  1  0.61070551  0.69766327  0.19090183  1
  H+  H178  1  0.23209539  0.52605542  0.55134274  1
  H+  H179  1  0.12276069  0.22135854  0.83150860  1
  H+  H180  1  0.78172174  0.14085325  0.68105717  1
  H+  H181  1  0.88874744  0.28829255  0.16300707  1
  H+  H182  1  0.88686364  0.51019372  0.14060576  1
  H+  H183  1  0.61941735  0.90955231  0.14559405  1
  H+  H184  1  0.36292701  0.13937645  0.84215921  1
  H+  H185  1  0.62719600  0.25753207  0.51475599  1
  H+  H186  1  0.62193586  0.74856786  0.33397591  1
  H+  H187  1  0.27834809  0.63393197  0.48697894  1
  H+  H188  1  0.67171362  0.08209694  0.93798171  1
  H+  H189  1  0.43717895  0.83481398  0.24756103  1
  H+  H190  1  0.86939775  0.88929423  0.14582479  1
  H+  H191  1  0.60985990  0.47147882  0.00766834  1
  H+  H192  1  0.74170761  0.39775791  0.56168065  1
  H+  H193  1  0.86076264  0.22226504  0.33111811  1
  H+  H194  1  0.36594259  0.13812643  0.15094212  1
  H+  H195  1  0.09082347  0.16928310  0.43355537  1
  H+  H196  1  0.35348913  0.87815193  0.82417652  1
  H+  H197  1  0.87610362  0.12259242  0.48508751  1
  H+  H198  1  0.86502626  0.85960220  0.50004740  1
  H+  H199  1  0.40883376  0.50590536  0.50733212  1
  H+  H200  1  0.10911643  0.77058829  -0.00523561  1
  H+  H201  1  0.29397843  0.24164742  0.73659956  1
  H+  H202  1  0.12462854  0.02132510  0.18281391  1
  H+  H203  1  0.36122973  0.22715463  0.84743263  1
  H+  H204  1  0.60638621  0.39102558  0.82973224  1
  H+  H205  1  0.11835379  0.63882856  0.16500158  1
  H+  H206  1  0.23330466  0.69472690  0.86213959  1
  H+  H207  1  0.86943365  0.74978471  0.32834470  1
  H+  H208  1  0.22302041  0.61976974  0.99522086  1
  H+  H209  1  0.03005616  0.64563114  0.67932775  1
  H+  H210  1  0.61418829  0.72212293  -0.01874715  1
  H+  H211  1  0.52166891  0.13198421  0.16002503  1
  H+  H212  1  0.53149918  0.14847405  0.82189222  1
  H+  H213  1  0.39865703  1.02766595  0.83546819  1
  H+  H214  1  0.89463366  0.51390250  0.54995384  1
  H+  H215  1  0.35948544  0.47672412  0.33591393  1
  H+  H216  1  0.48297582  0.10843939  -0.00576695  1
  H+  H217  1  0.38935280  0.84009681  0.18991087  1
  H+  H218  1  0.12201972  0.48243798  0.82804254  1
  H+  H219  1  0.92002906  0.84511640  0.35231129  1
  H+  H220  1  0.77623702  0.65490019  0.83097357  1
  H+  H221  1  0.17542019  0.06497236  0.53447859  1
  H+  H222  1  0.72559037  0.35604848  0.17402702  1
  H+  H223  1  0.86242424  0.74978914  0.83178258  1
  H+  H224  1  0.15991946  0.07673627  0.92968490  1
  H+  H225  1  0.12440953  0.23567218  0.00566179  1
  H+  H226  1  0.75376247  0.87144991  0.32147115  1
  H+  H227  1  -0.03186390  0.36898129  0.65545228  1
  H+  H228  1  0.44232929  0.34584074  0.57308558  1
  H+  H229  1  0.63212442  0.11080465  0.18386559  1
  H+  H230  1  0.87775910  0.63287183  0.85667838  1
  H+  H231  1  0.29570093  0.17147366  0.49908513  1
  H+  H232  1  0.38550988  0.92431654  0.35256305  1
  H+  H233  1  0.07529781  0.86006260  0.13433137  1
  H+  H234  1  0.26326891  0.63583863  0.32641877  1
  H+  H235  1  0.95689841  0.86669737  0.50146315  1
  H+  H236  1  0.75611151  0.90230113  0.14600855  1
  H+  H237  1  0.61528275  0.26811846  0.66988927  1
  H+  H238  1  0.86845230  0.16646311  0.77198413  1
  H+  H239  1  0.98036733  0.37756087  0.15938171  1
  H+  H240  1  0.77274741  0.62237077  0.14997855  1
  H+  H241  1  0.08623446  0.96631736  0.47040890  1
  H+  H242  1  0.09015691  0.07616128  0.83411977  1
  H+  H243  1  0.63152381  0.58068625  0.16404836  1
  H+  H244  1  0.51853170  0.62763660  0.83164889  1
  H+  H245  1  0.61473112  0.21686938  0.34776174  1
  H+  H246  1  0.87709649  0.58313502  0.51786286  1
  H+  H247  1  0.64496915  0.10043387  0.34329099  1
  H+  H248  1  0.63518342  0.96345681  0.36056266  1
  H+  H249  1  0.67047082  0.58318039  0.89870900  1
  H+  H250  1  -0.01036308  0.85615225  0.65940274  1
  H+  H251  1  0.17935588  0.86109071  0.89343615  1
  H+  H252  1  0.61284255  0.21857312  0.00917248  1
  H+  H253  1  0.15491580  0.13829605  0.51421251  1
  H+  H254  1  0.87227443  0.74013108  0.49226769  1
  H+  H255  1  0.38342922  0.36945265  0.84036035  1
  H+  H256  1  0.37667277  0.02145913  0.16908429  1
  H+  H257  1  0.13269723  0.78723852  0.66812872  1
  H+  H258  1  0.63930367  0.26270481  0.17022550  1
  H+  H259  1  0.73572374  0.35725691  0.33505006  1
  H+  H260  1  0.88014835  0.13148278  1.00660570  1
  H+  H261  1  0.61926764  0.86798703  0.34318937  1
  H+  H262  1  0.12648648  0.14760353  0.00152874  1
  H+  H263  1  0.87244926  0.72316054  0.67557825  1
  H+  H264  1  0.86003760  0.92088312  0.83835152  1
  H+  H265  1  0.12910789  0.52163367  0.17185731  1
  H+  H266  1  0.12773471  0.12497020  0.32464232  1
  H+  H267  1  0.91885754  0.32203286  0.59468332  1
  H+  H268  1  0.63093240  0.60832550  -0.01703277  1
  H+  H269  1  0.73502894  0.64289137  0.51735703  1
  H+  H270  1  0.55149554  0.41304198  0.49767461  1
  H+  H271  1  0.39458437  0.90846034  0.10753234  1
  H+  H272  1  0.05498623  0.65958313  0.36003118  1
  H+  H273  1  0.47878874  0.36806115  0.66825019  1
  H+  H274  1  0.13660308  0.26936677  0.51131192  1
  H+  H275  1  0.02761092  0.64315408  0.50738654  1
  H+  H276  1  0.11454409  0.48372996  0.00423784  1
  H+  H277  1  0.59918498  0.38776673  0.68252250  1
  H+  H278  1  0.71372656  0.60036424  0.32651558  1
  H+  H279  1  0.45034170  0.12319597  0.31420714  1
  H+  H280  1  0.76668843  0.90572352  0.82931060  1
  H+  H281  1  0.87623646  0.39870146  0.85787122  1
  H+  H282  1  0.81807344  0.41888960  0.09249155  1
  H+  H283  1  0.84718566  0.19090280  0.22859011  1
  H+  H284  1  0.02764202  0.13859942  0.15185740  1
  H+  H285  1  0.93705717  0.54528197  0.39196663  1
  H+  H286  1  0.37749599  0.86254561  0.98244153  1
  H+  H287  1  0.34275950  0.13384608  0.33711191  1
  H+  H288  1  0.89707134  0.81796590  0.23011236  1
  H+  H289  1  0.36288168  0.91364751  0.49459400  1
  H+  H290  1  0.08956032  0.68035931  0.06903185  1
  H+  H291  1  0.56060250  0.03539163  0.88342339  1
  H+  H292  1  0.57028194  0.91732308  0.05849938  1
  H+  H293  1  0.63740211  0.52793210  0.66314722  1
  H+  H294  1  0.65087533  0.32443086  0.93574633  1
  H+  H295  1  0.82607208  0.66054762  0.40218974  1
  H+  H296  1  0.79681718  0.36665567  0.75754776  1
  H+  H297  1  0.83536835  0.67595794  0.74008942  1
  H+  H298  1  0.36101573  0.47135438  0.67691634  1
  H+  H299  1  0.10428290  0.23638743  0.67540314  1
  H+  H300  1  0.40502071  0.14068464  0.50423353  1
  H+  H301  1  0.33125183  0.41112847  0.77839547  1
  H+  H302  1  0.76162586  0.89732394  0.47172093  1
  H+  H303  1  0.09805695  0.68514601  0.45332620  1
  H+  H304  1  0.64488329  0.95631722  0.52129921  1
  H+  H305  1  0.32939419  0.66184180  0.09838628  1
  H+  H306  1  0.92118514  0.07673587  0.55963590  1
  H+  H307  1  0.06592831  0.88906549  0.42685892  1
  H+  H308  1  0.38114907  0.50281333  0.84014031  1
  H+  H309  1  0.16523523  0.60306968  0.93630976  1
  H+  H310  1  0.98988637  0.12025240  0.99346577  1
  H+  H311  1  0.66462386  0.57085670  0.22969039  1
  H+  H312  1  0.21878511  0.12303275  0.32405376  1
  H+  H313  1  0.17220203  0.58361266  0.59906242  1
  H+  H314  1  0.77377825  0.35520035  0.72753892  1
  H+  H315  1  0.07870297  0.42279906  0.73186107  1
  H+  H316  1  0.72247200  0.92507114  0.20534548  1
  H+  H317  1  0.33095019  0.41123554  0.39150927  1
  H+  H318  1  0.58179029  0.66208406  0.74122554  1
  H+  H319  1  0.89679054  0.52194340  0.24748293  1
  H+  H320  1  0.34841391  0.95175332  0.42082502  1
  H+  H321  1  0.43192803  0.57565598  0.60906194  1
  H+  H322  1  0.39902268  0.07609420  0.23018453  1
  H+  H323  1  0.14388131  0.84295570  0.58537061  1
  H+  H324  1  0.25638019  0.88047970  0.34316251  1
  H+  H325  1  0.08686136  0.42732390  0.09790920  1
  H+  H326  1  0.58192580  0.59611623  0.09605623  1
  H+  H327  1  0.90054408  0.61115466  0.92197180  1
  H+  H328  1  0.09392429  0.16975779  0.09589062  1
  H+  H329  1  0.17903564  0.11251811  0.62231329  1
  H+  H330  1  0.16756881  0.58950070  0.26310085  1
  H+  H331  1  0.31257613  0.17521639  0.76855181  1
  H+  H332  1  0.41598770  0.31846566  0.23117265  1
  H+  H333  1  0.20050612  0.83744718  0.28215231  1
  H+  H334  1  0.42334542  0.09242591  0.60193619  1
  H+  H335  1  0.07739644  0.16995684  0.77124586  1
  H+  H336  1  0.64470678  0.31262862  0.26435975  1
  H+  H337  1  0.64343476  0.33640093  0.61670232  1
  H+  H338  1  0.84851052  0.42363523  0.94514252  1
  H+  H339  1  0.17642451  0.33874454  0.93517748  1
  H+  H340  1  0.61648609  0.19824922  0.45833049  1
  H+  H341  1  0.90323864  0.33483659  0.25439731  1
  H+  H342  1  0.84970792  0.91525932  0.03972909  1
  H+  H343  1  0.92494564  0.82597953  0.60304169  1
  H+  H344  1  0.40906681  0.58899100  0.27242956  1
  H+  H345  1  0.57800625  0.65723364  0.40493200  1
  H+  H346  1  0.93737569  0.32979039  0.90704932  1
  H+  H347  1  0.32526196  0.67545391  0.39006825  1
  H+  H348  1  0.94126724  0.62837695  0.01959176  1
  H+  H349  1  0.07593356  0.94636081  0.07457705  1
  H+  H350  1  0.16688860  0.33394854  0.56963212  1
  H+  H351  1  0.88644748  0.12052300  0.64864414  1
  H+  H352  1  0.93883141  0.52192757  0.24736226  1
  H+  H353  1  0.32623310  0.17510962  0.39726754  1
  H+  H354  1  0.85035690  0.15821496  0.06828288  1
  H+  H355  1  0.59096084  0.92702841  0.76124744  1
  H+  H356  1  0.84464236  0.05384080  0.83899563  1
  H+  H357  1  0.57864388  0.40985630  0.06699964  1
  H+  H358  1  0.82242211  0.91207530  0.41573161  1
  H+  H359  1  0.66040350  0.83363449  0.89404437  1
  H+  H360  1  0.62445690  0.78374265  0.26879526  1
  H+  H361  1  0.15530398  0.08949630  0.25494352  1
  H+  H362  1  0.37174882  0.79694765  0.89879589  1
  H+  H363  1  0.62217447  0.87765069  0.42975255  1
  H+  H364  1  0.43047843  0.08633888  0.89545320  1
  H+  H365  1  0.39124986  0.27658658  0.66569799  1
  H+  H366  1  0.40187919  0.84712717  0.56276477  1
  H+  H367  1  0.09452626  0.41927563  0.39784075  1
  H+  H368  1  0.84395617  0.15624146  0.42858063  1
  H+  H369  1  0.58531253  0.41868513  0.39826156  1
  H+  H370  1  0.60750730  0.64344823  0.10350732  1
  H+  H371  1  0.33837349  0.91988997  0.73086562  1
  H+  H372  1  0.83239706  0.65431674  0.09004908  1
  H+  H373  1  0.11518602  0.37769103  0.49139492  1
  H+  H374  1  0.80735388  0.35945168  0.42500441  1
  H+  H375  1  0.03273673  0.71013069  0.78889236  1
  H+  H376  1  0.41951137  0.34219330  0.89922456  1
  H+  H377  1  0.10078473  0.67229043  0.73091349  1
  H+  H378  1  0.58384504  0.15683526  0.10185824  1
  H+  H379  1  0.40903304  0.58164729  0.92772746  1
  H+  H380  1  0.73747749  0.10929866  -0.00450419  1
  H+  H381  1  0.28276477  0.63917733  0.66314374  1
  H+  H382  1  0.62278295  0.13419429  0.00954444  1
  H+  H383  1  0.33806724  0.65789914  0.75198304  1
  O2-  O384  1  0.08978426  0.16722045  0.14186906  1
  O2-  O385  1  0.09257960  0.16800502  0.47902307  1
  O2-  O386  1  0.08951282  0.16281456  0.81398748  1
  O2-  O387  1  0.07950580  0.42544122  0.14345374  1
  O2-  O388  1  0.08863057  0.41211747  0.47774947  1
  O2-  O389  1  0.09232527  0.42435994  0.81147266  1
  O2-  O390  1  0.09033844  0.67277052  0.15042013  1
  O2-  O391  1  0.08636114  0.69003274  0.49683268  1
  O2-  O392  1  0.05499811  0.68814150  0.82035410  1
  O2-  O393  1  0.07278457  0.90260705  0.16047791  1
  O2-  O394  1  0.06169427  0.90420819  0.47158995  1
  O2-  O395  1  0.05828441  0.95195525  0.82448395  1
  O2-  O396  1  0.34347423  0.17560320  0.13679888  1
  O2-  O397  1  0.34946416  0.19552765  0.47459370  1
  O2-  O398  1  0.32578226  0.16487445  0.83693101  1
  O2-  O399  1  0.44615266  0.48069559  0.12682494  1
  O2-  O400  1  0.32011138  0.37801146  0.47347980  1
  O2-  O401  1  0.33476113  0.41278927  0.82290003  1
  O2-  O402  1  0.32268321  0.65675909  0.14415193  1
  O2-  O403  1  0.32424602  0.68356649  0.46290206  1
  O2-  O404  1  0.33343824  0.65043107  0.79747186  1
  O2-  O405  1  0.33619961  0.86895325  0.12194777  1
  O2-  O406  1  0.34318860  0.95281046  0.47485172  1
  O2-  O407  1  0.34090832  0.92238218  0.80804826  1
  O2-  O408  1  0.58277840  0.15931410  0.14769916  1
  O2-  O409  1  0.59843757  0.19734021  0.50048326  1
  O2-  O410  1  0.59335641  0.17933807  0.80900169  1
  O2-  O411  1  0.57862012  0.39825860  0.14545281  1
  O2-  O412  1  0.60952052  0.44502815  0.47844782  1
  O2-  O413  1  0.57944327  0.42449424  0.81589491  1
  O2-  O414  1  0.58567207  0.73357515  0.20002970  1
  O2-  O415  1  0.58922604  0.69224836  0.48058937  1
  O2-  O416  1  0.57936345  0.66352409  0.81652474  1
  O2-  O417  1  0.57396093  0.92507346  0.13978264  1
  O2-  O418  1  0.61015971  0.88597027  0.52347034  1
  O2-  O419  1  0.58712433  0.92501734  0.80657130  1
  O2-  O420  1  0.83194372  0.16967074  0.18684712  1
  O2-  O421  1  0.84321244  0.15189836  0.47361439  1
  O2-  O422  1  0.89605062  0.17451080  0.81294711  1
  O2-  O423  1  0.83464187  0.42639886  0.13717178  1
  O2-  O424  1  0.81826498  0.35327056  0.46824821  1
  O2-  O425  1  0.83982443  0.42314666  0.87065889  1
  O2-  O426  1  0.83314348  0.65823481  0.13473556  1
  O2-  O427  1  0.86541743  0.68444823  0.47447036  1
  O2-  O428  1  0.83846449  0.68753647  0.81916131  1
  O2-  O429  1  0.84982105  0.92477191  0.12406934  1
  O2-  O430  1  0.82067945  0.91225334  0.46087708  1
  O2-  O431  1  0.82845804  0.94882877  0.82198624  1
  O2-  O432  1  0.15206400  0.08108987  0.19694824  1
  O2-  O433  1  0.19722024  0.12653374  0.53668992  1
  O2-  O434  1  0.10046675  0.03310829  0.85756674  1
  O2-  O435  1  0.14945440  0.33909448  0.18404703  1
  O2-  O436  1  0.17037031  0.33114584  0.52377409  1
  O2-  O437  1  0.17965778  0.33305340  0.85962768  1
  O2-  O438  1  0.16107344  0.58307781  0.18815455  1
  O2-  O439  1  0.20439539  0.55262744  0.52911821  1
  O2-  O440  1  0.18004310  0.63701986  0.85890777  1
  O2-  O441  1  0.19424060  0.84104043  0.19909803  1
  O2-  O442  1  0.13900386  0.83782045  0.53760864  1
  O2-  O443  1  0.18127044  0.85611149  0.84929362  1
  O2-  O444  1  0.40925026  0.07978638  0.18470888  1
  O2-  O445  1  0.43115834  0.10722280  0.51950682  1
  O2-  O446  1  0.42983015  0.08837417  0.85028800  1
  O2-  O447  1  0.41786934  0.31533469  0.18549205  1
  O2-  O448  1  0.44845491  0.35327958  0.52737524  1
  O2-  O449  1  0.41894534  0.33976148  0.85398231  1
  O2-  O450  1  0.41782374  0.59882587  0.20097281  1
  O2-  O451  1  0.42854858  0.56437604  0.52206118  1
  O2-  O452  1  0.41486186  0.56922494  0.85335220  1
  O2-  O453  1  0.42569917  0.81715752  0.20393129  1
  O2-  O454  1  0.39196628  0.85140787  0.51822292  1
  O2-  O455  1  0.33991325  0.78253121  0.85973114  1
  O2-  O456  1  0.65861864  0.07761821  0.20072007  1
  O2-  O457  1  0.68115691  0.04805928  0.52305456  1
  O2-  O458  1  0.61841577  0.05843591  0.86721053  1
  O2-  O459  1  0.66519823  0.32224373  0.18774942  1
  O2-  O460  1  0.68604231  0.36450629  0.53986834  1
  O2-  O461  1  0.66105868  0.33448643  0.86234500  1
  O2-  O462  1  0.67100777  0.56609868  0.18461567  1
  O2-  O463  1  0.67404180  0.61397069  0.52747079  1
  O2-  O464  1  0.67230626  0.58897770  0.85358842  1
  O2-  O465  1  0.70168853  0.89337614  0.16728284  1
  O2-  O466  1  0.64281488  0.85931790  0.47153756  1
  O2-  O467  1  0.66139253  0.83413316  0.84873346  1
  O2-  O468  1  0.92047808  0.08045348  0.17915483  1
  O2-  O469  1  0.92864135  0.07442054  0.51396742  1
  O2-  O470  1  0.83268519  0.10132116  0.84900735  1
  O2-  O471  1  0.91708255  0.35039239  0.17154913  1
  O2-  O472  1  0.92881059  0.31422254  0.51748942  1
  O2-  O473  1  0.93525209  0.33686862  0.86198235  1
  O2-  O474  1  0.92591520  0.58188844  0.13754171  1
  O2-  O475  1  0.92304560  0.57332329  0.53199301  1
  O2-  O476  1  0.90621135  0.60376358  0.87796115  1
  O2-  O477  1  0.90346521  0.82321926  0.18550791  1
  O2-  O478  1  0.89748466  0.83307351  0.51746719  1
  O2-  O479  1  0.90643262  0.85223235  0.85805188  1
  O2-  O480  1  0.15845621  0.09436308  0.30708555  1
  O2-  O481  1  0.16207507  0.09777500  0.66505210  1
  O2-  O482  1  0.17497127  0.09102185  0.97306091  1
  O2-  O483  1  0.16172465  0.32747043  0.30929408  1
  O2-  O484  1  0.16225946  0.34181351  0.64454329  1
  O2-  O485  1  0.17512428  0.33873175  0.98119724  1
  O2-  O486  1  0.17695556  0.59332880  0.30870964  1
  O2-  O487  1  0.17190213  0.58966677  0.64373867  1
  O2-  O488  1  0.16217225  0.59478576  0.98122322  1
  O2-  O489  1  0.19625608  0.83744158  0.32693243  1
  O2-  O490  1  0.15857218  0.84697731  0.65206219  1
  O2-  O491  1  0.12682915  0.82938725  0.97655197  1
  O2-  O492  1  0.39080495  0.08139903  0.30485577  1
  O2-  O493  1  0.42548116  0.09025431  0.64675325  1
  O2-  O494  1  0.42524120  0.08699081  0.97528476  1
  O2-  O495  1  0.41638766  0.33101709  0.30686506  1
  O2-  O496  1  0.42070950  0.33416802  0.64701074  1
  O2-  O497  1  0.41476617  0.33769161  0.97793224  1
  O2-  O498  1  0.40523754  0.58631506  0.31886717  1
  O2-  O499  1  0.42357354  0.57955420  0.65281013  1
  O2-  O500  1  0.41149224  0.58933755  0.97338692  1
  O2-  O501  1  0.46409272  0.89586226  0.31483559  1
  O2-  O502  1  0.42076332  0.84099821  0.63728064  1
  O2-  O503  1  0.40652121  0.82916092  0.97535061  1
  O2-  O504  1  0.66487937  0.06260186  0.32492981  1
  O2-  O505  1  0.68196726  0.08861903  0.64279563  1
  O2-  O506  1  0.67603126  0.08356844  0.98336687  1
  O2-  O507  1  0.63847283  0.30848824  0.30969359  1
  O2-  O508  1  0.63630356  0.33042089  0.66106570  1
  O2-  O509  1  0.65087556  0.32349234  0.98201602  1
  O2-  O510  1  0.65503711  0.57306579  0.30863303  1
  O2-  O511  1  0.67023816  0.58850833  0.64742564  1
  O2-  O512  1  0.66196805  0.57282851  0.97757867  1
  O2-  O513  1  0.64627259  0.80458664  0.31071528  1
  O2-  O514  1  0.66994556  0.83907875  0.65602908  1
  O2-  O515  1  0.66538007  0.83473244  0.97268308  1
  O2-  O516  1  0.92181540  0.08249688  0.30321949  1
  O2-  O517  1  0.91772958  0.09241069  0.63213308  1
  O2-  O518  1  0.92940384  0.09445956  0.97927273  1
  O2-  O519  1  0.88463166  0.31316288  0.29614084  1
  O2-  O520  1  0.90976118  0.33502367  0.63745484  1
  O2-  O521  1  0.93176873  0.32207242  0.98420850  1
  O2-  O522  1  0.93096680  0.57894667  0.35931209  1
  O2-  O523  1  0.92891836  0.59761607  0.66130604  1
  O2-  O524  1  0.86433247  0.42640478  0.98979409  1
  O2-  O525  1  0.90213654  0.81179209  0.31463203  1
  O2-  O526  1  0.94717040  0.80558938  0.63585489  1
  O2-  O527  1  0.91298531  0.84575195  0.92488041  1
  O2-  O528  1  0.09555605  0.17463746  0.02080445  1
  O2-  O529  1  0.08258147  0.17039178  0.35439878  1
  O2-  O530  1  0.06940914  0.17581545  0.68929284  1
  O2-  O531  1  0.09280266  0.42569659  0.02215430  1
  O2-  O532  1  0.09859324  0.41963791  0.35280974  1
  O2-  O533  1  0.07622360  0.42220679  0.68647064  1
  O2-  O534  1  0.07924779  0.67719545  0.02462608  1
  O2-  O535  1  0.11502270  0.68077729  0.37190531  1
  O2-  O536  1  0.09450290  0.67805629  0.68725874  1
  O2-  O537  1  0.07549775  0.94221937  0.03023530  1
  O2-  O538  1  0.07766870  0.87651526  0.35940409  1
  O2-  O539  1  0.08515701  0.93151130  0.70059905  1
  O2-  O540  1  0.33788403  0.16922616  0.01581482  1
  O2-  O541  1  0.31766833  0.16920624  0.35216946  1
  O2-  O542  1  0.30440405  0.19503758  0.72585498  1
  O2-  O543  1  0.34347162  0.43045455  0.01926410  1
  O2-  O544  1  0.33397012  0.41475536  0.34667225  1
  O2-  O545  1  0.32439539  0.40932954  0.68701183  1
  O2-  O546  1  0.32966130  0.66450155  0.02194795  1
  O2-  O547  1  0.32797398  0.66924266  0.34421097  1
  O2-  O548  1  0.34355865  0.67063680  0.67703717  1
  O2-  O549  1  0.30769150  0.91220286  -0.00135036  1
  O2-  O550  1  0.34883313  0.94797485  0.36462690  1
  O2-  O551  1  0.33676541  0.91816149  0.68522218  1
  O2-  O552  1  0.58685436  0.15861672  0.02509000  1
  O2-  O553  1  0.60836903  0.16686103  0.37221294  1
  O2-  O554  1  0.58797846  0.16564921  0.68208023  1
  O2-  O555  1  0.57796436  0.41028259  0.02169098  1
  O2-  O556  1  0.57921029  0.41095591  0.35323954  1
  O2-  O557  1  0.57455695  0.42652012  0.69332289  1
  O2-  O558  1  0.58585190  0.65881822  -0.01477708  1
  O2-  O559  1  0.57049634  0.65021294  0.35993860  1
  O2-  O560  1  0.58050613  0.66302791  0.69537698  1
  O2-  O561  1  0.57323105  0.91577429  0.01351721  1
  O2-  O562  1  0.60373097  0.90132715  0.37292506  1
  O2-  O563  1  0.59237149  0.92602394  0.68264330  1
  O2-  O564  1  0.84629961  0.16034582  0.02428857  1
  O2-  O565  1  0.84083986  0.16249523  0.34675526  1
  O2-  O566  1  0.84258127  0.17347222  0.69570614  1
  O2-  O567  1  0.79643072  0.43210423  0.02270003  1
  O2-  O568  1  0.79688134  0.38696013  0.35060799  1
  O2-  O569  1  0.84035541  0.43344468  0.60236091  1
  O2-  O570  1  0.88194100  0.61280545  0.00938552  1
  O2-  O571  1  0.81919428  0.65058667  0.35706944  1
  O2-  O572  1  0.83359375  0.66583789  0.69527201  1
  O2-  O573  1  0.83868012  0.91923027  -0.00379086  1
  O2-  O574  1  0.81602826  0.90740764  0.33218247  1
  O2-  O575  1  0.83498038  0.93197121  0.69407150  1
