# generated using pymatgen
data_H2O
_symmetry_space_group_name_H-M   'P 1'
_cell_length_a   17.97869735
_cell_length_b   17.97621796
_cell_length_c   21.98122346
_cell_angle_alpha   89.99888529
_cell_angle_beta   90.00324907
_cell_angle_gamma   120.01117171
_symmetry_Int_Tables_number   1
_chemical_formula_structural   H2O
_chemical_formula_sum   'H384 O192'
_cell_volume   6151.62903406
_cell_formula_units_Z   192
loop_
 _symmetry_equiv_pos_site_id
 _symmetry_equiv_pos_as_xyz
  1  'x, y, z'
loop_
 _atom_type_symbol
 _atom_type_oxidation_number
  H+  1.0
  O2-  -2.0
loop_
 _atom_site_type_symbol
 _atom_site_label
 _atom_site_symmetry_multiplicity
 _atom_site_fract_x
 _atom_site_fract_y
 _atom_site_fract_z
 _atom_site_occupancy
  H+  H0  1  0.37277869  0.46792100  0.49923038  1
  H+  H1  1  0.88773086  0.61081215  0.17035706  1
  H+  H2  1  0.52665040  0.89048157  0.15406364  1
  H+  H3  1  0.84760607  0.64996758  0.49232507  1
  H+  H4  1  0.27809056  0.64203320  0.82383827  1
  H+  H5  1  0.97369096  0.45911185  0.94044833  1
  H+  H6  1  0.90048862  0.87594061  0.83616981  1
  H+  H7  1  0.88641205  0.10638909  0.82979298  1
  H+  H8  1  0.86221893  0.63650560  0.82426460  1
  H+  H9  1  -0.00155664  0.39131765  0.34419281  1
  H+  H10  1  0.23186596  0.61185601  0.18588893  1
  H+  H11  1  0.09853865  0.11183969  0.49006236  1
  H+  H12  1  0.62989962  0.93119746  0.81866209  1
  H+  H13  1  0.72736568  1.11568511  0.50811900  1
  H+  H14  1  0.84122128  0.20677824  0.82601416  1
  H+  H15  1  0.36257235  0.98239948  0.82521342  1
  H+  H16  1  0.08651094  0.17256927  0.40096655  1
  H+  H17  1  0.88512265  0.11547132  0.50552161  1
  H+  H18  1  0.64120068  0.52535595  0.32527905  1
  H+  H19  1  0.22480267  0.36561754  0.65669575  1
  H+  H20  1  0.11140398  0.76772705  0.50350850  1
  H+  H21  1  0.13700150  0.25830487  0.50671064  1
  H+  H22  1  0.75474936  0.75739359  0.03563155  1
  H+  H23  1  0.14211271  1.02560951  0.83512083  1
  H+  H24  1  0.87848620  0.52408567  0.83193728  1
  H+  H25  1  0.36929950  0.62495591  0.16562319  1
  H+  H26  1  0.80061292  0.97307068  0.02636656  1
  H+  H27  1  0.27278338  0.89336586  0.82552610  1
  H+  H28  1  0.35864233  0.22840748  0.16334566  1
  H+  H29  1  -0.00151951  0.08565134  0.14455746  1
  H+  H30  1  0.36767016  0.64381703  0.82301684  1
  H+  H31  1  0.60475083  0.41470258  0.82745561  1
  H+  H32  1  0.41951040  0.84060068  0.22924341  1
  H+  H33  1  0.27841637  0.14329640  0.82593838  1
  H+  H34  1  0.61658753  0.15539879  0.33280586  1
  H+  H35  1  0.37107849  0.74169589  0.00014286  1
  H+  H36  1  0.51618607  0.62906824  0.00655318  1
  H+  H37  1  1.00262809  0.66698843  0.35291215  1
  H+  H38  1  0.29506087  0.58069510  0.11863774  1
  H+  H39  1  0.67037743  0.59346104  0.93560578  1
  H+  H40  1  0.13830810  0.51993312  0.66837189  1
  H+  H41  1  0.13053772  0.89077663  0.34610245  1
  H+  H42  1  0.27639313  0.13100256  0.67157884  1
  H+  H43  1  0.74719554  0.35002971  0.34661017  1
  H+  H44  1  0.11319929  0.88176374  0.82813922  1
  H+  H45  1  0.91805367  0.07756471  0.23097218  1
  H+  H46  1  0.64049628  0.76762510  0.33405842  1
  H+  H47  1  0.61349547  0.75514030  -0.00742314  1
  H+  H48  1  0.62384508  0.04969061  0.83273895  1
  H+  H49  1  0.57815793  0.17298739  1.06485565  1
  H+  H50  1  0.86957225  0.34109754  0.33189101  1
  H+  H51  1  0.35335661  0.98615381  0.40738294  1
  H+  H52  1  0.70597781  0.37912824  0.83631135  1
  H+  H53  1  0.67847417  0.10477502  0.26115237  1
  H+  H54  1  0.88833666  0.51800592  -0.00554447  1
  H+  H55  1  -0.00053901  0.87296340  0.83417668  1
  H+  H56  1  0.38222840  0.77431904  0.66200413  1
  H+  H57  1  0.87188876  0.15436941  0.99667946  1
  H+  H58  1  0.11756303  0.24113766  0.34633042  1
  H+  H59  1  0.10012462  0.68613533  0.73394215  1
  H+  H60  1  0.60987484  0.87668263  0.00005107  1
  H+  H61  1  0.19751884  0.07385254  0.50158330  1
  H+  H62  1  0.47399566  0.86980379  0.98940083  1
  H+  H63  1  0.14930999  0.27392743  0.83933134  1
  H+  H64  1  0.38618272  0.78152984  0.84150333  1
  H+  H65  1  0.39182368  0.79019168  0.32470942  1
  H+  H66  1  0.37046757  0.01265140  0.50207949  1
  H+  H67  1  0.14333404  0.36468926  0.99131638  1
  H+  H68  1  0.36918601  0.82718374  0.51332858  1
  H+  H69  1  0.11321625  0.89373692  0.00812023  1
  H+  H70  1  0.36816867  0.38900912  0.82441260  1
  H+  H71  1  0.51159628  0.14523347  0.83090863  1
  H+  H72  1  0.90906417  1.00325985  0.65126236  1
  H+  H73  1  0.51690250  0.39122526  0.67596444  1
  H+  H74  1  0.03912715  0.13232557  0.66774780  1
  H+  H75  1  0.71799219  0.85724098  0.17928460  1
  H+  H76  1  0.27898866  0.63682567  0.66980278  1
  H+  H77  1  0.84528195  0.22674020  0.00350424  1
  H+  H78  1  0.86265609  0.71808202  0.66637884  1
  H+  H79  1  0.57598855  0.38350059  0.43753205  1
  H+  H80  1  0.38587317  0.53019551  0.99104092  1
  H+  H81  1  0.22189336  0.56216820  0.51680704  1
  H+  H82  1  0.88940220  0.54262072  0.33424902  1
  H+  H83  1  0.13496477  0.21509913  0.18983763  1
  H+  H84  1  0.52752733  0.14099981  0.16894797  1
  H+  H85  1  0.09822202  0.77016264  0.35435087  1
  H+  H86  1  0.86811455  0.48863290  0.48761605  1
  H+  H87  1  0.23092834  0.11846744  0.33482944  1
  H+  H88  1  0.39120181  0.62249216  0.98754533  1
  H+  H89  1  0.73617115  0.37310384  0.51114112  1
  H+  H90  1  0.94551332  0.84858912  0.09466145  1
  H+  H91  1  0.83443662  0.91630210  0.39721367  1
  H+  H92  1  0.13673460  0.53260055  0.18565440  1
  H+  H93  1  0.64007194  0.37621231  0.99668918  1
  H+  H94  1  0.24059833  0.37674140  0.33507169  1
  H+  H95  1  0.43198807  0.61252028  0.50742830  1
  H+  H96  1  0.21405615  0.87992499  0.33416210  1
  H+  H97  1  0.76823883  0.38703590  0.00539301  1
  H+  H98  1  0.28017109  0.39593632  1.00967094  1
  H+  H99  1  0.64241209  0.61556315  0.17211704  1
  H+  H100  1  -0.04505309  0.63544005  0.50832949  1
  H+  H101  1  0.03079478  0.51819938  0.53231338  1
  H+  H102  1  0.48144414  0.62220087  0.83653947  1
  H+  H103  1  0.49007208  0.62153559  0.17917974  1
  H+  H104  1  0.37109558  0.20809990  0.34559279  1
  H+  H105  1  0.51779325  0.88877128  0.66995380  1
  H+  H106  1  0.64510814  0.79987297  0.92888982  1
  H+  H107  1  0.87532807  0.22673221  0.67839689  1
  H+  H108  1  0.61334839  0.97346099  0.66727296  1
  H+  H109  1  0.11795062  0.64607527  0.17445924  1
  H+  H110  1  0.38717274  0.11681066  0.83917840  1
  H+  H111  1  0.47877602  0.36603461  0.17816798  1
  H+  H112  1  0.87540663  0.35821461  0.17613300  1
  H+  H113  1  0.01178670  0.56458849  0.58481285  1
  H+  H114  1  0.13924189  0.11433440  -0.01715957  1
  H+  H115  1  0.38258938  0.86603386  0.66170477  1
  H+  H116  1  0.14304157  0.11076563  0.65694351  1
  H+  H117  1  0.04908410  0.38263555  0.84134030  1
  H+  H118  1  0.02699821  0.03062428  0.10465022  1
  H+  H119  1  0.33801259  0.67013010  0.72919510  1
  H+  H120  1  0.98178319  0.36121600  0.50969005  1
  H+  H121  1  0.55142100  0.75498770  0.61430270  1
  H+  H122  1  0.89768738  0.37202652  0.50893624  1
  H+  H123  1  0.89593915  0.75925633  0.98042210  1
  H+  H124  1  0.63640677  0.27600892  0.17461283  1
  H+  H125  1  0.15166776  0.78684677  0.66024224  1
  H+  H126  1  0.98314700  0.11533889  0.32550155  1
  H+  H127  1  0.38725472  0.93588837  0.47802687  1
  H+  H128  1  0.60881770  0.17169587  0.84614369  1
  H+  H129  1  0.52743509  0.39803016  0.00509575  1
  H+  H130  1  0.40665010  0.73371083  0.49769178  1
  H+  H131  1  0.87236305  1.01302058  0.17469033  1
  H+  H132  1  0.61208381  0.88484599  0.15942090  1
  H+  H133  1  0.28195327  0.89953304  0.67124858  1
  H+  H134  1  0.77867496  0.63132158  -0.00064104  1
  H+  H135  1  0.85902524  0.47084311  0.16213251  1
  H+  H136  1  0.63739685  0.87938972  0.49831194  1
  H+  H137  1  0.34012869  0.97152724  0.28456716  1
  H+  H138  1  0.13649452  0.77505972  0.84173559  1
  H+  H139  1  0.38961887  0.87847801  0.31908196  1
  H+  H140  1  0.86671598  0.62645835  -0.00195531  1
  H+  H141  1  -0.00905479  0.13866781  -0.01653229  1
  H+  H142  1  1.02488743  0.63690015  0.16770226  1
  H+  H143  1  0.73372825  0.87629945  0.50305576  1
  H+  H144  1  0.33251316  0.18848453  0.06527599  1
  H+  H145  1  0.14202551  0.40288979  0.17655785  1
  H+  H146  1  0.23662273  0.62413100  -0.00603639  1
  H+  H147  1  0.88723425  0.27431637  0.17475526  1
  H+  H148  1  0.28641397  0.41071563  0.16484891  1
  H+  H149  1  0.15006775  0.53198761  -0.00496299  1
  H+  H150  1  0.46827306  0.05756125  0.24595496  1
  H+  H151  1  0.86433217  0.22842429  0.49626701  1
  H+  H152  1  0.03132641  0.40017759  -0.00446787  1
  H+  H153  1  0.09365932  0.94831894  0.42209977  1
  H+  H154  1  0.13666625  0.38647642  0.83103508  1
  H+  H155  1  0.36611544  0.11486945  0.51873304  1
  H+  H156  1  0.87292350  -0.02571045  0.82926969  1
  H+  H157  1  0.86590940  0.72192893  0.14369143  1
  H+  H158  1  0.52758976  0.88986834  0.49430905  1
  H+  H159  1  -0.02709110  0.36616677  0.66637393  1
  H+  H160  1  0.12155879  0.23228696  1.00386018  1
  H+  H161  1  0.37706056  0.47463391  0.34431514  1
  H+  H162  1  0.54398847  0.15294739  0.67663758  1
  H+  H163  1  0.60393963  0.48040739  0.67268619  1
  H+  H164  1  0.73364835  0.12693917  0.32228311  1
  H+  H165  1  0.17071799  0.08357100  0.89526169  1
  H+  H166  1  0.61411883  0.47671149  0.16163353  1
  H+  H167  1  0.47611062  0.37691148  0.83689403  1
  H+  H168  1  0.61557850  0.14201729  0.15964104  1
  H+  H169  1  0.89807712  0.79618610  0.50234965  1
  H+  H170  1  0.48154300  0.60828545  0.66844222  1
  H+  H171  1  0.27716632  0.38408654  0.49587534  1
  H+  H172  1  0.92074509  0.83350536  0.59923207  1
  H+  H173  1  0.13015275  0.45868063  0.49170602  1
  H+  H174  1  0.33215865  0.20665555  0.50077057  1
  H+  H175  1  0.31229313  0.14754399  0.44174262  1
  H+  H176  1  0.36743815  0.23303684  0.82591180  1
  H+  H177  1  0.13984556  1.02615931  -0.01091840  1
  H+  H178  1  0.86029370  0.89226931  0.49549033  1
  H+  H179  1  0.27469136  0.13687341  0.16168990  1
  H+  H180  1  0.64226863  1.02721704  0.16595839  1
  H+  H181  1  0.37580398  0.34124734  0.50411962  1
  H+  H182  1  0.98832568  0.87669664  0.34502793  1
  H+  H183  1  0.36790181  0.47841277  0.82229646  1
  H+  H184  1  0.11635852  0.88572332  0.67558258  1
  H+  H185  1  0.02445479  0.63718290  0.82612637  1
  H+  H186  1  0.16309975  0.22980334  0.16169798  1
  H+  H187  1  0.98642840  0.02827705  0.60663221  1
  H+  H188  1  0.04119593  0.48334496  0.12234386  1
  H+  H189  1  0.24040041  0.36385777  0.83869709  1
  H+  H190  1  0.33113820  0.41541243  0.72811254  1
  H+  H191  1  0.85551909  0.87876944  0.14879194  1
  H+  H192  1  -0.02240342  0.85494523  0.65991562  1
  H+  H193  1  1.01827965  0.12728890  0.48975643  1
  H+  H194  1  0.87179543  0.83076190  0.98370777  1
  H+  H195  1  0.61481054  0.72759275  0.16239066  1
  H+  H196  1  0.39178248  0.28984540  -0.00686857  1
  H+  H197  1  0.36236374  0.47548935  0.66925736  1
  H+  H198  1  0.49336049  0.61300919  0.33630840  1
  H+  H199  1  0.13498168  0.65470102  0.67998441  1
  H+  H200  1  0.21285907  0.59850898  0.51030035  1
  H+  H201  1  0.66622315  0.33674597  0.23379727  1
  H+  H202  1  0.72365378  0.61361353  0.65279801  1
  H+  H203  1  0.86949892  0.13196015  0.34172268  1
  H+  H204  1  0.60930232  0.23267509  1.00701225  1
  H+  H205  1  0.60768813  0.63156678  0.00746840  1
  H+  H206  1  0.89593109  0.39700872  0.98092982  1
  H+  H207  1  0.83240424  0.15683904  0.76312709  1
  H+  H208  1  0.61611908  0.29317790  0.84078331  1
  H+  H209  1  0.11897773  0.13784021  0.82422575  1
  H+  H210  1  0.35858227  0.88893724  0.00884709  1
  H+  H211  1  1.03057696  0.13949009  0.82203740  1
  H+  H212  1  0.87370904  0.22234822  0.34161774  1
  H+  H213  1  0.38204875  0.86797530  0.84165582  1
  H+  H214  1  0.86714535  0.73687034  0.33520104  1
  H+  H215  1  0.21245444  0.48288101  0.31300363  1
  H+  H216  1  0.38353559  0.27081913  0.66032184  1
  H+  H217  1  0.72567709  0.08414264  0.83220422  1
  H+  H218  1  0.08846343  -0.03591089  0.20574840  1
  H+  H219  1  0.38805573  0.77908226  0.17144712  1
  H+  H220  1  0.39903400  1.01770588  0.19234530  1
  H+  H221  1  0.63862503  0.36742163  0.32852349  1
  H+  H222  1  0.39918670  0.38202722  0.99085094  1
  H+  H223  1  0.37970692  0.49152654  0.16641530  1
  H+  H224  1  0.37980651  0.35788412  0.65635373  1
  H+  H225  1  0.12956512  0.62913590  0.34312779  1
  H+  H226  1  0.11490901  0.36414862  0.49075812  1
  H+  H227  1  0.86999113  0.88988128  0.33916980  1
  H+  H228  1  0.77448229  0.64668969  0.33470853  1
  H+  H229  1  0.39957711  0.12280808  0.66588330  1
  H+  H230  1  0.16557905  0.83654243  0.90076856  1
  H+  H231  1  0.40941462  0.62147376  0.33219629  1
  H+  H232  1  0.38827750  0.35054797  0.33378362  1
  H+  H233  1  0.82553250  0.37987453  0.81864539  1
  H+  H234  1  0.22469613  0.86652920  -0.00442190  1
  H+  H235  1  0.39478504  0.61422538  0.65909930  1
  H+  H236  1  0.89478937  0.02383410  0.32636421  1
  H+  H237  1  0.08367164  0.87374821  0.20291442  1
  H+  H238  1  0.64841650  0.11084039  0.66528091  1
  H+  H239  1  0.73102445  0.10040109  0.98786744  1
  H+  H240  1  0.23539611  0.89395530  0.50549074  1
  H+  H241  1  0.48215505  0.11288619  0.98681428  1
  H+  H242  1  0.60814893  0.62740705  0.67842004  1
  H+  H243  1  0.71776984  0.64042474  0.49697092  1
  H+  H244  1  0.14642958  0.31827349  0.18032928  1
  H+  H245  1  0.61188172  0.87934322  0.34490087  1
  H+  H246  1  0.85756656  -0.02007401  0.49058302  1
  H+  H247  1  0.62224050  0.15036646  0.48916632  1
  H+  H248  1  0.09377491  0.16942183  0.72984454  1
  H+  H249  1  0.86654225  0.87853330  0.67157611  1
  H+  H250  1  0.60536769  0.71246970  0.68643027  1
  H+  H251  1  0.10964397  0.47373981  0.34634633  1
  H+  H252  1  0.12929704  0.09100502  0.17694050  1
  H+  H253  1  0.87854986  0.62588927  0.32850282  1
  H+  H254  1  0.00220061  0.39790489  0.16050718  1
  H+  H255  1  0.63226539  0.54904594  0.83899175  1
  H+  H256  1  0.17632938  0.66158614  0.34600471  1
  H+  H257  1  0.97977977  0.60704191  0.99372673  1
  H+  H258  1  0.60196744  0.84700694  0.64498377  1
  H+  H259  1  0.87163579  0.59477788  0.65187931  1
  H+  H260  1  0.13601292  0.77757215  0.99572799  1
  H+  H261  1  0.87013555  0.13797808  0.15983176  1
  H+  H262  1  0.15770857  0.06407953  0.59930932  1
  H+  H263  1  0.40279739  1.03592729  0.66401382  1
  H+  H264  1  0.62629838  0.24088103  0.49131481  1
  H+  H265  1  0.86698255  0.72698836  0.81983130  1
  H+  H266  1  0.53158304  0.89446024  0.34046610  1
  H+  H267  1  0.62717378  0.27078028  0.32626668  1
  H+  H268  1  0.11712546  0.99816096  0.35618124  1
  H+  H269  1  0.72671442  0.85844713  0.32825077  1
  H+  H270  1  0.14715371  0.52672586  0.84212751  1
  H+  H271  1  0.11455609  0.63890246  0.82916648  1
  H+  H272  1  0.84237362  -0.02659593  1.03184316  1
  H+  H273  1  0.02577272  0.89139780  -0.00123544  1
  H+  H274  1  0.28137150  0.15746530  1.00240260  1
  H+  H275  1  0.64052271  0.53056588  0.99466120  1
  H+  H276  1  0.51653383  0.38159592  0.34109426  1
  H+  H277  1  0.35538188  0.88718026  0.16144327  1
  H+  H278  1  0.41399073  0.09344333  0.57404765  1
  H+  H279  1  0.83650437  0.36185908  0.66729829  1
  H+  H280  1  0.35270998  0.11063648  0.35543560  1
  H+  H281  1  0.39248505  0.37018176  0.18047995  1
  H+  H282  1  0.30046671  0.63854574  0.34662967  1
  H+  H283  1  0.85352206  0.49917302  0.64543478  1
  H+  H284  1  0.92474799  0.35111021  0.81239479  1
  H+  H285  1  0.65433933  0.69266706  0.85610304  1
  H+  H286  1  0.62399737  0.63466022  0.34308444  1
  H+  H287  1  0.11011962  0.38259424  0.67355201  1
  H+  H288  1  0.79053086  0.87464457  0.81977709  1
  H+  H289  1  0.63815328  1.02840305  0.50563714  1
  H+  H290  1  0.27046950  0.89466837  0.16602040  1
  H+  H291  1  0.43948939  0.57581468  0.57158439  1
  H+  H292  1  0.82922059  0.68541547  0.43155714  1
  H+  H293  1  0.73963773  0.82402724  0.00082135  1
  H+  H294  1  0.37077932  0.68577658  0.39837820  1
  H+  H295  1  0.96355955  0.85947278  0.27696218  1
  H+  H296  1  0.79692551  0.13256709  0.67267108  1
  H+  H297  1  0.76056186  0.28914907  0.39050582  1
  H+  H298  1  0.60255199  0.65860260  0.40786781  1
  H+  H299  1  0.14675826  0.13014825  0.33324667  1
  H+  H300  1  0.19255393  0.54960115  0.27653329  1
  H+  H301  1  0.98673103  0.88945740  0.50964533  1
  H+  H302  1  0.97283384  0.86264564  0.16449151  1
  H+  H303  1  0.82781800  0.40993662  0.06618631  1
  H+  H304  1  0.41964740  0.08329859  0.89775555  1
  H+  H305  1  0.16727037  0.08556882  0.24245577  1
  H+  H306  1  0.82875785  0.65884692  0.72525460  1
  H+  H307  1  0.68326126  0.28143715  0.67426299  1
  H+  H308  1  0.15090235  0.90452353  0.51315520  1
  H+  H309  1  0.73150223  0.11606404  0.16579785  1
  H+  H310  1  0.32963398  0.63994935  0.49046603  1
  H+  H311  1  0.16298697  0.32245074  0.56471601  1
  H+  H312  1  0.08656787  0.41105080  0.73623652  1
  H+  H313  1  0.34208630  0.43140143  0.06829583  1
  H+  H314  1  0.14428139  0.57728140  0.61208587  1
  H+  H315  1  0.13872780  0.27429562  0.65846748  1
  H+  H316  1  0.59624954  0.89145797  0.75310359  1
  H+  H317  1  0.33365488  0.16671406  0.73245156  1
  H+  H318  1  0.59333994  0.17701252  0.73944258  1
  H+  H319  1  0.41883993  0.32584369  0.27298414  1
  H+  H320  1  0.73016986  0.61252096  0.16968992  1
  H+  H321  1  0.68384379  0.33840334  0.57063477  1
  H+  H322  1  0.58821034  0.18206578  0.39413165  1
  H+  H323  1  0.90316790  0.34609782  0.88332500  1
  H+  H324  1  0.07638311  0.41491703  0.06010675  1
  H+  H325  1  0.65362378  0.83148021  0.55974961  1
  H+  H326  1  0.83335759  0.41043791  0.43799479  1
  H+  H327  1  0.41904285  0.34194315  0.89753375  1
  H+  H328  1  0.58400286  0.42418441  0.06662524  1
  H+  H329  1  0.66398522  0.34807104  0.93470809  1
  H+  H330  1  0.57434452  0.44003877  0.76592630  1
  H+  H331  1  0.72915093  0.62647357  0.84011454  1
  H+  H332  1  0.83344315  0.65207524  0.09289677  1
  H+  H333  1  0.65320859  0.82839286  0.80262681  1
  H+  H334  1  0.32980442  0.92221345  0.06724882  1
  H+  H335  1  0.08558507  0.66706706  0.07010038  1
  H+  H336  1  0.67038444  0.08175643  0.60258979  1
  H+  H337  1  0.76786825  0.38316512  0.16273385  1
  H+  H338  1  0.08225946  0.91034363  0.76579125  1
  H+  H339  1  0.13010707  0.77713648  0.18268819  1
  H+  H340  1  0.92417559  0.09129459  0.89046343  1
  H+  H341  1  0.58324158  0.91610744  0.43077922  1
  H+  H342  1  0.80423279  0.89824236  0.10177285  1
  H+  H343  1  0.42236106  0.58945310  0.89511401  1
  H+  H344  1  0.91758057  0.33402585  0.60530982  1
  H+  H345  1  0.66053480  0.59227095  0.59577643  1
  H+  H346  1  0.17749649  0.35721164  0.27855474  1
  H+  H347  1  0.41675481  0.83093348  0.57542745  1
  H+  H348  1  0.08351360  0.66637113  0.50877612  1
  H+  H349  1  0.07715420  0.15261624  0.05332073  1
  H+  H350  1  0.34182073  0.41428003  0.40320135  1
  H+  H351  1  0.58939714  0.91422840  0.06241283  1
  H+  H352  1  0.11080337  0.97141477  0.67637740  1
  H+  H353  1  0.11833349  0.64023553  1.01068815  1
  H+  H354  1  0.43396911  0.59191970  0.24171940  1
  H+  H355  1  0.91423981  0.57767987  0.89393790  1
  H+  H356  1  0.39127636  0.02489642  0.98726082  1
  H+  H357  1  0.92797359  0.83412705  0.89734558  1
  H+  H358  1  0.65733654  0.82645592  0.23819181  1
  H+  H359  1  0.17915628  0.33593127  0.93446051  1
  H+  H360  1  0.85098679  0.92209229  0.72873374  1
  H+  H361  1  0.55613600  0.61661988  0.50630550  1
  H+  H362  1  0.63766660  -0.00268236  0.99276779  1
  H+  H363  1  0.92065976  0.07707949  0.55881375  1
  H+  H364  1  0.61253096  0.38711855  0.16072059  1
  H+  H365  1  0.33839620  0.92390426  0.73199321  1
  H+  H366  1  0.17431883  0.58911413  0.89977060  1
  H+  H367  1  0.91522185  0.33469096  0.26901975  1
  H+  H368  1  0.67184361  0.05543424  0.92454924  1
  H+  H369  1  0.17710582  0.85214024  0.60216168  1
  H+  H370  1  0.67035989  0.58365475  0.26475639  1
  H+  H371  1  0.89846280  0.05551245  0.98522866  1
  H+  H372  1  0.80128877  0.41064778  0.75836885  1
  H+  H373  1  0.91450025  0.58532058  0.23284429  1
  H+  H374  1  0.58246283  0.66575785  0.10280933  1
  H+  H375  1  0.15877316  0.83505804  0.24259431  1
  H+  H376  1  0.05952133  0.70538459  0.42174761  1
  H+  H377  1  0.84276105  0.17044350  0.10036752  1
  H+  H378  1  0.88793684  0.57805848  0.55977412  1
  H+  H379  1  0.06496120  0.41252805  0.40891353  1
  H+  H380  1  0.83720430  0.16824900  0.43646170  1
  H+  H381  1  0.34801284  0.68226157  0.05988482  1
  H+  H382  1  0.41111406  0.83944225  0.93070884  1
  H+  H383  1  0.40263504  0.31204794  0.56419994  1
  O2-  O384  1  0.04664064  0.08865716  0.11939790  1
  O2-  O385  1  0.08024640  0.15380670  0.47767407  1
  O2-  O386  1  0.09186926  0.17154238  0.80901842  1
  O2-  O387  1  0.05773333  0.44348560  0.13961807  1
  O2-  O388  1  0.08867421  0.40095955  0.47707039  1
  O2-  O389  1  0.10226830  0.41539304  0.81858134  1
  O2-  O390  1  0.08628358  0.67070159  0.15387377  1
  O2-  O391  1  0.06896939  0.70699997  0.48911768  1
  O2-  O392  1  0.08644257  0.67158019  0.81515477  1
  O2-  O393  1  0.04720446  0.90036848  0.21034027  1
  O2-  O394  1  0.09589076  0.95198099  0.49457313  1
  O2-  O395  1  0.08130045  0.91151856  0.81221145  1
  O2-  O396  1  0.33006818  0.17306168  0.14135576  1
  O2-  O397  1  0.29956326  0.14399057  0.48598244  1
  O2-  O398  1  0.33870773  0.17243874  0.81056711  1
  O2-  O399  1  0.34482879  0.43240595  0.14871367  1
  O2-  O400  1  0.33633188  0.41113130  0.47922246  1
  O2-  O401  1  0.33603840  0.41787317  0.80805789  1
  O2-  O402  1  0.32490273  0.63364105  0.14239220  1
  O2-  O403  1  0.38861109  0.67793293  0.47625606  1
  O2-  O404  1  0.33749427  0.67346370  0.80702201  1
  O2-  O405  1  0.33024616  0.92357544  0.15024837  1
  O2-  O406  1  0.34301875  0.95195661  0.47597899  1
  O2-  O407  1  0.33242783  0.92188979  0.80926094  1
  O2-  O408  1  0.58439070  0.17326763  0.14907243  1
  O2-  O409  1  0.60340236  0.18638323  0.46793143  1
  O2-  O410  1  0.57526594  0.18528005  0.81825441  1
  O2-  O411  1  0.58132487  0.41671701  0.14585007  1
  O2-  O412  1  0.57702749  0.43346650  0.41859632  1
  O2-  O413  1  0.57548554  0.44586382  0.81253509  1
  O2-  O414  1  0.58697817  0.66632236  0.14817703  1
  O2-  O415  1  0.61590086  0.65243384  0.48977651  1
  O2-  O416  1  0.64048293  0.74026793  0.86103870  1
  O2-  O417  1  0.58666441  0.91673600  0.13866683  1
  O2-  O418  1  0.58683072  0.91944149  0.47806942  1
  O2-  O419  1  0.60596943  0.87760548  0.79526656  1
  O2-  O420  1  0.84350455  0.17228389  0.14531687  1
  O2-  O421  1  0.83472186  0.16776776  0.48209859  1
  O2-  O422  1  0.82210083  0.14873203  0.80959746  1
  O2-  O423  1  0.82915435  0.41048652  0.14694923  1
  O2-  O424  1  0.85108758  0.42713404  0.48091727  1
  O2-  O425  1  0.80708473  0.41987177  0.80339908  1
  O2-  O426  1  0.83473634  0.65832446  0.13820468  1
  O2-  O427  1  0.82715535  0.68903762  0.47666383  1
  O2-  O428  1  0.83167927  0.66619819  0.80816758  1
  O2-  O429  1  0.81887881  0.90608863  0.14526950  1
  O2-  O430  1  0.82547056  0.91731955  0.47839429  1
  O2-  O431  1  0.85436289  0.91454432  0.81441762  1
  O2-  O432  1  0.16136957  0.06792873  0.19861092  1
  O2-  O433  1  0.13633526  0.04346670  0.51773917  1
  O2-  O434  1  0.17069659  0.08599995  0.84919088  1
  O2-  O435  1  0.17490963  0.37818241  0.19413779  1
  O2-  O436  1  0.16387629  0.32009254  0.51891433  1
  O2-  O437  1  0.18013351  0.33385384  0.85626359  1
  O2-  O438  1  0.17561639  0.58667187  0.20747731  1
  O2-  O439  1  0.05736832  0.57009659  0.55722831  1
  O2-  O440  1  0.17226648  0.58775885  0.85440091  1
  O2-  O441  1  0.15737586  0.83755264  0.19774556  1
  O2-  O442  1  0.17647937  0.86629838  0.52299973  1
  O2-  O443  1  0.16461473  0.83667552  0.85505421  1
  O2-  O444  1  0.42995355  0.06768030  0.22031881  1
  O2-  O445  1  0.40384847  0.09052150  0.52921169  1
  O2-  O446  1  0.41852421  0.08598953  0.85048973  1
  O2-  O447  1  0.41988268  0.33808504  0.19643824  1
  O2-  O448  1  0.39425809  0.30133485  0.51954680  1
  O2-  O449  1  0.41544363  0.33867007  0.85184814  1
  O2-  O450  1  0.42980640  0.59265596  0.19604862  1
  O2-  O451  1  0.44782849  0.57249120  0.52644647  1
  O2-  O452  1  0.42145994  0.58909954  0.84939368  1
  O2-  O453  1  0.41848311  0.83951337  0.18332661  1
  O2-  O454  1  0.42009587  0.82706536  0.52861307  1
  O2-  O455  1  0.41105840  0.83894247  0.86069391  1
  O2-  O456  1  0.67073790  0.08811506  0.17937411  1
  O2-  O457  1  0.66753329  0.08649390  0.52421905  1
  O2-  O458  1  0.66848948  0.04281379  0.85267690  1
  O2-  O459  1  0.66829105  0.33776911  0.18809246  1
  O2-  O460  1  0.67681524  0.34221259  0.52655292  1
  O2-  O461  1  0.64877985  0.35315178  0.85656345  1
  O2-  O462  1  0.67118371  0.58388415  0.18741259  1
  O2-  O463  1  0.65713382  0.60445010  0.51203064  1
  O2-  O464  1  0.67138896  0.60656395  0.85841753  1
  O2-  O465  1  0.65668328  0.82808529  0.19237451  1
  O2-  O466  1  0.66923572  0.84786236  0.51470934  1
  O2-  O467  1  0.68863110  0.79772114  0.81018435  1
  O2-  O468  1  0.91199361  0.07438040  0.18533488  1
  O2-  O469  1  0.91413570  0.08099983  0.51391311  1
  O2-  O470  1  0.92054319  0.08044549  0.84584363  1
  O2-  O471  1  0.91252355  0.33428838  0.19127667  1
  O2-  O472  1  0.92269951  0.33729423  0.52574853  1
  O2-  O473  1  0.87930166  0.32092742  0.84239865  1
  O2-  O474  1  0.91753422  0.58104568  0.18803556  1
  O2-  O475  1  0.89424840  0.59066293  0.51424460  1
  O2-  O476  1  0.91470400  0.58308426  0.84879677  1
  O2-  O477  1  0.92081044  0.83533538  0.13556562  1
  O2-  O478  1  0.92406276  0.85428066  0.52144848  1
  O2-  O479  1  0.93258636  0.84191948  0.85057740  1
  O2-  O480  1  0.17040410  0.09306107  0.31955289  1
  O2-  O481  1  0.16590953  0.07260000  0.64406853  1
  O2-  O482  1  0.17042295  0.08460562  0.96974310  1
  O2-  O483  1  0.18016460  0.36099421  0.32326636  1
  O2-  O484  1  0.16350809  0.33414454  0.64197945  1
  O2-  O485  1  0.17609824  0.33571417  0.98010163  1
  O2-  O486  1  0.19947177  0.53003170  0.31782737  1
  O2-  O487  1  0.17010514  0.57994880  0.65209662  1
  O2-  O488  1  0.17502106  0.59198026  0.98042546  1
  O2-  O489  1  0.15090208  0.85145328  0.32743088  1
  O2-  O490  1  0.17786619  0.84920852  0.64740936  1
  O2-  O491  1  0.16422263  0.83687012  0.97928800  1
  O2-  O492  1  0.36645741  0.01413367  0.36511945  1
  O2-  O493  1  0.43428183  0.09712646  0.65054203  1
  O2-  O494  1  0.42544299  0.08002201  0.96572418  1
  O2-  O495  1  0.42000484  0.32185721  0.31861397  1
  O2-  O496  1  0.41252204  0.32979001  0.64255459  1
  O2-  O497  1  0.42744346  0.35068566  0.97509949  1
  O2-  O498  1  0.43385995  0.58546230  0.31838825  1
  O2-  O499  1  0.42381267  0.58192394  0.64626397  1
  O2-  O500  1  0.41920408  0.58970642  0.97320918  1
  O2-  O501  1  0.42016535  0.84829557  0.30579854  1
  O2-  O502  1  0.41225462  0.83473457  0.64549798  1
  O2-  O503  1  0.41278140  0.83876060  0.97781508  1
  O2-  O504  1  0.68004104  0.11942740  0.30456768  1
  O2-  O505  1  0.67359126  0.07726653  0.64796625  1
  O2-  O506  1  0.67181380  0.06034278  0.97093821  1
  O2-  O507  1  0.66541211  0.33540084  0.31132383  1
  O2-  O508  1  0.71666334  0.33723398  0.65137763  1
  O2-  O509  1  0.67036290  0.34661117  0.97980412  1
  O2-  O510  1  0.67298611  0.58580152  0.31038085  1
  O2-  O511  1  0.66214819  0.58713473  0.64048943  1
  O2-  O512  1  0.67250837  0.59266783  0.98132847  1
  O2-  O513  1  0.66518054  0.82613445  0.31557663  1
  O2-  O514  1  0.60969561  0.80125725  0.62281037  1
  O2-  O515  1  0.64593797  0.81371535  0.97274612  1
  O2-  O516  1  0.92324865  0.08345681  0.30921475  1
  O2-  O517  1  0.95526038  0.05363001  0.62572922  1
  O2-  O518  1  0.92901102  0.11386104  0.96822383  1
  O2-  O519  1  0.91750392  0.33326228  0.31469137  1
  O2-  O520  1  0.91281759  0.33369987  0.65058169  1
  O2-  O521  1  0.94254901  0.39888898  0.95327085  1
  O2-  O522  1  0.91608764  0.59981101  0.31613768  1
  O2-  O523  1  0.89122245  0.55829583  0.63057291  1
  O2-  O524  1  0.92134050  0.57577666  0.97468615  1
  O2-  O525  1  0.93685133  0.84578520  0.31777597  1
  O2-  O526  1  0.91736011  0.82451546  0.64428536  1
  O2-  O527  1  0.91740880  0.82014016  0.96654243  1
  O2-  O528  1  0.08350401  0.16858497  0.00940752  1
  O2-  O529  1  0.08860569  0.17883979  0.35550782  1
  O2-  O530  1  0.09795810  0.17106860  0.68438494  1
  O2-  O531  1  0.08702677  0.41768461  0.01581462  1
  O2-  O532  1  0.05307675  0.43516443  0.36971411  1
  O2-  O533  1  0.08091608  0.41289121  0.69144857  1
  O2-  O534  1  0.08269862  0.66516750  0.02493236  1
  O2-  O535  1  0.05750364  0.70908615  0.37463523  1
  O2-  O536  1  0.10884378  0.69032897  0.68924327  1
  O2-  O537  1  0.08150206  0.92391985  0.01983300  1
  O2-  O538  1  0.08886248  0.93963225  0.37558467  1
  O2-  O539  1  0.08127970  0.91100750  0.69215835  1
  O2-  O540  1  0.33681751  0.19944863  0.02042252  1
  O2-  O541  1  0.33054460  0.15038069  0.36229882  1
  O2-  O542  1  0.33617565  0.16542307  0.68692837  1
  O2-  O543  1  0.34103913  0.43268416  0.02290667  1
  O2-  O544  1  0.34220498  0.41357655  0.35737265  1
  O2-  O545  1  0.32745648  0.41421397  0.68273960  1
  O2-  O546  1  0.34276281  0.67959816  0.01527712  1
  O2-  O547  1  0.36054927  0.68392287  0.35362991  1
  O2-  O548  1  0.34004200  0.67048912  0.68344276  1
  O2-  O549  1  0.32669627  0.91828024  0.02212760  1
  O2-  O550  1  0.32754668  0.93951965  0.32356776  1
  O2-  O551  1  0.34268325  0.92571424  0.68633795  1
  O2-  O552  1  0.58099201  0.17191804  0.01995243  1
  O2-  O553  1  0.58373501  0.18274061  0.34841726  1
  O2-  O554  1  0.60262751  0.17710286  0.69483158  1
  O2-  O555  1  0.58814107  0.42896427  0.02123645  1
  O2-  O556  1  0.58042365  0.41823468  0.35308707  1
  O2-  O557  1  0.57409768  0.42565224  0.69550156  1
  O2-  O558  1  0.57589822  0.65982556  0.02416254  1
  O2-  O559  1  0.59502235  0.66343696  0.36349563  1
  O2-  O560  1  0.57481687  0.65183449  0.69827516  1
  O2-  O561  1  0.58941703  0.91594652  0.01634246  1
  O2-  O562  1  0.58578884  0.91213978  0.36226557  1
  O2-  O563  1  0.57977070  0.91093847  0.67941423  1
  O2-  O564  1  0.82848512  0.16807257  0.01531391  1
  O2-  O565  1  0.84178395  0.16377988  0.35884903  1
  O2-  O566  1  0.85223250  0.16720457  0.69391454  1
  O2-  O567  1  0.82980240  0.41377113  0.02079932  1
  O2-  O568  1  0.79371643  0.34578327  0.37147063  1
  O2-  O569  1  0.80041639  0.38742048  0.68137335  1
  O2-  O570  1  0.84015432  0.66039679  0.01336840  1
  O2-  O571  1  0.83505917  0.67665262  0.35097448  1
  O2-  O572  1  0.82933920  0.65683083  0.68009974  1
  O2-  O573  1  0.78440329  0.81789931  0.02397654  1
  O2-  O574  1  0.83656465  0.91786668  0.35183586  1
  O2-  O575  1  0.84607072  0.91870114  0.68408220  1
