# generated using pymatgen
data_H2O
_symmetry_space_group_name_H-M   'P 1'
_cell_length_a   17.99074243
_cell_length_b   17.99627606
_cell_length_c   22.01357091
_cell_angle_alpha   89.98827556
_cell_angle_beta   90.00252078
_cell_angle_gamma   120.00152345
_symmetry_Int_Tables_number   1
_chemical_formula_structural   H2O
_chemical_formula_sum   'H384 O192'
_cell_volume   6172.28802699
_cell_formula_units_Z   192
loop_
 _symmetry_equiv_pos_site_id
 _symmetry_equiv_pos_as_xyz
  1  'x, y, z'
loop_
 _atom_type_symbol
 _atom_type_oxidation_number
  H+  1.0
  O2-  -2.0
loop_
 _atom_site_type_symbol
 _atom_site_label
 _atom_site_symmetry_multiplicity
 _atom_site_fract_x
 _atom_site_fract_y
 _atom_site_fract_z
 _atom_site_occupancy
  H+  H0  1  0.04907706  0.42943504  0.33246445  1
  H+  H1  1  0.22084208  0.37127065  0.19689549  1
  H+  H2  1  0.85106435  0.71496278  0.33657137  1
  H+  H3  1  0.88997874  0.27931514  0.83513057  1
  H+  H4  1  0.87860741  0.41579697  0.48946305  1
  H+  H5  1  0.59343520  0.72071260  0.66291285  1
  H+  H6  1  0.11446347  0.64485963  0.49863065  1
  H+  H7  1  0.13867784  0.64588579  -0.01625150  1
  H+  H8  1  0.15000396  0.36723944  0.50055520  1
  H+  H9  1  0.50359199  0.86291455  0.66779142  1
  H+  H10  1  0.65444401  0.66204709  0.96771184  1
  H+  H11  1  0.87231555  0.29404832  0.47985902  1
  H+  H12  1  0.66677759  0.50853694  -0.04858693  1
  H+  H13  1  0.62305106  0.88964365  0.83191068  1
  H+  H14  1  0.04319895  0.27092744  0.09404462  1
  H+  H15  1  0.25844425  0.62900599  0.67697684  1
  H+  H16  1  0.14522500  0.37277738  0.65910930  1
  H+  H17  1  0.76462287  0.62094176  0.33731091  1
  H+  H18  1  0.81252860  0.09292889  0.50698598  1
  H+  H19  1  0.64546839  0.37125860  0.50232721  1
  H+  H20  1  0.39254834  0.27167794  0.83232476  1
  H+  H21  1  0.23503644  0.83926474  0.68864313  1
  H+  H22  1  0.12211533  -0.00383975  0.69152303  1
  H+  H23  1  0.14215458  0.10988205  0.18760661  1
  H+  H24  1  0.36803252  0.23140846  0.66944569  1
  H+  H25  1  0.64094901  0.58298769  0.54878823  1
  H+  H26  1  0.83706490  0.95463380  0.35927134  1
  H+  H27  1  0.10629263  0.23353427  0.68337272  1
  H+  H28  1  0.70408719  0.61224563  0.49259869  1
  H+  H29  1  0.65614483  0.27998966  0.65899233  1
  H+  H30  1  0.26863682  0.88218923  0.84831064  1
  H+  H31  1  0.11106439  0.38566670  0.82576879  1
  H+  H32  1  0.13572036  0.86718546  0.16520897  1
  H+  H33  1  0.11544030  0.40155778  0.18083275  1
  H+  H34  1  0.86298740  0.97403817  0.82853951  1
  H+  H35  1  0.38754166  0.35808694  0.83194520  1
  H+  H36  1  0.62283341  0.85255882  0.66058143  1
  H+  H37  1  0.87440984  0.61460350  0.50574244  1
  H+  H38  1  0.18139670  0.50070298  0.69481190  1
  H+  H39  1  0.51286602  0.36039237  0.01263980  1
  H+  H40  1  0.60619419  0.82209041  0.34610161  1
  H+  H41  1  0.88024414  0.35037274  -0.00565239  1
  H+  H42  1  0.71211134  0.84748913  0.66460552  1
  H+  H43  1  0.18413636  0.82733380  1.04946984  1
  H+  H44  1  0.40752334  0.32710920  0.27632782  1
  H+  H45  1  0.39558976  0.12423256  0.65648420  1
  H+  H46  1  0.88699580  0.77281551  0.99791612  1
  H+  H47  1  0.91156388  0.30516336  0.32863111  1
  H+  H48  1  0.37435897  0.85356067  0.50894138  1
  H+  H49  1  0.62676531  0.23296340  0.49298633  1
  H+  H50  1  0.81082938  0.19593259  0.48980373  1
  H+  H51  1  0.09883793  0.20188996  0.34881934  1
  H+  H52  1  0.88911630  0.36539869  0.17806460  1
  H+  H53  1  0.22461978  0.12291800  0.67205432  1
  H+  H54  1  0.16294690  0.33227524  0.59907958  1
  H+  H55  1  0.02387385  0.39016861  0.82465653  1
  H+  H56  1  0.61100461  0.47997686  0.47956695  1
  H+  H57  1  0.37176184  0.62570835  0.82304463  1
  H+  H58  1  0.36312322  0.83564883  0.66878369  1
  H+  H59  1  0.74601658  0.67265104  0.96094138  1
  H+  H60  1  0.66608577  0.18356103  0.31835331  1
  H+  H61  1  0.13269205  0.88712398  0.49840544  1
  H+  H62  1  0.86596048  0.56972789  0.14922657  1
  H+  H63  1  0.19527529  0.81599903  0.31757473  1
  H+  H64  1  0.13835661  0.27871143  0.84523939  1
  H+  H65  1  0.35256424  0.43102147  0.44226881  1
  H+  H66  1  0.86224204  0.15602879  0.35372753  1
  H+  H67  1  0.48281145  0.37398526  0.65414259  1
  H+  H68  1  0.66652219  0.02340221  0.32023576  1
  H+  H69  1  0.90849743  0.59225752  0.56673838  1
  H+  H70  1  0.58903932  -0.04572698  0.67187149  1
  H+  H71  1  0.11340812  0.96335043  0.34057919  1
  H+  H72  1  0.12190976  0.13985391  0.00826703  1
  H+  H73  1  0.58610009  0.84901286  0.18718201  1
  H+  H74  1  0.23366965  0.36894725  -0.00463448  1
  H+  H75  1  0.35500779  0.62915788  0.34114430  1
  H+  H76  1  0.90702875  0.90883534  0.14682268  1
  H+  H77  1  0.14023558  0.54063554  0.17583102  1
  H+  H78  1  0.75984706  0.87246762  0.50370264  1
  H+  H79  1  1.00794590  0.40154456  0.49220522  1
  H+  H80  1  0.38343557  0.51346637  0.66044074  1
  H+  H81  1  0.46212553  0.85195173  0.51468441  1
  H+  H82  1  0.63739425  0.76774044  0.82973393  1
  H+  H83  1  0.62075276  0.25755269  0.99266056  1
  H+  H84  1  0.76188332  0.13122835  1.00065433  1
  H+  H85  1  0.11512337  0.44322780  0.42822753  1
  H+  H86  1  0.87739245  0.62661265  0.65335552  1
  H+  H87  1  0.12705791  0.29396915  0.18300021  1
  H+  H88  1  0.35661090  0.88683000  0.83424649  1
  H+  H89  1  0.76363726  0.63996725  0.17727345  1
  H+  H90  1  0.39727693  0.27646839  0.50046251  1
  H+  H91  1  0.15460309  0.51199628  0.85348286  1
  H+  H92  1  0.72701627  0.36536842  0.84113759  1
  H+  H93  1  0.62447470  0.15314044  0.67429210  1
  H+  H94  1  0.73688097  0.37617325  0.50375619  1
  H+  H95  1  0.99383146  0.38376127  0.18194255  1
  H+  H96  1  0.17426026  0.07502616  0.26951321  1
  H+  H97  1  0.14877803  0.27719371  0.98975970  1
  H+  H98  1  0.23979558  0.61867891  0.50746249  1
  H+  H99  1  0.61303409  0.69677771  0.34093866  1
  H+  H100  1  0.86563902  0.97811146  -0.00362901  1
  H+  H101  1  0.15748277  0.10707696  0.49988613  1
  H+  H102  1  0.38727694  0.50193234  0.82307964  1
  H+  H103  1  0.71852972  0.11925893  0.16804364  1
  H+  H104  1  0.39930033  0.36750048  0.50355772  1
  H+  H105  1  0.38397894  0.35344317  0.98079398  1
  H+  H106  1  0.98607413  0.87570654  0.17595518  1
  H+  H107  1  0.09468212  0.68763472  0.32970931  1
  H+  H108  1  0.38741275  0.61694363  0.17471461  1
  H+  H109  1  0.10053284  0.36016024  1.01962808  1
  H+  H110  1  0.86183080  0.83997790  0.51479019  1
  H+  H111  1  0.02570212  0.78724342  0.78768351  1
  H+  H112  1  0.65683550  0.56947575  0.23752181  1
  H+  H113  1  0.37849734  0.13973782  0.49465291  1
  H+  H114  1  0.85835294  0.65836081  0.19095604  1
  H+  H115  1  0.97339154  0.14850710  0.14262405  1
  H+  H116  1  0.48168589  0.84480269  0.35418532  1
  H+  H117  1  0.85202832  0.72845391  0.66575504  1
  H+  H118  1  0.36739309  0.85089526  0.18417952  1
  H+  H119  1  0.22213397  0.28550229  0.31503341  1
  H+  H120  1  0.86768282  0.24619344  0.68917254  1
  H+  H121  1  0.21148902  0.70811674  0.94032580  1
  H+  H122  1  0.53099354  0.38795444  0.47594403  1
  H+  H123  1  0.61358895  0.01655594  1.00179883  1
  H+  H124  1  0.24932653  0.89183500  1.00119536  1
  H+  H125  1  0.38521407  0.27975393  0.17744662  1
  H+  H126  1  0.36630798  0.72234851  0.49307076  1
  H+  H127  1  0.36609192  -0.02604107  0.49952306  1
  H+  H128  1  0.88643083  0.86225440  0.84429044  1
  H+  H129  1  0.87608639  0.60456919  0.31847247  1
  H+  H130  1  0.86417413  0.87270152  0.67814480  1
  H+  H131  1  0.09577942  0.62628210  0.15515079  1
  H+  H132  1  0.37081245  0.14014994  0.82440409  1
  H+  H133  1  0.94748015  0.84068087  0.61188754  1
  H+  H134  1  0.52854722  0.38628666  0.16968059  1
  H+  H135  1  0.28326495  0.22651000  0.12133210  1
  H+  H136  1  0.62093741  0.14082465  0.49264258  1
  H+  H137  1  0.63532222  0.27775928  0.17977462  1
  H+  H138  1  0.35905660  0.65062252  0.01265283  1
  H+  H139  1  0.96565179  0.59071021  0.16112114  1
  H+  H140  1  0.52143415  0.61288399  0.33485768  1
  H+  H141  1  0.91088967  0.00723297  0.13635395  1
  H+  H142  1  0.86268802  0.49441891  0.49293105  1
  H+  H143  1  0.48463172  0.11521729  0.50557514  1
  H+  H144  1  0.12721332  0.57412576  0.65822972  1
  H+  H145  1  0.88702211  0.36666793  0.83712882  1
  H+  H146  1  0.83926271  0.70982016  0.48956004  1
  H+  H147  1  1.00554211  0.34787544  1.02156531  1
  H+  H148  1  0.02260382  0.60790242  0.83912759  1
  H+  H149  1  0.82463864  0.09067576  0.47404078  1
  H+  H150  1  0.62665581  0.34675875  0.99851698  1
  H+  H151  1  0.38532149  0.77844392  -0.01571287  1
  H+  H152  1  0.36691051  0.73251786  0.17358502  1
  H+  H153  1  0.87537517  0.85209662  0.33453272  1
  H+  H154  1  0.11661082  0.14584753  0.84088271  1
  H+  H155  1  0.37093406  0.22135547  1.00890290  1
  H+  H156  1  0.42615506  0.13759857  1.01765834  1
  H+  H157  1  0.36648823  0.59285411  0.66720172  1
  H+  H158  1  0.36974735  0.38990115  0.34957898  1
  H+  H159  1  0.60089246  0.87512342  0.50498997  1
  H+  H160  1  0.61698379  0.63640111  0.80438872  1
  H+  H161  1  0.28408348  0.14586217  0.82777639  1
  H+  H162  1  0.13733268  0.49275587  0.49175667  1
  H+  H163  1  0.60255890  0.14733012  0.16889168  1
  H+  H164  1  1.01269417  0.60164082  0.33484687  1
  H+  H165  1  0.29992232  0.62037680  0.73963201  1
  H+  H166  1  0.86271741  0.72144966  0.83005809  1
  H+  H167  1  0.56663268  0.62417364  0.48354722  1
  H+  H168  1  0.78114462  0.63558141  0.81064826  1
  H+  H169  1  0.56862175  0.12028861  0.02676122  1
  H+  H170  1  0.73176643  0.38032961  0.33091213  1
  H+  H171  1  0.14829916  1.03114043  0.00181104  1
  H+  H172  1  0.25953730  0.86068246  0.15667693  1
  H+  H173  1  0.02622401  0.64601674  0.50344321  1
  H+  H174  1  0.10390857  0.43501124  0.73636332  1
  H+  H175  1  0.07677456  0.88487322  0.77349646  1
  H+  H176  1  0.86026831  0.47885225  0.33582953  1
  H+  H177  1  0.06539247  0.70995582  0.00418977  1
  H+  H178  1  0.51319635  0.87875631  -0.01024611  1
  H+  H179  1  0.47279818  0.60779755  0.17066038  1
  H+  H180  1  0.91531541  0.08150409  0.93172964  1
  H+  H181  1  0.28748731  0.39954340  0.35783123  1
  H+  H182  1  0.75140284  0.38006928  0.65321429  1
  H+  H183  1  0.61287801  0.76121653  0.51070085  1
  H+  H184  1  0.25703327  0.60293686  0.34530473  1
  H+  H185  1  0.13681796  0.12378886  0.68341485  1
  H+  H186  1  0.84110829  0.13000622  0.15046684  1
  H+  H187  1  1.03066442  0.13620273  0.99837691  1
  H+  H188  1  0.37398099  0.90631748  -0.02228937  1
  H+  H189  1  0.02854415  0.89171023  0.00752264  1
  H+  H190  1  0.38981760  0.99975091  -0.00698925  1
  H+  H191  1  0.35422953  0.76118343  0.33751357  1
  H+  H192  1  0.39706462  0.37160854  0.18730689  1
  H+  H193  1  0.76229225  0.18220210  0.31334209  1
  H+  H194  1  0.85826937  0.58278546  1.00191421  1
  H+  H195  1  0.89962540  -0.00239453  0.51509449  1
  H+  H196  1  0.89453076  0.00239768  0.66919462  1
  H+  H197  1  0.96106589  0.09934770  0.35690840  1
  H+  H198  1  0.76430037  0.88712019  0.18761247  1
  H+  H199  1  0.88338078  0.60900233  0.83978153  1
  H+  H200  1  0.63531882  0.51980317  0.17442998  1
  H+  H201  1  0.52585324  0.38732348  0.82472758  1
  H+  H202  1  0.77063405  0.36753515  0.16571408  1
  H+  H203  1  0.38450233  0.75495541  0.82016638  1
  H+  H204  1  0.41405986  0.83409667  0.77777191  1
  H+  H205  1  0.29678640  0.91774120  0.35449829  1
  H+  H206  1  0.22618919  0.62932543  0.17182797  1
  H+  H207  1  0.63545446  0.51616041  0.96902102  1
  H+  H208  1  1.02798546  0.42902840  0.65280994  1
  H+  H209  1  0.99150779  0.61264371  0.99908115  1
  H+  H210  1  0.13820727  0.77469004  0.51276609  1
  H+  H211  1  0.24511734  0.13794386  0.16833874  1
  H+  H212  1  0.36692204  0.08533497  0.18165396  1
  H+  H213  1  0.02165344  0.13967415  0.68817842  1
  H+  H214  1  0.88380972  0.10796316  0.99148470  1
  H+  H215  1  0.38753993  0.48918043  0.50071978  1
  H+  H216  1  0.12064732  0.89770552  0.01651579  1
  H+  H217  1  0.61084848  0.63375472  0.16276715  1
  H+  H218  1  0.04773157  0.12861773  0.50454527  1
  H+  H219  1  0.36341939  0.37871390  0.66211807  1
  H+  H220  1  0.27238997  0.37749706  0.66386158  1
  H+  H221  1  0.65214220  0.39680940  0.32173824  1
  H+  H222  1  0.86004546  0.47683680  0.82724491  1
  H+  H223  1  0.75807456  0.36151120  0.00943466  1
  H+  H224  1  0.83612678  0.42686888  0.39957191  1
  H+  H225  1  0.96719978  0.84519156  0.84349812  1
  H+  H226  1  0.07490003  0.20540809  0.08370408  1
  H+  H227  1  0.14319233  0.80876251  0.60420965  1
  H+  H228  1  0.53410716  0.88860410  0.82577195  1
  H+  H229  1  0.70528179  0.07895884  0.52211816  1
  H+  H230  1  0.24880795  0.10864305  0.49767420  1
  H+  H231  1  0.61623894  0.38984308  0.82521969  1
  H+  H232  1  0.61190390  1.00343335  0.51461268  1
  H+  H233  1  0.86063690  0.49459247  -0.00214407  1
  H+  H234  1  0.27932986  0.12312915  0.34248205  1
  H+  H235  1  0.61868708  0.25323129  0.34265773  1
  H+  H236  1  0.97698860  0.64708329  0.65179816  1
  H+  H237  1  0.55313716  0.17035256  0.11952522  1
  H+  H238  1  0.74398986  0.86799500  0.15751943  1
  H+  H239  1  0.48885047  0.13582933  0.65728010  1
  H+  H240  1  0.48004289  0.63201592  0.99447890  1
  H+  H241  1  0.37124495  0.12826173  0.34077917  1
  H+  H242  1  0.34213299  0.68320966  0.10952740  1
  H+  H243  1  0.38591455  1.03027490  0.84062688  1
  H+  H244  1  0.47567157  0.11696782  0.83335622  1
  H+  H245  1  0.62570300  1.01605715  0.30476859  1
  H+  H246  1  0.86922583  0.50127911  0.67037287  1
  H+  H247  1  0.83833240  0.07442677  0.67897344  1
  H+  H248  1  0.88756469  0.11402007  0.84048919  1
  H+  H249  1  0.52509087  0.62949399  0.81058633  1
  H+  H250  1  0.56043107  0.50036255  0.69766971  1
  H+  H251  1  0.89845800  0.38716943  0.33049586  1
  H+  H252  1  0.12917765  0.22414296  0.49705163  1
  H+  H253  1  0.70396335  0.08442587  0.66866281  1
  H+  H254  1  0.37425910  0.49319588  0.99636052  1
  H+  H255  1  0.12210265  -0.01130145  0.16587180  1
  H+  H256  1  0.90548974  0.23884335  0.68555317  1
  H+  H257  1  0.27879933  0.66672307  1.01034828  1
  H+  H258  1  0.61765975  0.23352826  0.82686576  1
  H+  H259  1  0.48717818  0.11488838  0.32606215  1
  H+  H260  1  0.72594653  0.86657886  0.98944354  1
  H+  H261  1  0.59539080  0.71481285  0.16468807  1
  H+  H262  1  0.23052470  0.86352797  0.51424391  1
  H+  H263  1  0.63721555  0.52716985  0.82753970  1
  H+  H264  1  0.49611270  0.89434245  0.18321646  1
  H+  H265  1  0.61868542  0.14524227  0.82139420  1
  H+  H266  1  0.61012857  0.73615158  0.00744022  1
  H+  H267  1  0.13594284  0.09576283  0.32908650  1
  H+  H268  1  0.14748027  0.03976091  0.85403248  1
  H+  H269  1  0.42082669  0.63339176  0.49719105  1
  H+  H270  1  0.60693001  0.46607584  0.37855102  1
  H+  H271  1  0.88951074  0.79074455  0.17503291  1
  H+  H272  1  0.75153067  0.86302190  0.34986593  1
  H+  H273  1  0.74828044  0.59702883  0.03836934  1
  H+  H274  1  0.77946808  0.14112184  0.82249150  1
  H+  H275  1  0.39290912  0.52547184  0.33125519  1
  H+  H276  1  0.48698887  0.62209028  0.66573210  1
  H+  H277  1  0.40368274  1.02057979  0.33831980  1
  H+  H278  1  0.35799713  0.48189640  0.17572459  1
  H+  H279  1  0.02167567  0.87795266  0.34668763  1
  H+  H280  1  0.12271565  0.84128966  0.32304195  1
  H+  H281  1  0.64300255  0.02371315  0.83698805  1
  H+  H282  1  0.85335380  0.21779840  -0.00159259  1
  H+  H283  1  0.27006654  0.38095817  0.81869048  1
  H+  H284  1  0.12812063  0.82807166  0.85939222  1
  H+  H285  1  0.42896470  0.33621175  0.59246817  1
  H+  H286  1  0.91268796  0.08954151  0.51695283  1
  H+  H287  1  0.37145300  0.86323478  0.34373340  1
  H+  H288  1  0.08029632  0.40950419  0.11525260  1
  H+  H289  1  0.89869160  0.56785425  0.25804791  1
  H+  H290  1  0.11423009  0.68700738  0.83859547  1
  H+  H291  1  0.56079757  0.89297497  0.44582990  1
  H+  H292  1  0.34010296  0.91850392  0.43786194  1
  H+  H293  1  0.17660116  0.34760225  0.89830799  1
  H+  H294  1  0.61134891  0.08026375  0.95417776  1
  H+  H295  1  0.16844523  0.32384505  0.28829032  1
  H+  H296  1  0.14649020  0.99534733  0.49234544  1
  H+  H297  1  0.83964430  0.77202622  0.56612855  1
  H+  H298  1  0.62716097  0.03705477  0.19049080  1
  H+  H299  1  0.81605097  0.89411896  0.44341373  1
  H+  H300  1  0.17790072  0.60261050  0.56434344  1
  H+  H301  1  -0.00405005  0.87278964  0.67540582  1
  H+  H302  1  0.77485419  0.88262811  0.82783324  1
  H+  H303  1  0.93028669  0.06231085  0.61076894  1
  H+  H304  1  0.68266113  0.34268994  0.59219230  1
  H+  H305  1  0.58552738  0.44165480  0.73391615  1
  H+  H306  1  0.41399510  0.82412375  0.91850871  1
  H+  H307  1  0.34004587  0.17368605  0.72979735  1
  H+  H308  1  0.12455843  0.90742296  0.68333745  1
  H+  H309  1  0.16538261  0.82385295  0.92398029  1
  H+  H310  1  0.70368622  0.57965457  0.68247848  1
  H+  H311  1  0.60113749  0.19282030  0.73168344  1
  H+  H312  1  0.65222809  0.81843784  0.57097879  1
  H+  H313  1  0.44069874  0.54706024  0.88148514  1
  H+  H314  1  0.56124353  0.88544966  0.05180563  1
  H+  H315  1  0.89063192  0.06724112  0.30592815  1
  H+  H316  1  0.86290968  0.88567112  -0.00304431  1
  H+  H317  1  0.97641835  0.11368331  0.84474817  1
  H+  H318  1  0.57162719  0.39258073  0.07334671  1
  H+  H319  1  0.14065514  0.66660469  0.64589394  1
  H+  H320  1  0.39967880  0.05775913  0.23917012  1
  H+  H321  1  0.67517203  0.61006748  0.87309595  1
  H+  H322  1  0.60245849  0.18568361  0.39730771  1
  H+  H323  1  0.51968740  0.76542863  0.21897098  1
  H+  H324  1  0.83299539  0.42142696  0.76617829  1
  H+  H325  1  0.89767527  0.56774681  0.90077753  1
  H+  H326  1  0.85916114  0.45524522  0.15949734  1
  H+  H327  1  0.08103062  0.14767947  0.40845579  1
  H+  H328  1  0.56969090  0.66086855  0.72345511  1
  H+  H329  1  0.33521842  0.65878836  0.43470686  1
  H+  H330  1  0.41782041  0.61918503  0.93820151  1
  H+  H331  1  0.54726890  0.94968723  0.12573317  1
  H+  H332  1  0.39499536  0.81432709  0.60749951  1
  H+  H333  1  0.39830586  0.82834205  0.25028337  1
  H+  H334  1  0.91436595  0.82716580  0.93584326  1
  H+  H335  1  0.09919207  0.91364745  0.43467918  1
  H+  H336  1  0.61990742  0.38967087  0.16684228  1
  H+  H337  1  0.32657663  0.40225011  0.75623332  1
  H+  H338  1  0.62211281  0.58769743  0.32995869  1
  H+  H339  1  0.66485324  0.33165399  0.90014463  1
  H+  H340  1  0.81645731  0.65215187  0.42884022  1
  H+  H341  1  0.93261976  0.35890185  0.24666646  1
  H+  H342  1  0.08413441  0.17469715  0.78171950  1
  H+  H343  1  0.93344058  0.09917805  0.20447160  1
  H+  H344  1  0.34693784  0.16458441  0.43312746  1
  H+  H345  1  0.88766698  0.42446353  0.66572286  1
  H+  H346  1  0.18582947  0.58355772  0.90525331  1
  H+  H347  1  0.64591097  0.07167947  0.61025311  1
  H+  H348  1  0.91312461  0.83733678  0.27333973  1
  H+  H349  1  0.66576219  0.82104983  0.89272803  1
  H+  H350  1  0.05348502  0.63961380  0.09399848  1
  H+  H351  1  0.08437129  0.93076202  0.10508866  1
  H+  H352  1  0.95778648  0.38866776  0.55497070  1
  H+  H353  1  0.87262208  0.93497890  0.07672494  1
  H+  H354  1  0.67480879  0.34357424  0.23654186  1
  H+  H355  1  0.63418774  0.80747104  0.28191738  1
  H+  H356  1  0.28027054  0.61383049  0.83941379  1
  H+  H357  1  0.24198195  0.11647091  1.00442058  1
  H+  H358  1  0.42900064  0.09220950  0.56732323  1
  H+  H359  1  0.34738509  0.94643000  0.16056349  1
  H+  H360  1  0.23791997  0.36815033  0.50903755  1
  H+  H361  1  0.14938188  0.81491291  0.21656451  1
  H+  H362  1  0.37590545  0.26431512  0.33383968  1
  H+  H363  1  0.94297790  0.34200522  0.65004397  1
  H+  H364  1  0.68921615  0.09311351  0.88903967  1
  H+  H365  1  0.81152552  0.15870721  0.09228940  1
  H+  H366  1  0.57621497  0.92323181  0.35048266  1
  H+  H367  1  0.29837190  0.88433615  0.74437774  1
  H+  H368  1  0.69167502  0.14488242  0.25160184  1
  H+  H369  1  0.58249137  0.66991565  0.06391121  1
  H+  H370  1  0.83578533  0.15205919  0.76611548  1
  H+  H371  1  0.91685121  0.33050015  0.93387587  1
  H+  H372  1  0.83237378  0.90181514  0.73644812  1
  H+  H373  1  0.41632468  0.32208812  0.92501333  1
  H+  H374  1  0.63695780  0.86693841  0.98384804  1
  H+  H375  1  0.31095570  0.40962593  0.12534851  1
  H+  H376  1  0.82020338  0.65628725  0.08368763  1
  H+  H377  1  0.75809503  0.01852344  0.72032870  1
  H+  H378  1  0.82009004  0.38994709  0.06847090  1
  H+  H379  1  0.83564905  0.21317497  0.39604548  1
  H+  H380  1  0.38981567  0.44137826  0.04655949  1
  H+  H381  1  0.33878127  0.17423227  0.07366208  1
  H+  H382  1  0.41804240  0.58120570  0.26949219  1
  H+  H383  1  0.18193982  0.09782136  0.91272465  1
  O2-  O384  1  0.05353303  0.22854825  0.11674318  1
  O2-  O385  1  0.10374676  0.16295077  0.48366400  1
  O2-  O386  1  0.08271145  0.17288761  0.82742839  1
  O2-  O387  1  0.08355698  0.42598095  0.15897361  1
  O2-  O388  1  0.10826797  0.43356765  0.47277448  1
  O2-  O389  1  0.08436733  0.41872498  0.80965462  1
  O2-  O390  1  0.04808806  0.63493935  0.13857127  1
  O2-  O391  1  0.08763021  0.68055029  0.49285951  1
  O2-  O392  1  0.08358011  0.62456602  0.83506950  1
  O2-  O393  1  0.08329267  0.92809329  0.15032158  1
  O2-  O394  1  0.10744367  0.92321159  0.47978654  1
  O2-  O395  1  0.05462920  0.84285153  0.80826265  1
  O2-  O396  1  0.30834940  0.19479106  0.13982140  1
  O2-  O397  1  0.34694885  0.16896663  0.47865263  1
  O2-  O398  1  0.34155308  0.17310727  0.80881176  1
  O2-  O399  1  0.32397101  0.41722445  0.16862800  1
  O2-  O400  1  0.35108635  0.42860660  0.48799925  1
  O2-  O401  1  0.32983740  0.40600819  0.80185506  1
  O2-  O402  1  0.34245679  0.67435638  0.15397612  1
  O2-  O403  1  0.34564299  0.66158311  0.47959349  1
  O2-  O404  1  0.33493687  0.65023680  0.81344927  1
  O2-  O405  1  0.32232350  0.88584222  0.14668090  1
  O2-  O406  1  0.33287899  0.91382093  0.48464124  1
  O2-  O407  1  0.32365579  0.91570623  0.82561801  1
  O2-  O408  1  0.57375897  0.18114240  0.16174272  1
  O2-  O409  1  0.59685099  0.17472292  0.47443372  1
  O2-  O410  1  0.58920535  0.17575741  0.80652615  1
  O2-  O411  1  0.58762545  0.41815699  0.15166599  1
  O2-  O412  1  0.59169407  0.42239766  0.46144691  1
  O2-  O413  1  0.58647176  0.42034054  0.80957904  1
  O2-  O414  1  0.57890259  0.66007283  0.14364252  1
  O2-  O415  1  0.53801912  0.65899215  0.47817046  1
  O2-  O416  1  0.58358706  0.66665489  0.79350398  1
  O2-  O417  1  0.55750878  0.93108908  0.16486874  1
  O2-  O418  1  0.56956582  0.90482298  0.49044365  1
  O2-  O419  1  0.59678681  0.92663777  0.82787068  1
  O2-  O420  1  0.80848879  0.15773362  0.13745466  1
  O2-  O421  1  0.82127693  0.24199449  0.46180651  1
  O2-  O422  1  0.84097494  0.16950773  0.80929644  1
  O2-  O423  1  0.83087876  0.39259346  0.14811607  1
  O2-  O424  1  0.83645874  0.43348917  0.47687200  1
  O2-  O425  1  0.83062418  0.41572613  0.81093199  1
  O2-  O426  1  0.82645715  0.67571589  0.16397911  1
  O2-  O427  1  0.80765830  0.64962423  0.47390063  1
  O2-  O428  1  0.84473215  0.66593790  0.80985144  1
  O2-  O429  1  0.90919899  0.95512305  0.11666413  1
  O2-  O430  1  0.82059645  0.89945845  0.48876494  1
  O2-  O431  1  0.83640628  0.91337094  0.81424517  1
  O2-  O432  1  0.18012498  0.08654550  0.19402261  1
  O2-  O433  1  0.18579090  0.07300138  0.50961836  1
  O2-  O434  1  0.17779067  0.09960429  0.86693221  1
  O2-  O435  1  0.15956655  0.34346496  0.21036783  1
  O2-  O436  1  0.17551508  0.33428030  0.51898856  1
  O2-  O437  1  0.17254907  0.34208869  0.85322554  1
  O2-  O438  1  0.16450709  0.60286114  0.18113939  1
  O2-  O439  1  0.17825982  0.59041889  0.52017649  1
  O2-  O440  1  0.20457802  0.55195503  0.87867309  1
  O2-  O441  1  0.15845196  0.82802081  0.17269096  1
  O2-  O442  1  0.16932142  0.83702790  0.52828496  1
  O2-  O443  1  0.16818967  0.81380382  0.88035730  1
  O2-  O444  1  0.38255867  0.04381571  0.19580592  1
  O2-  O445  1  0.42514404  0.08639490  0.52118071  1
  O2-  O446  1  0.41690245  0.09258335  0.84975527  1
  O2-  O447  1  0.42506567  0.33769364  0.19655059  1
  O2-  O448  1  0.43105398  0.33713039  0.51515299  1
  O2-  O449  1  0.42129594  0.33260164  0.84860685  1
  O2-  O450  1  0.41428175  0.58229206  0.18896889  1
  O2-  O451  1  0.45710718  0.60823308  0.51196453  1
  O2-  O452  1  0.42515822  0.56109152  0.84245501  1
  O2-  O453  1  0.40643269  0.83013695  0.20470931  1
  O2-  O454  1  0.39992503  0.81852125  0.52455918  1
  O2-  O455  1  0.41507851  0.82006936  0.82066071  1
  O2-  O456  1  0.66387224  0.10058749  0.19311490  1
  O2-  O457  1  0.64618613  0.06485044  0.52999268  1
  O2-  O458  1  0.67545938  0.08885161  0.84594853  1
  O2-  O459  1  0.67583542  0.34040068  0.19125673  1
  O2-  O460  1  0.67636567  0.34332922  0.52055131  1
  O2-  O461  1  0.66568352  0.33497150  0.85475573  1
  O2-  O462  1  0.66217056  0.57965304  0.19239585  1
  O2-  O463  1  0.64147536  0.58430031  0.50453441  1
  O2-  O464  1  0.66786237  0.59131951  0.82980760  1
  O2-  O465  1  0.57982023  0.79628629  0.20641209  1
  O2-  O466  1  0.65260950  0.82070934  0.52529345  1
  O2-  O467  1  0.66953086  0.82648863  0.84772544  1
  O2-  O468  1  0.92171254  0.09485175  0.16104029  1
  O2-  O469  1  0.93995813  0.05714673  0.53055053  1
  O2-  O470  1  0.91409957  0.08041382  0.85645140  1
  O2-  O471  1  0.93156524  0.35052130  0.19956583  1
  O2-  O472  1  0.94936381  0.38182159  0.51037715  1
  O2-  O473  1  0.91862253  0.33790982  0.85297644  1
  O2-  O474  1  0.89957996  0.55735194  0.17791449  1
  O2-  O475  1  0.90929250  0.58966495  0.52133630  1
  O2-  O476  1  0.90635776  0.57182923  0.85626225  1
  O2-  O477  1  0.92300672  0.85203534  0.18742953  1
  O2-  O478  1  0.88097281  0.80128396  0.53348550  1
  O2-  O479  1  0.91083382  0.82805030  0.86284405  1
  O2-  O480  1  0.16866243  0.06815668  0.31534457  1
  O2-  O481  1  0.16101194  0.08874145  0.66769485  1
  O2-  O482  1  0.18189263  0.09245634  0.98831374  1
  O2-  O483  1  0.18255539  0.30516535  0.32720404  1
  O2-  O484  1  0.16412575  0.33232874  0.64452465  1
  O2-  O485  1  0.17461760  0.33936813  0.97932090  1
  O2-  O486  1  0.16418525  0.51568244  0.31298330  1
  O2-  O487  1  0.16870149  0.62865374  0.63991172  1
  O2-  O488  1  0.19478112  0.65793956  0.96594389  1
  O2-  O489  1  0.14103450  0.80531485  0.30015483  1
  O2-  O490  1  0.12906403  0.80099300  0.64876560  1
  O2-  O491  1  0.18514199  0.85248158  1.00984105  1
  O2-  O492  1  0.42556173  0.07894109  0.31686525  1
  O2-  O493  1  0.43126323  0.10094361  0.63983424  1
  O2-  O494  1  0.46222830  0.11278975  1.00189362  1
  O2-  O495  1  0.38813116  0.32154367  0.31914843  1
  O2-  O496  1  0.42412795  0.33657787  0.63806785  1
  O2-  O497  1  0.41076414  0.31901905  0.97059242  1
  O2-  O498  1  0.42262176  0.58541058  0.31447193  1
  O2-  O499  1  0.40867121  0.57627812  0.65137559  1
  O2-  O500  1  0.41758149  0.60151894  0.98017105  1
  O2-  O501  1  0.39306653  0.82181755  0.32549026  1
  O2-  O502  1  0.40080519  0.81443611  0.65232296  1
  O2-  O503  1  0.41848884  0.83521000  0.96232315  1
  O2-  O504  1  0.71457228  0.18459957  0.29000664  1
  O2-  O505  1  0.64738968  0.07583088  0.65536416  1
  O2-  O506  1  0.63775397  0.07900438  0.99261617  1
  O2-  O507  1  0.67143611  0.35438229  0.31486676  1
  O2-  O508  1  0.68877875  0.34243831  0.63877933  1
  O2-  O509  1  0.65762396  0.31776034  0.97971185  1
  O2-  O510  1  0.65940385  0.55807803  0.31523955  1
  O2-  O511  1  0.73861476  0.64133808  0.69221477  1
  O2-  O512  1  0.69961743  0.67224634  0.93785608  1
  O2-  O513  1  0.64593295  0.80603688  0.32570446  1
  O2-  O514  1  0.65368093  0.82015607  0.64692098  1
  O2-  O515  1  0.66619025  0.83406666  0.97353857  1
  O2-  O516  1  0.89680622  0.07341030  0.34988221  1
  O2-  O517  1  0.92209713  0.06399823  0.65535597  1
  O2-  O518  1  0.91689590  0.08007558  0.97761716  1
  O2-  O519  1  0.93692588  0.36533566  0.31374733  1
  O2-  O520  1  0.96851671  0.40145667  0.63579888  1
  O2-  O521  1  0.91250550  0.32219322  0.97894981  1
  O2-  O522  1  0.90042824  0.56910781  0.30303387  1
  O2-  O523  1  0.91459923  0.60157168  0.64462871  1
  O2-  O524  1  0.88839710  0.55563706  0.98279895  1
  O2-  O525  1  0.90918406  0.82661473  0.31763571  1
  O2-  O526  1  0.93756544  0.83808340  0.65596226  1
  O2-  O527  1  0.91621532  0.83156690  0.98205655  1
  O2-  O528  1  0.08952734  0.17096220  0.01548074  1
  O2-  O529  1  0.06630753  0.14161713  0.36396854  1
  O2-  O530  1  0.07969041  0.17782629  0.70570429  1
  O2-  O531  1  0.05423534  0.35453134  0.04737446  1
  O2-  O532  1  0.10824700  0.44636208  0.34718003  1
  O2-  O533  1  0.12220011  0.44949594  0.69235298  1
  O2-  O534  1  0.05305904  0.65150012  0.01199516  1
  O2-  O535  1  0.07372769  0.62961746  0.34538965  1
  O2-  O536  1  0.08258681  0.70643668  0.65733063  1
  O2-  O537  1  0.08667721  0.92672232  0.02535124  1
  O2-  O538  1  0.08302934  0.90395320  0.35837825  1
  O2-  O539  1  0.09399883  0.93220344  0.70445971  1
  O2-  O540  1  0.34814485  0.16462315  0.02945343  1
  O2-  O541  1  0.33960937  0.15718841  0.35685104  1
  O2-  O542  1  0.33568508  0.17128645  0.68451894  1
  O2-  O543  1  0.35211147  0.43368861  0.01238155  1
  O2-  O544  1  0.34957362  0.42970555  0.36669102  1
  O2-  O545  1  0.33274203  0.40779593  0.67951201  1
  O2-  O546  1  0.33791684  0.68896692  0.02707179  1
  O2-  O547  1  0.31612056  0.64857929  0.35756073  1
  O2-  O548  1  0.28224148  0.59626036  0.69768552  1
  O2-  O549  1  0.34580743  0.94106146  -0.01888673  1
  O2-  O550  1  0.35263230  0.92724290  0.36738091  1
  O2-  O551  1  0.29537916  0.86614653  0.70174438  1
  O2-  O552  1  0.54319987  0.15701077  0.03581855  1
  O2-  O553  1  0.60213772  0.19203296  0.35188541  1
  O2-  O554  1  0.60688226  0.19633273  0.68586739  1
  O2-  O555  1  0.57141451  0.38303484  0.02888931  1
  O2-  O556  1  0.61001032  0.46639696  0.33326317  1
  O2-  O557  1  0.58324537  0.46181243  0.69169602  1
  O2-  O558  1  0.57801644  0.67381336  0.01889806  1
  O2-  O559  1  0.58241463  0.63388626  0.34805755  1
  O2-  O560  1  0.55966528  0.65857330  0.67745281  1
  O2-  O561  1  0.57182602  0.90792003  0.01042076  1
  O2-  O562  1  0.54362474  0.86665212  0.36960743  1
  O2-  O563  1  0.56666154  0.89270303  0.67878831  1
  O2-  O564  1  0.82239792  0.15647638  0.01317843  1
  O2-  O565  1  0.84376584  0.19945591  0.35249557  1
  O2-  O566  1  0.78941714  0.07481964  0.70110759  1
  O2-  O567  1  0.81972917  0.39311518  0.02317109  1
  O2-  O568  1  0.83376839  0.41908527  0.35429088  1
  O2-  O569  1  0.84386426  0.43836073  0.68056163  1
  O2-  O570  1  0.80849992  0.64242959  0.03958000  1
  O2-  O571  1  0.82568930  0.65466537  0.35108849  1
  O2-  O572  1  0.81041319  0.67058826  0.64926248  1
  O2-  O573  1  0.83561345  0.91798666  0.01438716  1
  O2-  O574  1  0.81182885  0.89214848  0.36595094  1
  O2-  O575  1  0.83009897  0.89988603  0.69094856  1
