# generated using pymatgen
data_H2O
_symmetry_space_group_name_H-M   'P 1'
_cell_length_a   17.99537872
_cell_length_b   17.99400884
_cell_length_c   22.00488553
_cell_angle_alpha   90.01000444
_cell_angle_beta   90.00145999
_cell_angle_gamma   120.00434957
_symmetry_Int_Tables_number   1
_chemical_formula_structural   H2O
_chemical_formula_sum   'H384 O192'
_cell_volume   6170.48952113
_cell_formula_units_Z   192
loop_
 _symmetry_equiv_pos_site_id
 _symmetry_equiv_pos_as_xyz
  1  'x, y, z'
loop_
 _atom_type_symbol
 _atom_type_oxidation_number
  H+  1.0
  O2-  -2.0
loop_
 _atom_site_type_symbol
 _atom_site_label
 _atom_site_symmetry_multiplicity
 _atom_site_fract_x
 _atom_site_fract_y
 _atom_site_fract_z
 _atom_site_occupancy
  H+  H0  1  0.13091775  0.34975885  0.82268045  1
  H+  H1  1  0.22110925  0.61015049  0.67365891  1
  H+  H2  1  0.51988618  0.38915800  0.33083091  1
  H+  H3  1  0.88890467  0.12525488  0.84966023  1
  H+  H4  1  0.75455351  0.12132458  0.17815020  1
  H+  H5  1  0.64239615  0.52752595  0.31936664  1
  H+  H6  1  0.60176496  0.48541028  0.47876159  1
  H+  H7  1  0.88715489  0.39840156  0.82007414  1
  H+  H8  1  0.40630967  0.93733333  0.65358204  1
  H+  H9  1  0.59672556  0.67130072  0.43684747  1
  H+  H10  1  0.12553982  0.35586327  0.50166925  1
  H+  H11  1  0.38761797  0.26999794  0.83313606  1
  H+  H12  1  0.97091443  0.36340172  1.00525778  1
  H+  H13  1  0.11354526  0.98080673  0.15967068  1
  H+  H14  1  0.37154162  0.35950370  0.13910714  1
  H+  H15  1  0.36797282  0.22774503  0.66805554  1
  H+  H16  1  0.97625686  0.62319257  0.51614272  1
  H+  H17  1  0.36624239  0.90272289  0.78654041  1
  H+  H18  1  0.21710335  0.61271393  0.99986306  1
  H+  H19  1  0.64284788  0.78354676  0.51117401  1
  H+  H20  1  0.09234679  0.92156556  0.39470951  1
  H+  H21  1  0.61711162  0.48550574  0.67230929  1
  H+  H22  1  0.88206052  0.34187762  0.32240948  1
  H+  H23  1  0.11120220  0.95833629  0.66545003  1
  H+  H24  1  0.12809159  0.75009567  0.64703964  1
  H+  H25  1  0.61782976  0.35690509  0.32677086  1
  H+  H26  1  0.12611558  0.54938112  0.32996718  1
  H+  H27  1  0.46117162  0.59836109  0.99182884  1
  H+  H28  1  0.39287732  1.01772129  0.64336361  1
  H+  H29  1  0.13725559  0.85419645  0.83831651  1
  H+  H30  1  0.12350775  0.24003764  0.16565033  1
  H+  H31  1  0.13490447  0.00685174  0.32123342  1
  H+  H32  1  0.57568994  0.41856445  0.76510505  1
  H+  H33  1  0.49502314  0.56502800  0.15240848  1
  H+  H34  1  0.58969797  0.33895796  0.84258661  1
  H+  H35  1  0.16568283  0.33247492  0.55705336  1
  H+  H36  1  0.31357613  0.67369465  0.39665226  1
  H+  H37  1  0.85851296  0.13196311  0.50443840  1
  H+  H38  1  0.89242537  0.03890244  0.84072282  1
  H+  H39  1  0.77195006  0.30611988  0.85920633  1
  H+  H40  1  0.27294082  0.38547863  0.81782204  1
  H+  H41  1  0.85088391  0.46995560  0.51500690  1
  H+  H42  1  -0.01594426  0.10751189  0.32808249  1
  H+  H43  1  0.16444065  0.82534470  0.89856358  1
  H+  H44  1  0.37718432  0.47954297  0.67877076  1
  H+  H45  1  0.76720220  0.12569199  0.50055664  1
  H+  H46  1  1.04888048  0.88951565  0.48968071  1
  H+  H47  1  0.32003290  0.80560062  0.64293553  1
  H+  H48  1  0.37916252  0.61216903  0.84130905  1
  H+  H49  1  0.11200317  0.73139809  0.00755646  1
  H+  H50  1  0.12094561  0.75809271  0.32488205  1
  H+  H51  1  0.89507394  0.26186722  0.33601733  1
  H+  H52  1  0.88853090  0.03194177  0.68618483  1
  H+  H53  1  0.87932115  0.36522455  0.00169985  1
  H+  H54  1  0.09857818  0.39260054  0.16745919  1
  H+  H55  1  0.36059756  0.88734872  0.01080946  1
  H+  H56  1  0.87419282  0.62171319  0.66381474  1
  H+  H57  1  0.48021016  0.86634691  0.84785803  1
  H+  H58  1  0.49167884  0.33683791  0.48550145  1
  H+  H59  1  0.42044446  1.03827538  0.81850364  1
  H+  H60  1  0.62041864  0.47951298  0.14809872  1
  H+  H61  1  0.89177085  0.77799840  0.17342366  1
  H+  H62  1  0.74180947  0.61854208  0.67519470  1
  H+  H63  1  0.52302741  0.14374541  0.66156832  1
  H+  H64  1  0.48543134  0.11849407  0.52727450  1
  H+  H65  1  0.85827163  0.75070216  0.66514677  1
  H+  H66  1  0.38807223  0.10891687  0.98718146  1
  H+  H67  1  0.14372351  1.02070817  -0.01837637  1
  H+  H68  1  0.88195499  0.52275875  0.16945261  1
  H+  H69  1  0.38482054  0.11245668  0.17368954  1
  H+  H70  1  0.65180046  0.13170297  0.66681493  1
  H+  H71  1  0.89599061  0.54644438  0.32777571  1
  H+  H72  1  0.78355890  0.89969321  0.80773302  1
  H+  H73  1  0.13030134  0.61692039  0.99685814  1
  H+  H74  1  0.86738999  0.98476321  0.34880986  1
  H+  H75  1  0.14386665  0.10599211  0.32009005  1
  H+  H76  1  0.88454777  0.01836692  0.52900168  1
  H+  H77  1  0.86983334  0.63962249  0.15067644  1
  H+  H78  1  0.85812360  0.14249910  -0.00257552  1
  H+  H79  1  0.78838470  0.16789823  0.84350053  1
  H+  H80  1  0.15087146  0.11113325  0.81288604  1
  H+  H81  1  0.28025971  0.91136430  0.51440297  1
  H+  H82  1  0.23831080  0.38230615  0.65409170  1
  H+  H83  1  0.38792626  0.38131156  0.66995445  1
  H+  H84  1  1.00750043  0.63221598  0.67654088  1
  H+  H85  1  0.61202527  0.89544956  0.16108510  1
  H+  H86  1  0.14575883  0.51101223  0.52410661  1
  H+  H87  1  0.54189789  0.63838536  0.49847168  1
  H+  H88  1  0.35386030  0.63379105  0.01431968  1
  H+  H89  1  0.78112516  0.13906236  0.34644146  1
  H+  H90  1  0.77496538  0.88932562  0.50958885  1
  H+  H91  1  0.42276295  0.33114762  0.22717964  1
  H+  H92  1  0.87602637  0.98408417  0.15211019  1
  H+  H93  1  0.62905761  1.04244108  -0.00154663  1
  H+  H94  1  0.42732024  0.08571489  0.92859061  1
  H+  H95  1  0.72838047  0.84748347  0.30523091  1
  H+  H96  1  1.10998010  0.72201399  0.54363923  1
  H+  H97  1  0.63420930  0.09789095  0.51829656  1
  H+  H98  1  0.39080730  0.87426000  0.17465553  1
  H+  H99  1  0.12404108  0.43865561  0.35885972  1
  H+  H100  1  0.34384962  0.63254670  0.16955373  1
  H+  H101  1  0.21260472  0.40144627  0.17635248  1
  H+  H102  1  0.67026636  0.65120079  0.51465936  1
  H+  H103  1  0.93340119  0.10053698  0.09406418  1
  H+  H104  1  0.91319686  0.87057033  0.51686671  1
  H+  H105  1  0.14042041  0.83700722  0.62674549  1
  H+  H106  1  0.86739288  0.13956169  0.15382392  1
  H+  H107  1  0.22611329  0.86401616  -0.00342009  1
  H+  H108  1  0.48878370  0.37977896  0.66175993  1
  H+  H109  1  0.61738868  0.91258604  0.37437964  1
  H+  H110  1  0.23404973  0.11699009  0.17082976  1
  H+  H111  1  0.13021203  0.52356854  0.67121572  1
  H+  H112  1  0.84298870  0.92131680  0.45483628  1
  H+  H113  1  0.62233812  0.44814747  0.99563599  1
  H+  H114  1  0.10149654  0.39619274  0.01754169  1
  H+  H115  1  0.58315453  0.86458203  0.67838356  1
  H+  H116  1  0.38364073  0.61379484  0.35463670  1
  H+  H117  1  0.61415858  0.63185343  0.33941269  1
  H+  H118  1  0.10122191  0.24136557  1.01614929  1
  H+  H119  1  0.57959990  0.17920974  0.06401042  1
  H+  H120  1  0.02424314  0.40062405  0.34688214  1
  H+  H121  1  0.76844798  0.38625968  0.35647795  1
  H+  H122  1  1.02485381  0.89337414  0.33707309  1
  H+  H123  1  0.47205313  0.86532504  1.00891831  1
  H+  H124  1  0.23805205  0.11149291  0.82388089  1
  H+  H125  1  0.89139060  0.86905271  0.83780568  1
  H+  H126  1  -0.01978094  0.86680859  0.17621387  1
  H+  H127  1  0.60628703  0.97934045  0.82613900  1
  H+  H128  1  0.27777862  0.50575104  0.10689127  1
  H+  H129  1  0.39157355  1.02883552  0.32765290  1
  H+  H130  1  0.62905267  0.27537988  0.67189414  1
  H+  H131  1  0.80322910  0.66623527  0.49571548  1
  H+  H132  1  0.86846130  0.47774812  1.00548203  1
  H+  H133  1  0.26861512  0.65373743  0.33211820  1
  H+  H134  1  0.16897579  0.84351066  0.25972208  1
  H+  H135  1  0.47152439  0.61192932  0.36081818  1
  H+  H136  1  -0.00947789  0.12622981  0.15172481  1
  H+  H137  1  0.36620408  0.22141054  0.15347830  1
  H+  H138  1  0.11974243  0.22151939  0.78047417  1
  H+  H139  1  0.02865994  0.88675710  0.82690703  1
  H+  H140  1  0.58571411  0.47182847  0.51096505  1
  H+  H141  1  1.03015927  0.13663419  0.69380615  1
  H+  H142  1  0.36535506  0.97818854  0.00366699  1
  H+  H143  1  0.55741385  0.20365830  0.83853089  1
  H+  H144  1  0.61417324  0.10658722  0.84123040  1
  H+  H145  1  0.38877402  0.27616087  0.32794865  1
  H+  H146  1  0.87739761  0.53199703  0.65750306  1
  H+  H147  1  0.63790191  0.87416199  0.82489878  1
  H+  H148  1  0.71765660  0.35111280  0.51986586  1
  H+  H149  1  0.88354912  0.85635940  0.99471468  1
  H+  H150  1  0.63860409  0.11288055  0.33590772  1
  H+  H151  1  0.61050853  0.72691017  0.82560226  1
  H+  H152  1  0.97985695  0.62518851  0.99660370  1
  H+  H153  1  0.35949793  0.13947120  0.50726156  1
  H+  H154  1  0.11665734  0.72563287  0.82959982  1
  H+  H155  1  0.60862906  0.22499170  0.15371163  1
  H+  H156  1  0.60666635  0.21151720  0.50884164  1
  H+  H157  1  0.86134928  0.22663244  0.16643147  1
  H+  H158  1  0.13701037  0.78116895  0.17182134  1
  H+  H159  1  0.37405253  0.14498812  0.65046916  1
  H+  H160  1  0.87726632  0.63774622  0.00053949  1
  H+  H161  1  0.38677358  0.02479179  0.53735010  1
  H+  H162  1  0.36283069  0.47702601  0.35528462  1
  H+  H163  1  0.11925413  0.97162146  0.81975913  1
  H+  H164  1  0.73234353  0.87447125  0.16215184  1
  H+  H165  1  0.59486939  0.67251594  -0.03957118  1
  H+  H166  1  0.70907582  0.36323427  0.31975413  1
  H+  H167  1  0.23010165  0.10914854  0.66012947  1
  H+  H168  1  0.60664185  0.71366706  0.67826710  1
  H+  H169  1  0.48375817  0.86736879  0.51864032  1
  H+  H170  1  0.33173348  0.92345668  0.10242578  1
  H+  H171  1  0.60912585  0.39026066  0.67231541  1
  H+  H172  1  0.09480655  0.62629675  0.67811403  1
  H+  H173  1  0.32257851  0.45779132  0.13311011  1
  H+  H174  1  0.78358416  0.15696534  0.68838585  1
  H+  H175  1  0.87817790  0.26578100  0.51527660  1
  H+  H176  1  0.87518374  0.26212275  -0.00152764  1
  H+  H177  1  0.70351612  0.84803757  0.66664692  1
  H+  H178  1  0.11508435  0.65759645  0.32744435  1
  H+  H179  1  0.11425714  0.89252991  0.16006221  1
  H+  H180  1  0.21048975  0.37239071  0.98435289  1
  H+  H181  1  0.87096070  0.89269804  0.16537859  1
  H+  H182  1  0.86617231  0.73262629  0.34209041  1
  H+  H183  1  0.53510610  0.88456110  0.33523710  1
  H+  H184  1  0.22826492  0.87055622  0.17096274  1
  H+  H185  1  0.85782713  0.38693020  0.16187425  1
  H+  H186  1  0.96918209  0.36492081  0.17273443  1
  H+  H187  1  0.76923935  0.14655850  -0.00351780  1
  H+  H188  1  0.36069200  -0.01913941  0.16317713  1
  H+  H189  1  0.24311067  0.35995453  0.32928636  1
  H+  H190  1  0.28283178  0.13546348  0.34633246  1
  H+  H191  1  0.63668523  0.61087549  0.84286872  1
  H+  H192  1  0.14320116  0.11543831  0.50871024  1
  H+  H193  1  0.64434446  1.02746823  0.32538104  1
  H+  H194  1  0.82262337  0.93223670  0.63003674  1
  H+  H195  1  0.36551394  0.21332581  0.00339361  1
  H+  H196  1  0.49507371  0.86454522  0.67992429  1
  H+  H197  1  0.27741915  0.31985549  0.11482143  1
  H+  H198  1  0.90563978  0.53882818  0.84287057  1
  H+  H199  1  0.46963491  0.61360418  0.84187580  1
  H+  H200  1  0.10646568  0.39474095  0.67655015  1
  H+  H201  1  0.48649745  0.35958419  0.16912876  1
  H+  H202  1  0.07725338  0.66291624  0.77041118  1
  H+  H203  1  0.76749877  0.38789814  0.67524152  1
  H+  H204  1  0.38772578  0.36431118  0.32531932  1
  H+  H205  1  0.10867981  0.64361674  0.16191388  1
  H+  H206  1  0.68568050  0.09998512  0.61135816  1
  H+  H207  1  0.09116950  0.75382686  0.48494801  1
  H+  H208  1  0.51369793  0.38927499  0.82388469  1
  H+  H209  1  1.02062693  0.14777961  1.01324723  1
  H+  H210  1  0.91077986  0.58839544  0.22628516  1
  H+  H211  1  0.78117938  0.63991323  0.14953253  1
  H+  H212  1  0.86982833  0.64433701  0.83290658  1
  H+  H213  1  0.63378583  0.52072244  0.83650638  1
  H+  H214  1  1.01983100  0.64328481  0.15946174  1
  H+  H215  1  0.88206751  0.36620552  0.65982942  1
  H+  H216  1  0.86097654  0.38242063  0.35610547  1
  H+  H217  1  0.37789364  0.35817615  0.51306167  1
  H+  H218  1  0.89929269  1.11482140  0.33558029  1
  H+  H219  1  0.61307103  0.71873427  0.33624822  1
  H+  H220  1  0.03371420  0.14307414  0.46313812  1
  H+  H221  1  0.87097718  0.15390250  0.69665990  1
  H+  H222  1  0.34343038  0.47071778  0.98745823  1
  H+  H223  1  0.14468091  0.33338728  0.33655438  1
  H+  H224  1  0.87945570  0.64475512  0.49353298  1
  H+  H225  1  0.73042058  0.61624991  0.32254926  1
  H+  H226  1  0.63396068  1.00859273  0.52504803  1
  H+  H227  1  0.09675971  0.18289291  0.10488789  1
  H+  H228  1  0.26821362  0.62939366  0.49990598  1
  H+  H229  1  0.97200906  0.10330837  0.54550058  1
  H+  H230  1  0.85110660  0.38115165  0.51552138  1
  H+  H231  1  0.61836736  0.62927652  0.68162021  1
  H+  H232  1  0.60676635  0.21575213  0.35447474  1
  H+  H233  1  0.72320968  0.59227501  0.98929223  1
  H+  H234  1  0.35700446  0.71127184  0.67583989  1
  H+  H235  1  0.28025497  0.89751114  0.33435013  1
  H+  H236  1  0.34795592  0.63310679  0.46625387  1
  H+  H237  1  0.88822030  0.28060643  0.67143686  1
  H+  H238  1  0.62009548  0.33189991  0.50921813  1
  H+  H239  1  0.52494575  0.15088429  1.00179293  1
  H+  H240  1  0.37059720  0.26495710  0.51827646  1
  H+  H241  1  0.52061326  0.12757699  0.34945235  1
  H+  H242  1  0.51991055  0.13766756  0.15371204  1
  H+  H243  1  0.12638029  0.52844335  0.17697815  1
  H+  H244  1  0.60222009  0.59877357  -0.00915295  1
  H+  H245  1  0.61097875  0.91025418  1.02494453  1
  H+  H246  1  0.89062511  0.02821368  0.99617096  1
  H+  H247  1  0.63679339  0.36440809  0.16971229  1
  H+  H248  1  0.65966507  0.80454369  1.05037530  1
  H+  H249  1  0.14767885  0.12399804  0.17617100  1
  H+  H250  1  0.76962958  0.38781794  0.16040326  1
  H+  H251  1  0.88723696  0.77778906  0.84068083  1
  H+  H252  1  0.48244952  0.59202193  0.13382332  1
  H+  H253  1  0.42188272  0.63052957  0.52860657  1
  H+  H254  1  0.86451005  0.48029190  0.35286999  1
  H+  H255  1  0.34321605  0.41521530  0.73816913  1
  H+  H256  1  0.91743833  0.78586300  0.50644433  1
  H+  H257  1  0.90994549  0.32543972  0.57552968  1
  H+  H258  1  0.09885400  0.45724385  0.84222891  1
  H+  H259  1  0.09894759  0.48367601  0.01447620  1
  H+  H260  1  0.12738550  0.60348384  0.84106287  1
  H+  H261  1  0.38040139  0.35554798  0.83878707  1
  H+  H262  1  0.48002957  0.33760442  -0.01212687  1
  H+  H263  1  0.13617396  0.86253660  -0.00453813  1
  H+  H264  1  0.64948068  0.74556435  0.13100139  1
  H+  H265  1  0.01028261  0.37694743  0.50795307  1
  H+  H266  1  0.07103752  0.42470593  0.10710159  1
  H+  H267  1  0.78568064  0.89636077  0.01546579  1
  H+  H268  1  0.63585661  0.13424153  0.99288078  1
  H+  H269  1  0.11836608  0.22992481  0.48185889  1
  H+  H270  1  0.13550573  0.21630776  0.32577657  1
  H+  H271  1  0.35173072  0.72287694  0.83572039  1
  H+  H272  1  0.77815054  0.63849091  0.83109325  1
  H+  H273  1  0.88615505  0.86563326  0.33079814  1
  H+  H274  1  0.64633366  1.02549173  0.18168119  1
  H+  H275  1  0.63296315  0.86899320  0.52004179  1
  H+  H276  1  0.02318497  0.66068853  0.32678738  1
  H+  H277  1  0.13916571  0.87296498  0.32139218  1
  H+  H278  1  0.68058963  0.57060453  0.52043302  1
  H+  H279  1  0.73284616  0.31006805  0.85310327  1
  H+  H280  1  0.26755425  0.13485360  0.50266909  1
  H+  H281  1  0.26859862  0.38735372  0.49433528  1
  H+  H282  1  0.36115181  0.47396131  0.49805986  1
  H+  H283  1  0.14251410  0.10974747  0.66822207  1
  H+  H284  1  0.38292234  0.14170219  0.81695095  1
  H+  H285  1  0.39819949  0.12087380  0.33234748  1
  H+  H286  1  0.77758136  0.92358657  0.37991525  1
  H+  H287  1  0.52377350  0.89940930  0.17024017  1
  H+  H288  1  0.21867921  0.44414591  0.61700089  1
  H+  H289  1  1.02091008  0.88262344  1.00497909  1
  H+  H290  1  0.68043679  0.59927602  0.61521944  1
  H+  H291  1  0.91447903  0.32711054  0.23273346  1
  H+  H292  1  0.39063538  0.81568079  0.59518948  1
  H+  H293  1  0.96488285  0.30099499  0.86006573  1
  H+  H294  1  0.65706572  0.32740593  0.60995415  1
  H+  H295  1  0.91067636  0.82830547  0.93215108  1
  H+  H296  1  0.41999578  0.08884846  0.23394684  1
  H+  H297  1  0.66744400  0.56330820  0.92810941  1
  H+  H298  1  0.15414330  0.29162070  0.86308255  1
  H+  H299  1  0.92209708  0.59554804  0.93448337  1
  H+  H300  1  0.83557295  0.42060500  0.06543083  1
  H+  H301  1  0.64268691  0.85284856  0.30469851  1
  H+  H302  1  0.60460416  0.30918033  0.90750567  1
  H+  H303  1  0.65364824  0.08749717  0.89912100  1
  H+  H304  1  0.84153950  0.66968685  0.06548642  1
  H+  H305  1  0.36091581  0.47632857  0.82703324  1
  H+  H306  1  0.21756380  0.61812886  0.17682759  1
  H+  H307  1  0.18043761  0.57569370  0.58133117  1
  H+  H308  1  0.83407746  0.66598833  0.73188325  1
  H+  H309  1  0.84561774  0.19437046  0.78471156  1
  H+  H310  1  0.91614575  0.83785074  0.27027240  1
  H+  H311  1  0.86693922  0.73112428  0.00081443  1
  H+  H312  1  0.17377854  0.07663543  0.25540373  1
  H+  H313  1  0.57595960  0.93984843  0.07880764  1
  H+  H314  1  0.36536918  0.90127273  0.51859424  1
  H+  H315  1  0.07923853  0.67168149  0.06733777  1
  H+  H316  1  0.66443169  0.82410266  0.21359223  1
  H+  H317  1  0.40367259  0.58409887  0.93389807  1
  H+  H318  1  0.26312417  0.63233487  0.83292421  1
  H+  H319  1  0.91070423  0.59186566  0.57155552  1
  H+  H320  1  0.61579521  0.67757225  0.07404141  1
  H+  H321  1  0.91352788  0.08945368  0.62861793  1
  H+  H322  1  0.15693539  0.59692976  0.26447956  1
  H+  H323  1  0.08022696  0.91756136  0.06396727  1
  H+  H324  1  0.39243364  0.60563447  0.67122426  1
  H+  H325  1  0.68911755  0.85822151  0.87621973  1
  H+  H326  1  0.85168200  0.92917047  0.75610960  1
  H+  H327  1  0.43394803  0.85171527  0.40010625  1
  H+  H328  1  0.33539419  0.66136399  0.73980665  1
  H+  H329  1  0.42206014  0.62308736  0.24141879  1
  H+  H330  1  0.64903129  0.82111928  0.60676276  1
  H+  H331  1  0.65484755  0.32561463  0.22940960  1
  H+  H332  1  0.57878791  0.65921504  0.77218824  1
  H+  H333  1  0.41859849  0.82714138  0.94793507  1
  H+  H334  1  0.41745202  0.34283212  0.60284575  1
  H+  H335  1  0.41513227  0.31754629  0.93372868  1
  H+  H336  1  0.08371114  0.89657257  0.72068812  1
  H+  H337  1  0.88810173  0.63306019  0.32627969  1
  H+  H338  1  0.36898617  0.89943775  0.34330978  1
  H+  H339  1  0.96534849  0.46947604  0.78453039  1
  H+  H340  1  0.84504304  0.86637812  0.66315490  1
  H+  H341  1  0.61510772  0.29154895  1.00420496  1
  H+  H342  1  0.46983238  0.65175672  0.24472406  1
  H+  H343  1  0.84956407  0.91945465  0.06993875  1
  H+  H344  1  0.59225427  0.40941268  0.09422584  1
  H+  H345  1  0.38738166  0.78190723  0.50481434  1
  H+  H346  1  0.01771454  0.39301656  0.67593068  1
  H+  H347  1  0.92246483  0.82815084  0.61834576  1
  H+  H348  1  0.17033260  0.08745886  0.57072029  1
  H+  H349  1  0.98976797  0.62788326  0.84473065  1
  H+  H350  1  0.12432115  0.34556875  0.94346514  1
  H+  H351  1  0.91707984  0.08866243  0.93718655  1
  H+  H352  1  0.55258899  0.15463804  0.73155335  1
  H+  H353  1  0.43141213  0.57701600  0.57968797  1
  H+  H354  1  0.68141555  0.09027272  0.24228728  1
  H+  H355  1  0.39257977  0.78757492  0.17941580  1
  H+  H356  1  0.35667204  0.72367562  0.01818025  1
  H+  H357  1  0.66333414  0.62878024  0.15311913  1
  H+  H358  1  0.48335566  0.60542757  0.67197121  1
  H+  H359  1  0.56846392  0.14958039  0.45015496  1
  H+  H360  1  0.32520771  0.66845517  0.10968928  1
  H+  H361  1  0.64464321  0.81696968  0.98237499  1
  H+  H362  1  0.33114162  0.15759087  0.09517302  1
  H+  H363  1  0.17770415  0.07978171  0.92292276  1
  H+  H364  1  0.39817079  0.87271903  0.86651085  1
  H+  H365  1  0.10754868  0.16248090  0.38737512  1
  H+  H366  1  0.57025816  0.40120410  0.39166496  1
  H+  H367  1  0.33479450  0.16790750  0.40861556  1
  H+  H368  1  0.15597190  0.57666181  0.90225378  1
  H+  H369  1  0.16800095  0.34471546  0.23519568  1
  H+  H370  1  0.33130162  0.40518386  0.40401904  1
  H+  H371  1  0.67374078  0.59194672  0.21810465  1
  H+  H372  1  0.06786138  0.42276671  0.44942838  1
  H+  H373  1  0.36561090  0.96260905  0.73553685  1
  H+  H374  1  0.34909068  0.16446376  0.75684713  1
  H+  H375  1  0.58023253  0.91679425  0.46433375  1
  H+  H376  1  0.39336788  0.78213296  0.34852295  1
  H+  H377  1  0.27591286  0.12397111  -0.00030248  1
  H+  H378  1  0.56754015  0.91276523  0.76855094  1
  H+  H379  1  0.32695153  0.38806190  0.02386696  1
  H+  H380  1  0.84362485  0.42667412  0.72534199  1
  H+  H381  1  0.84400819  0.67290714  0.40151653  1
  H+  H382  1  0.50058925  0.27251981  0.44294707  1
  H+  H383  1  0.83664843  0.16416126  0.40799680  1
  O2-  O384  1  0.10067297  0.18018774  0.15117952  1
  O2-  O385  1  0.09612545  0.17131390  0.46258809  1
  O2-  O386  1  0.09550642  0.16028396  0.76850249  1
  O2-  O387  1  0.06974707  0.42472836  0.15307135  1
  O2-  O388  1  0.07135956  0.40767327  0.49193278  1
  O2-  O389  1  0.07061925  0.39560735  0.82860713  1
  O2-  O390  1  0.08096514  0.67600611  0.14595743  1
  O2-  O391  1  0.08137447  0.69966375  0.50394633  1
  O2-  O392  1  0.08249918  0.66255463  0.81605562  1
  O2-  O393  1  0.08075546  0.92015145  0.14589424  1
  O2-  O394  1  0.10156248  0.91558454  0.46265940  1
  O2-  O395  1  0.08692437  0.90928927  0.80977214  1
  O2-  O396  1  0.32983463  0.16014638  0.14123829  1
  O2-  O397  1  0.33108088  0.16772400  0.48735059  1
  O2-  O398  1  0.34838761  0.16708067  0.80209761  1
  O2-  O399  1  0.33315810  0.37217697  0.11297011  1
  O2-  O400  1  0.33063459  0.41399078  0.48295688  1
  O2-  O401  1  0.33591737  0.41751670  0.80894876  1
  O2-  O402  1  0.32243923  0.67001241  0.15535971  1
  O2-  O403  1  0.32200556  0.66854894  0.47404547  1
  O2-  O404  1  0.32443051  0.66397017  0.81892735  1
  O2-  O405  1  0.32880314  0.92008045  0.14782449  1
  O2-  O406  1  0.34326849  0.94222236  0.51511698  1
  O2-  O407  1  0.36492493  0.95566701  0.78161456  1
  O2-  O408  1  0.57773138  0.16748943  0.13484217  1
  O2-  O409  1  0.56850819  0.14976926  0.49560862  1
  O2-  O410  1  0.53638799  0.14341357  0.81825906  1
  O2-  O411  1  0.58960919  0.41684866  0.13882105  1
  O2-  O412  1  0.53330533  0.33089641  0.45861043  1
  O2-  O413  1  0.57546545  0.41961460  0.81034515  1
  O2-  O414  1  0.66180963  0.70841731  0.10408362  1
  O2-  O415  1  0.60041518  0.67587374  0.48222170  1
  O2-  O416  1  0.57838858  0.66419021  0.81787663  1
  O2-  O417  1  0.58579985  0.93232437  0.15477023  1
  O2-  O418  1  0.57814321  0.90980968  0.50813945  1
  O2-  O419  1  0.57625684  0.91702889  0.81438175  1
  O2-  O420  1  0.82862192  0.16440047  0.15488067  1
  O2-  O421  1  0.82836856  0.15875922  0.48470349  1
  O2-  O422  1  0.84873202  0.19602784  0.83028097  1
  O2-  O423  1  0.83092083  0.41999089  0.14638732  1
  O2-  O424  1  0.81698370  0.40833297  0.50353533  1
  O2-  O425  1  0.90628682  0.45080123  0.79646239  1
  O2-  O426  1  0.84195431  0.67204350  0.13388119  1
  O2-  O427  1  0.85835896  0.68271362  0.47443825  1
  O2-  O428  1  0.83899453  0.67404150  0.81847590  1
  O2-  O429  1  0.84077955  0.92072054  0.14621306  1
  O2-  O430  1  0.83854440  0.92072859  0.49950705  1
  O2-  O431  1  0.84637491  0.92949533  0.80057862  1
  O2-  O432  1  0.17447694  0.08921637  0.18996278  1
  O2-  O433  1  0.17688869  0.09101580  0.52531595  1
  O2-  O434  1  0.17680800  0.08322940  0.83652190  1
  O2-  O435  1  0.15946021  0.34910009  0.19104434  1
  O2-  O436  1  0.15981056  0.32689232  0.51197302  1
  O2-  O437  1  0.16474459  0.31868793  0.82319755  1
  O2-  O438  1  0.15657796  0.58948695  0.19174734  1
  O2-  O439  1  0.19563498  0.56380760  0.54001803  1
  O2-  O440  1  0.15524527  0.57078500  0.85711382  1
  O2-  O441  1  0.16719853  0.84175238  0.18709164  1
  O2-  O442  1  0.14669492  0.87161040  0.47467673  1
  O2-  O443  1  0.16382700  0.82070998  0.85378747  1
  O2-  O444  1  0.41607169  0.08333049  0.18878494  1
  O2-  O445  1  0.42309032  0.09471535  0.54614553  1
  O2-  O446  1  0.44810762  0.09503055  0.84286265  1
  O2-  O447  1  0.42515405  0.32654330  0.18220978  1
  O2-  O448  1  0.40597504  0.32725545  0.53110178  1
  O2-  O449  1  0.41409499  0.32838231  0.85185592  1
  O2-  O450  1  0.29660067  0.49364108  0.14531969  1
  O2-  O451  1  0.43316430  0.58325702  0.53401154  1
  O2-  O452  1  0.40879263  0.58104442  0.85628730  1
  O2-  O453  1  0.42506298  0.84884452  0.19053330  1
  O2-  O454  1  0.41615520  0.83910509  0.52417885  1
  O2-  O455  1  0.42141327  0.83402659  0.86772611  1
  O2-  O456  1  0.68565834  0.08664382  0.19692605  1
  O2-  O457  1  0.67040520  0.07411035  0.53181168  1
  O2-  O458  1  0.65274013  0.08489873  0.85372633  1
  O2-  O459  1  0.66594673  0.33313327  0.18533306  1
  O2-  O460  1  0.65468501  0.31222693  0.53164155  1
  O2-  O461  1  0.59046960  0.29116197  0.86466771  1
  O2-  O462  1  0.67859128  0.58842095  0.17330609  1
  O2-  O463  1  0.70778289  0.63061292  0.53327097  1
  O2-  O464  1  0.66676521  0.57954949  0.85542520  1
  O2-  O465  1  0.66905785  0.83900082  0.16965175  1
  O2-  O466  1  0.67082785  0.84118382  0.53033890  1
  O2-  O467  1  0.67307669  0.84535846  0.83367382  1
  O2-  O468  1  0.92870804  0.09455185  0.13838481  1
  O2-  O469  1  0.90989479  0.07827241  0.54680527  1
  O2-  O470  1  0.91617180  0.09238614  0.86451099  1
  O2-  O471  1  0.90832500  0.32961269  0.18838969  1
  O2-  O472  1  0.90956948  0.32638971  0.52950757  1
  O2-  O473  1  1.01612209  0.34762940  0.88067936  1
  O2-  O474  1  0.91239206  0.58538003  0.18136241  1
  O2-  O475  1  0.91329007  0.58652583  0.52579893  1
  O2-  O476  1  0.92798649  0.59635639  0.86097199  1
  O2-  O477  1  0.91966871  0.83591669  0.19228935  1
  O2-  O478  1  0.94999539  0.84528251  0.52336990  1
  O2-  O479  1  0.91740464  0.83777998  0.85761742  1
  O2-  O480  1  0.17191386  0.07132359  0.30376952  1
  O2-  O481  1  0.16941348  0.08085723  0.64649710  1
  O2-  O482  1  0.18127402  0.08023833  0.96769877  1
  O2-  O483  1  0.18257036  0.32254154  0.31115788  1
  O2-  O484  1  0.19358381  0.38396581  0.62894069  1
  O2-  O485  1  0.14451612  0.34560624  0.98466604  1
  O2-  O486  1  0.15902758  0.60659514  0.31022637  1
  O2-  O487  1  0.16296462  0.58494068  0.65582234  1
  O2-  O488  1  0.15759377  0.58293693  0.98320659  1
  O2-  O489  1  0.16785476  0.84097555  0.30612556  1
  O2-  O490  1  0.15857166  0.79525744  0.61589115  1
  O2-  O491  1  0.16524918  0.83014585  0.98240418  1
  O2-  O492  1  0.42740498  0.09151375  0.31470459  1
  O2-  O493  1  0.43411186  0.11035003  0.61291122  1
  O2-  O494  1  0.42238049  0.08133056  0.97329214  1
  O2-  O495  1  0.41734724  0.33414017  0.30873444  1
  O2-  O496  1  0.42338664  0.34848386  0.64922831  1
  O2-  O497  1  0.41857310  0.31251813  0.97838293  1
  O2-  O498  1  0.40921064  0.58011753  0.37014220  1
  O2-  O499  1  0.42189177  0.57411076  0.65580311  1
  O2-  O500  1  0.40169274  0.58124508  0.97954208  1
  O2-  O501  1  0.43403238  0.84551159  0.35594590  1
  O2-  O502  1  0.37414019  0.80511839  0.63984531  1
  O2-  O503  1  0.41247738  0.82795204  0.99283879  1
  O2-  O504  1  0.67489514  0.09035144  0.31791579  1
  O2-  O505  1  0.69345120  0.11381081  0.65538698  1
  O2-  O506  1  0.66184200  0.09924991  0.97828907  1
  O2-  O507  1  0.64730841  0.32239880  0.31527568  1
  O2-  O508  1  0.65941316  0.33524313  0.65504875  1
  O2-  O509  1  0.63946714  0.35086251  0.98485324  1
  O2-  O510  1  0.67197036  0.58755201  0.30422660  1
  O2-  O511  1  0.67278589  0.58611286  0.65907853  1
  O2-  O512  1  0.66431004  0.55581279  0.97408259  1
  O2-  O513  1  0.66780634  0.81640542  0.29261610  1
  O2-  O514  1  0.64305682  0.81482755  0.65222612  1
  O2-  O515  1  0.67084291  0.84874593  1.01955214  1
  O2-  O516  1  0.92144281  0.07719464  0.32145065  1
  O2-  O517  1  0.92108974  0.09271465  0.67340793  1
  O2-  O518  1  0.91544053  0.08909672  0.98367744  1
  O2-  O519  1  0.92530164  0.32366803  0.31847286  1
  O2-  O520  1  0.91546331  0.33713931  0.64900772  1
  O2-  O521  1  0.91020300  0.33157936  0.98882592  1
  O2-  O522  1  0.92095695  0.60366725  0.30777957  1
  O2-  O523  1  0.90890455  0.59331240  0.64596425  1
  O2-  O524  1  0.91842361  0.59640188  0.98071731  1
  O2-  O525  1  0.91833768  0.83830164  0.31595651  1
  O2-  O526  1  0.87748890  0.81234815  0.64888642  1
  O2-  O527  1  0.90883877  0.82175285  0.97815717  1
  O2-  O528  1  0.07568796  0.18381402  0.03503634  1
  O2-  O529  1  0.10369614  0.15605314  0.34190507  1
  O2-  O530  1  0.09333180  0.16480443  0.70169127  1
  O2-  O531  1  0.06834412  0.42422321  0.03251822  1
  O2-  O532  1  0.07646904  0.44876226  0.36650843  1
  O2-  O533  1  0.07735927  0.42434871  0.69266848  1
  O2-  O534  1  0.07765135  0.66954873  0.02184783  1
  O2-  O535  1  0.08517588  0.69140094  0.34041775  1
  O2-  O536  1  0.06676980  0.65760732  0.69462600  1
  O2-  O537  1  0.08136729  0.91354746  0.01893249  1
  O2-  O538  1  0.08759769  0.92406976  0.34767138  1
  O2-  O539  1  0.08692281  0.89740027  0.67593138  1
  O2-  O540  1  0.33501328  0.15230382  0.01918553  1
  O2-  O541  1  0.34059497  0.17242517  0.36306847  1
  O2-  O542  1  0.34286908  0.16630490  0.67705154  1
  O2-  O543  1  0.30795610  0.40695636  -0.01180756  1
  O2-  O544  1  0.33430581  0.41212569  0.35876533  1
  O2-  O545  1  0.34670299  0.41593531  0.69141570  1
  O2-  O546  1  0.32367182  0.66254265  0.03236020  1
  O2-  O547  1  0.32571607  0.67750238  0.35199875  1
  O2-  O548  1  0.33702134  0.65402620  0.69492516  1
  O2-  O549  1  0.33176982  0.92010741  0.02285658  1
  O2-  O550  1  0.33921646  0.93210004  0.35009398  1
  O2-  O551  1  0.36934086  0.96034148  0.66481389  1
  O2-  O552  1  0.58419473  0.18858612  0.01792197  1
  O2-  O553  1  0.57970452  0.15582310  0.36902528  1
  O2-  O554  1  0.57374301  0.16865155  0.68927415  1
  O2-  O555  1  0.59249045  0.38899571  0.01402077  1
  O2-  O556  1  0.58006882  0.41621820  0.34777120  1
  O2-  O557  1  0.57840633  0.42212320  0.68420513  1
  O2-  O558  1  0.57412947  0.63498013  -0.00414961  1
  O2-  O559  1  0.58728382  0.66325259  0.35828910  1
  O2-  O560  1  0.58086964  0.65414114  0.69559262  1
  O2-  O561  1  0.57513801  0.93629022  0.03311944  1
  O2-  O562  1  0.60009558  0.91342632  0.33249031  1
  O2-  O563  1  0.55357116  0.89377147  0.69594478  1
  O2-  O564  1  0.83074261  0.17666545  0.00978498  1
  O2-  O565  1  0.84131457  0.16844056  0.36224187  1
  O2-  O566  1  0.84325811  0.18776928  0.70757770  1
  O2-  O567  1  0.84057373  0.41822036  0.02053579  1
  O2-  O568  1  0.83178123  0.41647720  0.37172774  1
  O2-  O569  1  0.83111376  0.42027265  0.68136120  1
  O2-  O570  1  0.84082034  0.66832937  0.01783466  1
  O2-  O571  1  0.83846529  0.67125607  0.35516388  1
  O2-  O572  1  0.82623679  0.66146031  0.68752000  1
  O2-  O573  1  0.84739843  0.91996633  0.02421315  1
  O2-  O574  1  0.82871380  0.92348733  0.36523464  1
  O2-  O575  1  0.82009724  0.90963098  0.67076492  1
