# generated using pymatgen
data_H2O
_symmetry_space_group_name_H-M   'P 1'
_cell_length_a   17.98142908
_cell_length_b   17.99211324
_cell_length_c   21.99643335
_cell_angle_alpha   89.99885201
_cell_angle_beta   89.97432796
_cell_angle_gamma   119.99988670
_symmetry_Int_Tables_number   1
_chemical_formula_structural   H2O
_chemical_formula_sum   'H384 O192'
_cell_volume   6162.96517904
_cell_formula_units_Z   192
loop_
 _symmetry_equiv_pos_site_id
 _symmetry_equiv_pos_as_xyz
  1  'x, y, z'
loop_
 _atom_type_symbol
 _atom_type_oxidation_number
  H+  1.0
  O2-  -2.0
loop_
 _atom_site_type_symbol
 _atom_site_label
 _atom_site_symmetry_multiplicity
 _atom_site_fract_x
 _atom_site_fract_y
 _atom_site_fract_z
 _atom_site_occupancy
  H+  H0  1  0.12275209  0.51723828  0.65485244  1
  H+  H1  1  0.62138485  0.27259773  0.50717048  1
  H+  H2  1  0.15687391  0.89438566  0.52319980  1
  H+  H3  1  0.61517109  0.90717392  0.87114239  1
  H+  H4  1  0.64084161  0.78742002  0.94734697  1
  H+  H5  1  0.63804594  0.15153557  0.81990083  1
  H+  H6  1  0.10054627  0.97223091  0.01671635  1
  H+  H7  1  0.27000348  0.38890447  0.82881337  1
  H+  H8  1  0.46188688  0.11360609  1.00027115  1
  H+  H9  1  0.42775517  0.00063377  0.51528324  1
  H+  H10  1  0.02282693  0.63399133  0.82703757  1
  H+  H11  1  0.09560739  0.21999503  0.48864681  1
  H+  H12  1  0.86792334  0.25147397  0.50728977  1
  H+  H13  1  1.03064665  0.39923497  0.76204327  1
  H+  H14  1  0.35110195  0.97614517  0.01488694  1
  H+  H15  1  0.62838053  0.23503926  0.81952275  1
  H+  H16  1  0.62664494  0.86056829  0.31222421  1
  H+  H17  1  0.81393105  0.51935933  0.54478832  1
  H+  H18  1  0.20146291  0.35635094  0.66689145  1
  H+  H19  1  0.74523428  0.15048677  0.16180226  1
  H+  H20  1  0.31458243  0.40648358  0.73283484  1
  H+  H21  1  0.36539707  0.65226865  -0.00217643  1
  H+  H22  1  0.36979436  0.11058342  0.00069369  1
  H+  H23  1  0.13952406  0.03219007  0.67273044  1
  H+  H24  1  0.05176071  0.14491909  0.16872336  1
  H+  H25  1  0.63433647  0.42431233  0.66792504  1
  H+  H26  1  0.39047789  0.51813912  0.82691951  1
  H+  H27  1  0.63625062  0.10619869  0.33132594  1
  H+  H28  1  0.53861311  0.14703127  0.16178981  1
  H+  H29  1  0.21107867  0.86333985  0.84753687  1
  H+  H30  1  0.37899880  0.52689292  0.17035705  1
  H+  H31  1  0.96916808  0.57264353  0.69100105  1
  H+  H32  1  0.63370153  0.11367113  0.65886823  1
  H+  H33  1  0.34174452  0.16753318  0.76720824  1
  H+  H34  1  0.85960423  0.72041663  0.84106183  1
  H+  H35  1  0.28599749  0.89015066  0.50359261  1
  H+  H36  1  0.86036380  0.11206940  0.67187739  1
  H+  H37  1  0.48764588  0.11323445  0.66345151  1
  H+  H38  1  0.00240991  0.38332124  0.16404549  1
  H+  H39  1  0.89878982  0.07696067  0.95684169  1
  H+  H40  1  0.97646691  0.10195754  0.32119857  1
  H+  H41  1  0.74534815  0.35897293  0.49976156  1
  H+  H42  1  0.35500723  0.22186895  0.51004468  1
  H+  H43  1  0.85977858  0.89191517  0.15203495  1
  H+  H44  1  0.26484304  0.12593747  0.17407878  1
  H+  H45  1  0.27420057  0.12876734  0.35509278  1
  H+  H46  1  0.33479302  0.40354982  0.38788936  1
  H+  H47  1  0.38165531  0.01053570  0.33550582  1
  H+  H48  1  0.87050977  0.65305649  0.16796054  1
  H+  H49  1  0.77894318  0.88458185  0.66890459  1
  H+  H50  1  0.35702728  0.91417011  0.73914212  1
  H+  H51  1  -0.03722114  0.11722831  0.00886663  1
  H+  H52  1  0.00996895  0.62154212  0.33899278  1
  H+  H53  1  0.06714980  0.67972749  0.64668838  1
  H+  H54  1  0.36333173  0.34614121  0.65979049  1
  H+  H55  1  0.10449775  0.63826942  0.17320111  1
  H+  H56  1  0.11276809  0.21750336  0.33492921  1
  H+  H57  1  0.73417953  0.37978225  0.17110880  1
  H+  H58  1  0.35791639  0.87957363  0.34137838  1
  H+  H59  1  0.62078420  0.39572841  0.16459719  1
  H+  H60  1  0.63909699  0.52515388  0.84390042  1
  H+  H61  1  0.14495801  0.07935230  0.94675629  1
  H+  H62  1  -0.01066292  0.34281161  0.02081037  1
  H+  H63  1  0.39616986  0.51197687  0.31826824  1
  H+  H64  1  0.88604518  1.01328272  0.49917871  1
  H+  H65  1  0.62622451  0.35820416  0.30967106  1
  H+  H66  1  0.86332724  0.12033122  0.34330436  1
  H+  H67  1  0.52155867  0.12778961  0.33637961  1
  H+  H68  1  0.33203566  0.45267502  0.66729789  1
  H+  H69  1  0.87179172  0.51561806  0.33750763  1
  H+  H70  1  0.17787127  0.12426047  0.18421738  1
  H+  H71  1  0.09848939  0.36782957  0.01232618  1
  H+  H72  1  0.20361392  0.46868758  0.39005053  1
  H+  H73  1  -0.03982783  0.34353991  0.66075764  1
  H+  H74  1  0.52125084  0.37744122  0.50497436  1
  H+  H75  1  0.22577501  0.34953766  0.31916436  1
  H+  H76  1  0.61973780  0.62742586  0.83550459  1
  H+  H77  1  0.64590223  0.53949266  0.16443418  1
  H+  H78  1  0.01184593  0.12866929  0.48970406  1
  H+  H79  1  0.20505777  0.11091664  1.00352641  1
  H+  H80  1  0.98525739  0.86142918  0.51403596  1
  H+  H81  1  0.14001342  0.69278493  0.47822621  1
  H+  H82  1  0.37289137  0.74415074  0.50657933  1
  H+  H83  1  0.10932998  0.71771212  0.00362078  1
  H+  H84  1  0.37995640  0.86970312  1.00157359  1
  H+  H85  1  0.09366477  0.38503467  0.16484884  1
  H+  H86  1  0.83621959  0.36897487  0.34561911  1
  H+  H87  1  0.47837986  0.36857720  0.83746176  1
  H+  H88  1  0.84659109  0.97359053  0.15189662  1
  H+  H89  1  0.92134607  0.12035934  0.16901824  1
  H+  H90  1  0.38167289  0.26316726  0.28988615  1
  H+  H91  1  0.33816295  0.21787548  -0.00034493  1
  H+  H92  1  0.87454016  0.09668239  0.50325439  1
  H+  H93  1  0.77434472  0.60343144  0.69678794  1
  H+  H94  1  0.11637639  0.98624397  0.50845122  1
  H+  H95  1  0.14618234  0.11136556  0.33008663  1
  H+  H96  1  0.98944531  0.37481828  0.85963835  1
  H+  H97  1  0.12979105  0.76401921  0.33367098  1
  H+  H98  1  0.38172805  0.61590187  0.17194057  1
  H+  H99  1  0.11299200  0.26875001  0.66797748  1
  H+  H100  1  0.12590630  0.60053049  0.32443645  1
  H+  H101  1  0.12061693  0.97480008  0.35179588  1
  H+  H102  1  0.13460259  0.62056512  0.98201626  1
  H+  H103  1  0.14384399  0.58204271  0.50371660  1
  H+  H104  1  0.63976601  0.62509189  0.16139128  1
  H+  H105  1  0.59470957  0.43712817  0.76701780  1
  H+  H106  1  0.11490958  0.88344654  0.35429422  1
  H+  H107  1  0.67108696  0.04194644  0.84319988  1
  H+  H108  1  0.34146771  0.37894006  0.00302419  1
  H+  H109  1  0.62652957  0.26890450  0.32329164  1
  H+  H110  1  0.75581194  0.11775838  0.49229086  1
  H+  H111  1  0.86988974  0.47649041  0.82661181  1
  H+  H112  1  0.34350584  0.38871631  0.15110592  1
  H+  H113  1  -0.01971111  0.88154684  0.17541242  1
  H+  H114  1  0.51151553  0.13378692  0.49359300  1
  H+  H115  1  0.64727851  0.85937238  0.49820359  1
  H+  H116  1  0.13367085  0.86651003  0.18509841  1
  H+  H117  1  0.63340830  0.12301609  0.98999851  1
  H+  H118  1  0.10737281  0.44283660  0.50459052  1
  H+  H119  1  0.51709771  0.87873724  0.33332084  1
  H+  H120  1  0.58445708  0.68096513  0.05068399  1
  H+  H121  1  0.40855215  0.33016752  0.57254381  1
  H+  H122  1  0.67412093  1.01512155  0.18470095  1
  H+  H123  1  0.02594252  0.14677060  0.84023141  1
  H+  H124  1  0.39113980  0.11808193  0.84784991  1
  H+  H125  1  0.27615278  0.62580795  0.49860186  1
  H+  H126  1  0.12870943  0.98344587  0.16728117  1
  H+  H127  1  0.10552504  0.72721067  0.17914770  1
  H+  H128  1  0.60809620  0.46650124  0.50818347  1
  H+  H129  1  0.35542099  0.62305848  0.81844314  1
  H+  H130  1  0.64192698  0.85332332  0.65686055  1
  H+  H131  1  0.39547332  0.85067780  0.66304494  1
  H+  H132  1  0.22193712  0.86524297  0.18551814  1
  H+  H133  1  0.35733473  0.37137210  0.32554682  1
  H+  H134  1  0.73317679  0.36998155  0.83650385  1
  H+  H135  1  0.87746413  0.60759826  0.34005743  1
  H+  H136  1  0.61583837  0.24426117  0.15629799  1
  H+  H137  1  0.61202796  0.99478732  0.01475785  1
  H+  H138  1  0.87263337  0.27945096  0.96206138  1
  H+  H139  1  0.89047964  0.85681843  0.34357465  1
  H+  H140  1  0.62807605  0.65112631  0.00111067  1
  H+  H141  1  0.22228918  0.11679778  0.52200691  1
  H+  H142  1  0.89618255  0.13036975  0.85565310  1
  H+  H143  1  0.61987100  0.39600280  0.82254423  1
  H+  H144  1  0.72926781  0.61440364  0.84881088  1
  H+  H145  1  0.14407181  1.01217913  0.85005342  1
  H+  H146  1  0.16415830  0.79377904  0.67340635  1
  H+  H147  1  0.41353013  0.83736590  0.26187379  1
  H+  H148  1  0.48589927  0.67014226  0.71253902  1
  H+  H149  1  0.83466295  0.65394759  0.78599018  1
  H+  H150  1  0.89265605  0.77344383  0.51260705  1
  H+  H151  1  0.21409297  0.37919058  0.99918997  1
  H+  H152  1  0.89054143  0.60823552  0.84846303  1
  H+  H153  1  0.64706983  0.62003646  0.31328752  1
  H+  H154  1  0.92253021  0.57335003  0.90260932  1
  H+  H155  1  0.52174595  0.90674868  1.01755258  1
  H+  H156  1  0.63132770  1.01416953  0.33129311  1
  H+  H157  1  0.12574206  0.90072944  0.68698730  1
  H+  H158  1  0.06957930  0.63995389  0.39658913  1
  H+  H159  1  0.39215096  0.36544706  0.50893382  1
  H+  H160  1  0.71228223  0.60878311  0.52233620  1
  H+  H161  1  0.73189164  0.61544806  1.00200201  1
  H+  H162  1  0.36411390  0.47432467  -0.00195400  1
  H+  H163  1  0.98149980  0.69675481  0.57118489  1
  H+  H164  1  0.61150381  0.97126440  0.67483337  1
  H+  H165  1  0.85936281  0.72740164  0.36599976  1
  H+  H166  1  0.85340769  0.53825389  0.52480586  1
  H+  H167  1  0.38662628  0.10535516  0.18763985  1
  H+  H168  1  0.08142430  0.24339573  0.16387367  1
  H+  H169  1  0.13967876  0.61831630  0.83594302  1
  H+  H170  1  0.71927983  0.36474979  0.66336071  1
  H+  H171  1  0.48037599  0.51816427  0.94653890  1
  H+  H172  1  0.88813113  1.01573928  0.65564747  1
  H+  H173  1  0.22975708  0.62466422  0.98070556  1
  H+  H174  1  0.21122590  0.36994564  0.16931045  1
  H+  H175  1  0.61330185  0.23091275  0.67126604  1
  H+  H176  1  0.05167722  0.75876098  0.44690816  1
  H+  H177  1  0.09320785  0.87885812  0.83558693  1
  H+  H178  1  0.37940111  0.77334862  0.31953126  1
  H+  H179  1  0.65049445  0.63821908  0.68935295  1
  H+  H180  1  0.08720363  0.92131740  0.10945840  1
  H+  H181  1  0.31793510  0.64075481  0.75887069  1
  H+  H182  1  0.53087573  0.63465036  0.32262320  1
  H+  H183  1  0.38530311  0.10111619  0.33829247  1
  H+  H184  1  0.82243906  0.07653092  0.19290529  1
  H+  H185  1  0.81222068  0.65849284  0.44101054  1
  H+  H186  1  0.12698727  0.52288256  0.17057641  1
  H+  H187  1  0.83210440  0.62376441  0.50097255  1
  H+  H188  1  0.63237340  0.77141639  0.30841320  1
  H+  H189  1  0.12950591  0.28325707  1.00054680  1
  H+  H190  1  0.37983812  0.84678387  0.51008500  1
  H+  H191  1  0.37118683  0.64559226  0.46999147  1
  H+  H192  1  0.86281128  0.40787293  0.16453855  1
  H+  H193  1  0.70202416  0.20102177  0.13600899  1
  H+  H194  1  0.39088827  0.49701494  0.45958774  1
  H+  H195  1  0.36248190  -0.02523506  0.17013259  1
  H+  H196  1  0.35806014  0.70575566  0.66266749  1
  H+  H197  1  0.86417544  0.60852119  0.69895633  1
  H+  H198  1  0.26618636  0.64551468  0.33279892  1
  H+  H199  1  0.84552613  0.35992495  0.67657983  1
  H+  H200  1  0.60864666  0.72758705  0.15290558  1
  H+  H201  1  0.48215426  0.84789498  0.65867215  1
  H+  H202  1  0.87402598  0.88188213  0.50144225  1
  H+  H203  1  0.39801718  0.33004250  0.23747103  1
  H+  H204  1  0.71860466  0.10599145  0.65528237  1
  H+  H205  1  0.43096244  0.84690546  0.11425242  1
  H+  H206  1  0.90211613  0.87224650  0.66674710  1
  H+  H207  1  0.91759314  0.29318408  0.82391336  1
  H+  H208  1  -0.02564106  0.62041138  0.18550818  1
  H+  H209  1  0.27684810  0.13158252  0.67571991  1
  H+  H210  1  0.73904899  0.86219350  0.49839522  1
  H+  H211  1  0.49345110  0.89958168  0.84713756  1
  H+  H212  1  0.36131339  0.21325361  0.37628801  1
  H+  H213  1  0.45907132  0.37083180  0.15751689  1
  H+  H214  1  0.12687349  0.64471127  0.66865797  1
  H+  H215  1  0.87795163  0.39243524  0.82117134  1
  H+  H216  1  0.12681171  0.77046653  0.84570976  1
  H+  H217  1  0.35500560  0.88290582  0.16183186  1
  H+  H218  1  0.69707205  0.84710074  0.89232841  1
  H+  H219  1  0.26667638  0.87519988  0.34826354  1
  H+  H220  1  0.75514320  0.37995080  0.34732842  1
  H+  H221  1  0.05174085  0.63876160  0.51154774  1
  H+  H222  1  0.63774456  0.73836313  0.47997952  1
  H+  H223  1  0.73338182  0.86429169  0.16639650  1
  H+  H224  1  1.01275472  0.36608576  0.49409185  1
  H+  H225  1  0.65398855  0.73019000  0.68144086  1
  H+  H226  1  0.72166243  0.36266740  -0.00598787  1
  H+  H227  1  0.34835659  0.99088203  0.83546435  1
  H+  H228  1  0.54145797  0.89532092  0.16609450  1
  H+  H229  1  0.09780108  0.77788304  0.43765655  1
  H+  H230  1  0.50600345  0.60507234  0.97995909  1
  H+  H231  1  0.51690081  0.39066971  0.29690294  1
  H+  H232  1  0.35867770  0.38570475  0.82378572  1
  H+  H233  1  0.60494812  0.22695055  -0.00136752  1
  H+  H234  1  0.29675324  0.88849182  0.68227676  1
  H+  H235  1  0.67245965  0.82590192  0.59658093  1
  H+  H236  1  0.62963280  0.35568418  -0.00789031  1
  H+  H237  1  0.85000175  0.28754756  0.16854237  1
  H+  H238  1  1.03240062  0.89449466  0.68057174  1
  H+  H239  1  0.01879369  0.13305157  0.67664158  1
  H+  H240  1  0.37524583  0.27175845  0.15213026  1
  H+  H241  1  0.86278990  0.49782117  0.16480609  1
  H+  H242  1  0.42576987  0.60522522  0.39129880  1
  H+  H243  1  0.21740206  0.60087493  0.65634965  1
  H+  H244  1  0.36388870  0.73978334  0.00291641  1
  H+  H245  1  0.79461245  0.16107205  0.83267120  1
  H+  H246  1  0.51919955  0.63954044  0.15353001  1
  H+  H247  1  0.13987059  0.28266140  0.84313533  1
  H+  H248  1  0.77809087  0.25231282  0.29149238  1
  H+  H249  1  0.11174386  0.14290283  0.68228214  1
  H+  H250  1  0.37933105  0.26656091  0.65932043  1
  H+  H251  1  0.42265835  0.56065627  0.60133005  1
  H+  H252  1  0.61012067  0.47922378  0.29988021  1
  H+  H253  1  0.57435792  0.42357855  0.20847368  1
  H+  H254  1  0.88524962  0.51329927  0.99485148  1
  H+  H255  1  0.78353717  0.07853668  0.71841628  1
  H+  H256  1  0.65872698  0.54855271  0.61926676  1
  H+  H257  1  0.52005837  0.29259518  1.05699800  1
  H+  H258  1  0.76704326  0.86760710  -0.01463679  1
  H+  H259  1  0.49246558  0.63533021  0.44597034  1
  H+  H260  1  -0.04025731  0.86916631  0.82920387  1
  H+  H261  1  0.26367329  0.63294425  0.15668548  1
  H+  H262  1  0.28112237  0.95491389  0.78179236  1
  H+  H263  1  0.78411089  0.65611691  0.15850073  1
  H+  H264  1  0.34033753  0.61029751  0.65139498  1
  H+  H265  1  0.28438829  0.13898686  0.82809113  1
  H+  H266  1  0.14639990  0.52319022  0.33148789  1
  H+  H267  1  0.24799542  0.38127172  0.51490791  1
  H+  H268  1  0.52436434  0.86763091  0.49026800  1
  H+  H269  1  0.64329408  0.86753923  0.16626544  1
  H+  H270  1  0.36531922  0.12880479  0.67100566  1
  H+  H271  1  0.45123102  0.34325553  0.99525765  1
  H+  H272  1  0.10568130  0.14967038  0.01542097  1
  H+  H273  1  0.97032301  0.84499543  0.99796500  1
  H+  H274  1  0.40507101  1.01961384  0.66552935  1
  H+  H275  1  0.84158005  0.35270390  0.49853962  1
  H+  H276  1  0.84327093  0.36966914  0.02104418  1
  H+  H277  1  0.59136030  0.06585257  0.51676117  1
  H+  H278  1  0.10885561  0.88658875  0.01605593  1
  H+  H279  1  0.09926173  0.37374944  0.66781161  1
  H+  H280  1  0.22637242  0.60934650  0.83348030  1
  H+  H281  1  0.47939178  0.62995882  0.69748932  1
  H+  H282  1  0.61978756  0.59811915  0.53208250  1
  H+  H283  1  0.87872506  0.03588240  0.85145187  1
  H+  H284  1  0.40728002  0.90098201  0.84817551  1
  H+  H285  1  0.87077453  0.71445851  0.00455064  1
  H+  H286  1  0.88781380  0.82496726  0.78049047  1
  H+  H287  1  0.77435118  0.64035813  0.34213482  1
  H+  H288  1  0.16798097  0.34742981  0.89866708  1
  H+  H289  1  0.15827522  0.33820411  0.23261576  1
  H+  H290  1  0.59691388  0.17393992  0.73162973  1
  H+  H291  1  0.96128498  0.60937617  0.60212369  1
  H+  H292  1  0.89703932  0.31086222  0.56687744  1
  H+  H293  1  0.82414341  0.42068669  0.07223394  1
  H+  H294  1  0.19447201  0.86236016  0.61924425  1
  H+  H295  1  0.84400657  0.66361751  0.06772566  1
  H+  H296  1  0.57856911  0.17378026  0.06094300  1
  H+  H297  1  0.87688018  0.82974466  0.98673557  1
  H+  H298  1  0.32166657  0.68398054  0.39263690  1
  H+  H299  1  0.65002112  0.06247833  0.56693836  1
  H+  H300  1  0.84753198  0.24105920  0.32575328  1
  H+  H301  1  0.14938577  0.80508804  0.53228642  1
  H+  H302  1  0.13186331  0.11560530  0.51479850  1
  H+  H303  1  0.88804471  0.60345298  0.99598335  1
  H+  H304  1  0.72602786  0.13197165  0.99542256  1
  H+  H305  1  0.39869080  0.18298022  0.12994789  1
  H+  H306  1  0.87476872  0.25166931  0.66428855  1
  H+  H307  1  0.82446535  0.39908685  0.73645998  1
  H+  H308  1  0.80829705  0.21168344  0.07074507  1
  H+  H309  1  0.84794070  0.90359084  0.82240796  1
  H+  H310  1  0.21674076  0.85947333  1.00142744  1
  H+  H311  1  0.49639052  0.20480070  0.46196727  1
  H+  H312  1  0.33230480  0.50464947  0.57080128  1
  H+  H313  1  0.85423764  0.17796641  0.77418358  1
  H+  H314  1  0.52368041  0.62499617  0.82125553  1
  H+  H315  1  0.08111937  0.15846209  0.39438443  1
  H+  H316  1  0.59715851  0.67863906  0.37827479  1
  H+  H317  1  0.32410538  0.14799365  0.46018779  1
  H+  H318  1  0.32189287  0.66064023  0.09567372  1
  H+  H319  1  0.16406262  0.08988513  0.61264638  1
  H+  H320  1  0.07951454  0.92059656  0.77522977  1
  H+  H321  1  0.41426160  0.81699519  0.57242634  1
  H+  H322  1  0.43109528  0.57603266  0.88567883  1
  H+  H323  1  -0.02945359  0.86131273  0.37800209  1
  H+  H324  1  0.90649934  0.58482043  0.24121667  1
  H+  H325  1  0.90844118  0.07747876  0.26600990  1
  H+  H326  1  0.42130695  0.07745794  0.24353799  1
  H+  H327  1  0.66508458  0.83586876  0.24181336  1
  H+  H328  1  0.41804481  0.58245480  0.26672856  1
  H+  H329  1  0.60707195  0.96002589  0.49100612  1
  H+  H330  1  0.81218909  0.38966202  0.43598380  1
  H+  H331  1  0.07819719  0.17386819  0.77855263  1
  H+  H332  1  0.59392450  0.93283813  0.10389776  1
  H+  H333  1  0.17429652  0.56717822  0.56750550  1
  H+  H334  1  0.37933401  0.76544144  0.15460261  1
  H+  H335  1  0.40281664  0.07789830  0.91010494  1
  H+  H336  1  0.68417246  0.59933715  0.25489333  1
  H+  H337  1  0.45762926  0.06019075  0.57511833  1
  H+  H338  1  0.59058574  0.91159341  0.73306786  1
  H+  H339  1  0.16406978  0.57722145  0.23140180  1
  H+  H340  1  0.39136852  0.27775506  0.83624604  1
  H+  H341  1  0.89263369  0.79123626  0.17316081  1
  H+  H342  1  0.85866448  0.89320991  0.43448090  1
  H+  H343  1  0.10889218  0.41627065  0.41338942  1
  H+  H344  1  0.70142629  0.07242542  0.24534199  1
  H+  H345  1  0.09707937  0.92583320  0.44896175  1
  H+  H346  1  0.68627226  0.10331645  0.89945408  1
  H+  H347  1  0.08367086  0.67214481  0.76777659  1
  H+  H348  1  0.22060828  0.03735910  0.89452590  1
  H+  H349  1  0.42241998  0.85316877  0.94264735  1
  H+  H350  1  0.66240612  0.67296133  0.45008742  1
  H+  H351  1  0.66953920  0.34039569  0.89330272  1
  H+  H352  1  0.15577211  0.83065453  0.94255128  1
  H+  H353  1  0.31979897  0.17016940  0.06438970  1
  H+  H354  1  0.77098310  0.11491163  0.34596407  1
  H+  H355  1  0.17125470  0.59297332  0.91028520  1
  H+  H356  1  0.88650806  0.88363532  0.25154164  1
  H+  H357  1  0.91612564  0.07644782  0.59609436  1
  H+  H358  1  0.05560779  0.39525353  0.07824100  1
  H+  H359  1  0.40643464  0.33035332  0.92982300  1
  H+  H360  1  0.31514933  0.42382674  0.09529478  1
  H+  H361  1  0.63379101  0.36647998  0.51076100  1
  H+  H362  1  0.57769983  0.90083190  0.39270348  1
  H+  H363  1  0.61039285  0.67121030  0.76984960  1
  H+  H364  1  0.55743754  0.38669398  0.07826083  1
  H+  H365  1  0.14528776  0.35885416  0.33117479  1
  H+  H366  1  0.88885269  0.32655459  0.23250829  1
  H+  H367  1  0.82171107  0.14811033  0.43598396  1
  H+  H368  1  0.93201041  0.83864700  0.61095371  1
  H+  H369  1  0.88276225  0.95361870  0.29492256  1
  H+  H370  1  0.66147254  0.34023868  0.60368712  1
  H+  H371  1  0.81518778  0.89079792  0.04876677  1
  H+  H372  1  0.67225385  0.58722503  0.94376481  1
  H+  H373  1  0.32187908  0.91631651  0.07408920  1
  H+  H374  1  0.67240315  0.33829265  0.22975712  1
  H+  H375  1  0.88021100  0.49111290  0.67142776  1
  H+  H376  1  1.02411061  0.62519367  0.99938831  1
  H+  H377  1  0.57459437  0.17038015  0.39502125  1
  H+  H378  1  0.16184497  0.83052991  0.27828997  1
  H+  H379  1  0.07213434  0.18553334  0.07074202  1
  H+  H380  1  0.83160995  0.92595148  0.72984714  1
  H+  H381  1  0.67569679  0.91797188  0.81826966  1
  H+  H382  1  0.19012569  0.08507289  0.27651378  1
  H+  H383  1  0.33549445  0.90213012  0.43949782  1
  O2-  O384  1  0.03918983  0.18475991  0.14732840  1
  O2-  O385  1  0.07349426  0.16099551  0.47514691  1
  O2-  O386  1  0.08472719  0.17989458  0.82319880  1
  O2-  O387  1  0.06163854  0.41193590  0.14615020  1
  O2-  O388  1  0.07332815  0.38812015  0.48260176  1
  O2-  O389  1  0.08483422  0.43607898  0.73963654  1
  O2-  O390  1  0.07032311  0.66663090  0.16598965  1
  O2-  O391  1  0.08927761  0.63572594  0.47923474  1
  O2-  O392  1  0.08406035  0.66913664  0.81253638  1
  O2-  O393  1  0.08906373  0.92323980  0.15541283  1
  O2-  O394  1  0.09410498  0.92503995  0.49468808  1
  O2-  O395  1  0.07089825  0.91642267  0.82065518  1
  O2-  O396  1  0.34678340  0.18635808  0.13554424  1
  O2-  O397  1  0.32247169  0.15820750  0.50394908  1
  O2-  O398  1  0.34405256  0.17383239  0.81265136  1
  O2-  O399  1  0.31383285  0.42174534  0.14068777  1
  O2-  O400  1  0.35307623  0.43418150  0.46833878  1
  O2-  O401  1  0.32991857  0.41746943  0.80924040  1
  O2-  O402  1  0.32461397  0.66350366  0.14088887  1
  O2-  O403  1  0.33419551  0.67108453  0.48038419  1
  O2-  O404  1  0.31886344  0.64586995  0.80357663  1
  O2-  O405  1  0.32504012  0.91574329  0.15381271  1
  O2-  O406  1  0.34152372  0.90142940  0.48510886  1
  O2-  O407  1  0.30872825  0.93497070  0.81054197  1
  O2-  O408  1  0.59143600  0.18502351  0.13872533  1
  O2-  O409  1  0.53989556  0.18796986  0.46728697  1
  O2-  O410  1  0.60561053  0.17708421  0.80161973  1
  O2-  O411  1  0.58439293  0.42401194  0.16347276  1
  O2-  O412  1  0.58271648  0.40783380  0.49141706  1
  O2-  O413  1  0.58868996  0.42744999  0.81157077  1
  O2-  O414  1  0.57847472  0.66835910  0.13635589  1
  O2-  O415  1  0.61285814  0.67941505  0.45969336  1
  O2-  O416  1  0.58939227  0.65795164  0.81538829  1
  O2-  O417  1  0.60047895  0.92440449  0.14999659  1
  O2-  O418  1  0.58261873  0.90065757  0.47305172  1
  O2-  O419  1  0.62820548  0.93390849  0.83059589  1
  O2-  O420  1  0.75817710  0.20341082  0.13757669  1
  O2-  O421  1  0.81761328  0.14784706  0.48168916  1
  O2-  O422  1  0.85657281  0.19117039  0.81787637  1
  O2-  O423  1  0.83216275  0.43679359  0.14775785  1
  O2-  O424  1  0.80933032  0.38287280  0.48239701  1
  O2-  O425  1  0.83929301  0.41560694  0.81133017  1
  O2-  O426  1  0.84640212  0.68660702  0.14827336  1
  O2-  O427  1  0.81012908  0.66100353  0.48727116  1
  O2-  O428  1  0.83319789  0.65838023  0.83199287  1
  O2-  O429  1  0.82065945  0.91325471  0.13760722  1
  O2-  O430  1  0.84565410  0.90659291  0.47534829  1
  O2-  O431  1  0.82212025  0.93783646  0.80655369  1
  O2-  O432  1  0.20689289  0.09320549  0.19655883  1
  O2-  O433  1  0.15913379  0.08538671  0.53404011  1
  O2-  O434  1  0.19188180  0.06262183  0.87213626  1
  O2-  O435  1  0.15195651  0.34145935  0.18746466  1
  O2-  O436  1  0.28481091  0.44112349  0.50216916  1
  O2-  O437  1  0.17520414  0.34523121  0.85468018  1
  O2-  O438  1  0.16424421  0.58204079  0.18609276  1
  O2-  O439  1  0.18154454  0.56242221  0.52221343  1
  O2-  O440  1  0.16764927  0.58724590  0.85356034  1
  O2-  O441  1  0.16292829  0.83650722  0.20300021  1
  O2-  O442  1  0.18938998  0.86560871  0.54019249  1
  O2-  O443  1  0.15116618  0.82944954  0.86319755  1
  O2-  O444  1  0.42320236  0.08108101  0.19780884  1
  O2-  O445  1  0.47728268  0.05139546  0.53400971  1
  O2-  O446  1  0.40516848  0.07536145  0.86495052  1
  O2-  O447  1  0.39771643  0.33702793  0.16811620  1
  O2-  O448  1  0.41492623  0.33023499  0.52581321  1
  O2-  O449  1  0.41816694  0.33776648  0.85276829  1
  O2-  O450  1  0.41277151  0.58648991  0.18692079  1
  O2-  O451  1  0.43060300  0.60631116  0.43639619  1
  O2-  O452  1  0.42695738  0.58023355  0.84073360  1
  O2-  O453  1  0.41598835  0.83072404  0.15687922  1
  O2-  O454  1  0.40938683  0.81348984  0.52527608  1
  O2-  O455  1  0.43618025  0.87234767  0.86565193  1
  O2-  O456  1  0.72196226  0.06785281  0.20413314  1
  O2-  O457  1  0.64143972  0.05768411  0.52166864  1
  O2-  O458  1  0.69532149  0.10392070  0.85449120  1
  O2-  O459  1  0.67205350  0.34362611  0.18455974  1
  O2-  O460  1  0.66268101  0.33076074  0.52364465  1
  O2-  O461  1  0.67138975  0.34314374  0.84807626  1
  O2-  O462  1  0.67507749  0.60048187  0.17759206  1
  O2-  O463  1  0.65508999  0.57255346  0.54245248  1
  O2-  O464  1  0.66649468  0.58532388  0.86040737  1
  O2-  O465  1  0.67051615  0.83423737  0.18339456  1
  O2-  O466  1  0.67806629  0.82946584  0.51297407  1
  O2-  O467  1  0.72921370  0.87591238  0.81403420  1
  O2-  O468  1  0.87506175  0.07130835  0.19113656  1
  O2-  O469  1  0.91175328  0.07270843  0.51597023  1
  O2-  O470  1  0.91713823  0.09211074  0.87051788  1
  O2-  O471  1  0.89840260  0.33917818  0.18831200  1
  O2-  O472  1  0.89540513  0.31269011  0.52145800  1
  O2-  O473  1  0.95368679  0.35817976  0.82328085  1
  O2-  O474  1  0.91015291  0.59023835  0.19622997  1
  O2-  O475  1  1.00416348  0.65778332  0.57535547  1
  O2-  O476  1  0.92259356  0.57700262  0.85676332  1
  O2-  O477  1  0.91770472  0.85322058  0.18458594  1
  O2-  O478  1  0.92500919  0.83193930  0.52997846  1
  O2-  O479  1  0.89581699  0.83780171  0.82388606  1
  O2-  O480  1  0.18152683  0.08345456  0.32140894  1
  O2-  O481  1  0.17001470  0.09290161  0.65788790  1
  O2-  O482  1  0.14272910  0.08212518  0.99155664  1
  O2-  O483  1  0.16349912  0.32260240  0.30826658  1
  O2-  O484  1  0.14074831  0.32909462  0.65187662  1
  O2-  O485  1  0.15180271  0.34571119  0.98742043  1
  O2-  O486  1  0.16362480  0.57795829  0.30969860  1
  O2-  O487  1  0.15752522  0.57750638  0.63977460  1
  O2-  O488  1  0.17064604  0.59337966  0.96358065  1
  O2-  O489  1  0.16279679  0.82636510  0.32407916  1
  O2-  O490  1  0.19503413  0.85662613  0.66436969  1
  O2-  O491  1  0.15563371  0.82962164  0.98791449  1
  O2-  O492  1  0.41366657  0.07107118  0.31989462  1
  O2-  O493  1  0.42884150  0.07628557  0.64522362  1
  O2-  O494  1  0.40001211  0.07873650  0.98862721  1
  O2-  O495  1  0.40230974  0.32409938  0.28410060  1
  O2-  O496  1  0.40026735  0.32490621  0.64249970  1
  O2-  O497  1  0.39561540  0.32518471  0.97500916  1
  O2-  O498  1  0.42827388  0.57490382  0.31052397  1
  O2-  O499  1  0.36145736  0.53777051  0.60805737  1
  O2-  O500  1  0.45469836  0.55262642  0.95866819  1
  O2-  O501  1  0.41515972  0.83644009  0.30625184  1
  O2-  O502  1  0.42205448  0.81934029  0.64246171  1
  O2-  O503  1  0.41423411  0.84263914  0.98754583  1
  O2-  O504  1  0.66773477  0.07579128  0.31938857  1
  O2-  O505  1  0.65726564  0.07618961  0.64374027  1
  O2-  O506  1  0.66833557  0.09652549  0.97715675  1
  O2-  O507  1  0.66186573  0.32969200  0.30910971  1
  O2-  O508  1  0.65981839  0.34556916  0.64860187  1
  O2-  O509  1  0.66377661  0.33229087  0.97391930  1
  O2-  O510  1  0.67875348  0.59049299  0.30020923  1
  O2-  O511  1  0.66883070  0.54845394  0.66413262  1
  O2-  O512  1  0.67118023  0.59242755  0.98843808  1
  O2-  O513  1  0.65850645  0.83292006  0.29354094  1
  O2-  O514  1  0.67407758  0.82561393  0.64168614  1
  O2-  O515  1  0.67326193  0.84712957  0.93330837  1
  O2-  O516  1  0.91428359  0.07113328  0.31060083  1
  O2-  O517  1  0.91614140  0.07744765  0.64144490  1
  O2-  O518  1  0.90117511  0.08010160  1.00154947  1
  O2-  O519  1  0.83807289  0.28526574  0.30432006  1
  O2-  O520  1  0.89825841  0.30934253  0.64693508  1
  O2-  O521  1  0.88065089  0.29183613  1.00586057  1
  O2-  O522  1  0.90430560  0.57545480  0.32213255  1
  O2-  O523  1  0.91903243  0.55568722  0.66507221  1
  O2-  O524  1  0.91752678  0.57261602  0.97854304  1
  O2-  O525  1  0.90721349  0.83375372  0.38051793  1
  O2-  O526  1  0.93687517  0.84539803  0.65570912  1
  O2-  O527  1  0.91611629  0.80700843  0.97650300  1
  O2-  O528  1  0.08481001  0.19009040  0.02652386  1
  O2-  O529  1  0.08474036  0.15654097  0.34923941  1
  O2-  O530  1  0.07647236  0.16896539  0.69498949  1
  O2-  O531  1  0.05062992  0.38427000  0.03162628  1
  O2-  O532  1  0.14470436  0.43941689  0.37485242  1
  O2-  O533  1  0.06428693  0.40849035  0.67580904  1
  O2-  O534  1  0.08657443  0.65522338  0.00968756  1
  O2-  O535  1  0.07169229  0.64896888  0.35220492  1
  O2-  O536  1  0.10264248  0.68213615  0.68184261  1
  O2-  O537  1  0.07729977  0.91384297  0.03434806  1
  O2-  O538  1  0.09099100  0.91807835  0.37235948  1
  O2-  O539  1  0.09220403  0.92810765  0.69959841  1
  O2-  O540  1  0.31090532  0.15967607  0.01867575  1
  O2-  O541  1  0.33352255  0.15095749  0.37366459  1
  O2-  O542  1  0.33821542  0.15981447  0.68934386  1
  O2-  O543  1  0.32035008  0.41838562  0.01615362  1
  O2-  O544  1  0.33091597  0.40415686  0.34293302  1
  O2-  O545  1  0.30495046  0.39643024  0.68781236  1
  O2-  O546  1  0.33192589  0.67651873  0.01463127  1
  O2-  O547  1  0.32627714  0.68186544  0.34832603  1
  O2-  O548  1  0.32010508  0.64464423  0.67385412  1
  O2-  O549  1  0.32306803  0.91483129  0.02874529  1
  O2-  O550  1  0.32819077  0.90651081  0.36268982  1
  O2-  O551  1  0.35838707  0.91035333  0.69433760  1
  O2-  O552  1  0.57187272  0.16748612  0.01579967  1
  O2-  O553  1  0.58230619  0.16335968  0.35090696  1
  O2-  O554  1  0.59051739  0.17077069  0.68495316  1
  O2-  O555  1  0.54045031  0.35050353  0.04156292  1
  O2-  O556  1  0.57898653  0.41728248  0.28764165  1
  O2-  O557  1  0.60924889  0.45979979  0.68399686  1
  O2-  O558  1  0.58954000  0.67730530  0.00613877  1
  O2-  O559  1  0.59361250  0.67469343  0.33328982  1
  O2-  O560  1  0.65078209  0.68659778  0.71057584  1
  O2-  O561  1  0.57821065  0.94046572  0.03777673  1
  O2-  O562  1  0.57834406  0.90542721  0.34740539  1
  O2-  O563  1  0.58640669  0.91024906  0.68846773  1
  O2-  O564  1  0.83023753  0.20388309  0.03035218  1
  O2-  O565  1  0.83197339  0.14939217  0.35981691  1
  O2-  O566  1  0.82129688  0.12953711  0.69450912  1
  O2-  O567  1  0.82040819  0.40882324  0.02727503  1
  O2-  O568  1  0.81465217  0.40464605  0.36512881  1
  O2-  O569  1  0.82008939  0.39518833  0.69071418  1
  O2-  O570  1  0.83936012  0.65385014  0.02303662  1
  O2-  O571  1  0.82714652  0.66246634  0.36784800  1
  O2-  O572  1  0.83281744  0.63697132  0.71369860  1
  O2-  O573  1  0.80471921  0.85647781  0.01181148  1
  O2-  O574  1  0.86082965  0.89173090  0.28926488  1
  O2-  O575  1  0.83846232  0.91946549  0.68523722  1
