# generated using pymatgen
data_H2O
_symmetry_space_group_name_H-M   'P 1'
_cell_length_a   17.97397137
_cell_length_b   17.98318797
_cell_length_c   21.97435731
_cell_angle_alpha   90.01014251
_cell_angle_beta   89.98971151
_cell_angle_gamma   119.99885970
_symmetry_Int_Tables_number   1
_chemical_formula_structural   H2O
_chemical_formula_sum   'H384 O192'
_cell_volume   6151.23789873
_cell_formula_units_Z   192
loop_
 _symmetry_equiv_pos_site_id
 _symmetry_equiv_pos_as_xyz
  1  'x, y, z'
loop_
 _atom_type_symbol
 _atom_type_oxidation_number
  H+  1.0
  O2-  -2.0
loop_
 _atom_site_type_symbol
 _atom_site_label
 _atom_site_symmetry_multiplicity
 _atom_site_fract_x
 _atom_site_fract_y
 _atom_site_fract_z
 _atom_site_occupancy
  H+  H0  1  0.89886923  0.28173154  0.52188063  1
  H+  H1  1  0.87192747  0.38825472  -0.00465098  1
  H+  H2  1  0.64794267  0.79279815  0.81888268  1
  H+  H3  1  0.13933871  0.76799449  -0.00458529  1
  H+  H4  1  0.60894120  0.22129364  0.16073861  1
  H+  H5  1  0.39806251  0.32554103  0.56332908  1
  H+  H6  1  0.62285704  0.77800110  0.50680380  1
  H+  H7  1  0.14838167  0.51919678  0.98661664  1
  H+  H8  1  0.38987257  0.22055673  0.82860917  1
  H+  H9  1  0.38984366  0.26542844  0.99112500  1
  H+  H10  1  0.36258550  0.12800430  0.33920123  1
  H+  H11  1  0.38454083  0.35732478  0.32978918  1
  H+  H12  1  0.10361828  0.37613898  0.13447816  1
  H+  H13  1  0.11364372  0.85157997  0.50782031  1
  H+  H14  1  0.52474012  0.63529583  0.15620224  1
  H+  H15  1  0.06811334  0.39709348  0.78938053  1
  H+  H16  1  1.02360733  0.61356168  0.16965528  1
  H+  H17  1  0.13953668  0.85650446  0.66764443  1
  H+  H18  1  0.14269062  0.60816309  0.20850432  1
  H+  H19  1  0.36560828  0.47667445  0.33666385  1
  H+  H20  1  0.37803145  0.12493460  0.83265927  1
  H+  H21  1  0.00117208  0.85840293  -0.01194758  1
  H+  H22  1  0.13353368  0.92620716  0.83961766  1
  H+  H23  1  0.34224454  0.71236673  0.78936631  1
  H+  H24  1  0.63484977  0.03028082  0.65534598  1
  H+  H25  1  0.65171664  0.82809043  0.91372124  1
  H+  H26  1  0.38347023  0.52264237  0.18274079  1
  H+  H27  1  0.88389791  0.02340445  0.17261264  1
  H+  H28  1  0.81863479  0.41686461  0.76631877  1
  H+  H29  1  0.83409825  0.13280320  0.56208143  1
  H+  H30  1  0.20089023  0.17348479  0.84955224  1
  H+  H31  1  0.12602517  0.15011945  0.66894650  1
  H+  H32  1  1.01765467  0.14892505  0.33350349  1
  H+  H33  1  0.72513209  0.36434943  0.65781653  1
  H+  H34  1  0.72809430  0.86502088  0.17045676  1
  H+  H35  1  0.15327451  0.99645200  0.01987128  1
  H+  H36  1  0.13325186  0.29313603  0.32291292  1
  H+  H37  1  0.21165033  0.87363344  0.50989669  1
  H+  H38  1  0.22948168  0.59721033  0.82197998  1
  H+  H39  1  0.17091883  0.33056384  1.03749981  1
  H+  H40  1  0.36685553  0.65715292  0.49820977  1
  H+  H41  1  0.64932994  0.46307634  0.84565635  1
  H+  H42  1  0.11394370  0.64281744  0.33157780  1
  H+  H43  1  0.95296399  -0.01265221  0.50599943  1
  H+  H44  1  0.10778556  0.37180543  0.84490280  1
  H+  H45  1  -0.02407740  0.86161502  0.31626075  1
  H+  H46  1  0.39843897  0.63734364  -0.00656908  1
  H+  H47  1  0.13435898  1.02553039  0.18618127  1
  H+  H48  1  0.63991082  0.34913653  1.00031770  1
  H+  H49  1  0.63491986  0.11991051  0.66231730  1
  H+  H50  1  0.50999696  0.65775627  0.52097065  1
  H+  H51  1  0.47170011  0.10073636  0.32856753  1
  H+  H52  1  0.39235115  0.77410299  0.65030813  1
  H+  H53  1  0.53202433  0.67129164  0.80932220  1
  H+  H54  1  0.35460260  0.47127798  0.48955627  1
  H+  H55  1  0.33965966  0.74038413  0.02379904  1
  H+  H56  1  0.88957768  0.28045963  0.66363126  1
  H+  H57  1  0.36924842  0.99429979  0.49326585  1
  H+  H58  1  -0.02679847  0.62591655  0.32199868  1
  H+  H59  1  0.03873250  0.13920305  0.50286930  1
  H+  H60  1  0.34225808  0.15338401  0.73902087  1
  H+  H61  1  0.43369924  0.33930712  0.75019479  1
  H+  H62  1  0.62062304  0.66856352  0.80973344  1
  H+  H63  1  0.03258494  0.89256776  0.68392687  1
  H+  H64  1  0.21893819  0.58450158  0.68099816  1
  H+  H65  1  0.89062963  0.52409067  -0.01002887  1
  H+  H66  1  0.63964567  0.11884439  0.83707687  1
  H+  H67  1  0.11688110  0.40265103  0.33281863  1
  H+  H68  1  1.01234366  0.37664441  0.68061075  1
  H+  H69  1  0.36232399  0.13280026  1.00937250  1
  H+  H70  1  0.38040897  0.78167914  0.49742234  1
  H+  H71  1  0.86018172  0.39092505  0.67371981  1
  H+  H72  1  1.03228324  0.89143652  0.16374461  1
  H+  H73  1  0.88049344  0.51808167  0.17026024  1
  H+  H74  1  0.12358741  0.25915740  0.84865992  1
  H+  H75  1  0.63624306  0.02098961  0.99046755  1
  H+  H76  1  0.50094888  0.85804852  0.81480416  1
  H+  H77  1  0.87175011  0.76808333  0.63043520  1
  H+  H78  1  0.60137796  0.88104512  -0.00173411  1
  H+  H79  1  0.84711207  -0.02750681  0.65543359  1
  H+  H80  1  0.37862273  0.27508464  0.17479316  1
  H+  H81  1  0.88482492  0.11311694  0.16866746  1
  H+  H82  1  0.38785149  1.01990588  -0.00201521  1
  H+  H83  1  0.86210575  0.98302867  0.00132470  1
  H+  H84  1  0.07331930  0.41680399  0.08597572  1
  H+  H85  1  0.61414807  0.51264492  0.93666219  1
  H+  H86  1  0.23155064  0.10849088  0.34139214  1
  H+  H87  1  0.37264602  0.88904127  0.16336146  1
  H+  H88  1  0.84417338  0.88078616  0.65281033  1
  H+  H89  1  0.10267547  0.73943942  0.84459023  1
  H+  H90  1  0.37151038  0.13606927  0.67399813  1
  H+  H91  1  0.63654807  0.11053776  0.16919035  1
  H+  H92  1  0.86702923  0.23351970  0.83932945  1
  H+  H93  1  0.86545324  0.22768271  0.15223934  1
  H+  H94  1  0.51506384  0.88041898  0.84506164  1
  H+  H95  1  0.46942191  0.85452391  -0.00540521  1
  H+  H96  1  0.33378675  0.91200084  0.76593027  1
  H+  H97  1  1.02571321  0.63483334  1.00748936  1
  H+  H98  1  0.14704997  0.03182639  0.65999797  1
  H+  H99  1  0.84070279  0.83798793  0.97752330  1
  H+  H100  1  0.24436457  0.64252293  0.01658579  1
  H+  H101  1  0.52432187  0.13892835  0.67282923  1
  H+  H102  1  0.88671447  0.60988287  0.16503525  1
  H+  H103  1  0.13472409  0.26480757  0.13285065  1
  H+  H104  1  0.86581621  0.64759143  0.33142850  1
  H+  H105  1  0.14665660  0.51199297  0.84553771  1
  H+  H106  1  0.37791598  0.87037037  0.50006247  1
  H+  H107  1  0.86652217  0.88841430  0.15711194  1
  H+  H108  1  0.38758297  0.61281990  0.17288250  1
  H+  H109  1  0.99347228  0.89031565  1.00494153  1
  H+  H110  1  0.90920153  0.92688733  0.44905854  1
  H+  H111  1  0.28746733  0.74241599  0.87490515  1
  H+  H112  1  0.78123492  0.39092372  0.49034321  1
  H+  H113  1  0.64967488  0.37683234  0.50286030  1
  H+  H114  1  0.39775425  0.57287752  0.58192275  1
  H+  H115  1  0.14934302  0.53739605  0.49872730  1
  H+  H116  1  0.00248751  0.13176450  0.82204104  1
  H+  H117  1  0.63774370  0.52492606  0.32820441  1
  H+  H118  1  0.13626848  0.76951816  0.32410302  1
  H+  H119  1  0.64318065  0.56823733  0.81217414  1
  H+  H120  1  0.28888263  0.39915036  0.23023510  1
  H+  H121  1  0.25439550  0.37138798  0.80474427  1
  H+  H122  1  0.89882793  0.61680215  0.65019274  1
  H+  H123  1  0.52358447  0.38608185  0.34156622  1
  H+  H124  1  0.71985527  0.99918951  0.76355429  1
  H+  H125  1  0.58556551  0.41995877  0.39952197  1
  H+  H126  1  0.63484525  0.87721788  0.64544944  1
  H+  H127  1  0.26418461  0.37227565  -0.00819468  1
  H+  H128  1  0.38980568  0.02059338  0.65693716  1
  H+  H129  1  0.25812892  0.13121901  0.83915058  1
  H+  H130  1  0.22529493  0.37560110  0.32712003  1
  H+  H131  1  0.60961277  0.45673962  0.01611447  1
  H+  H132  1  0.55957090  0.11817601  0.50531818  1
  H+  H133  1  0.76849469  0.90437306  0.00992117  1
  H+  H134  1  0.89036752  0.11206960  0.64908133  1
  H+  H135  1  0.91827615  0.07305403  0.49627270  1
  H+  H136  1  0.63639116  0.52235768  0.17505156  1
  H+  H137  1  0.88357919  0.77787704  0.31765073  1
  H+  H138  1  0.26441913  0.38445507  0.49488416  1
  H+  H139  1  0.16495224  0.13833445  0.50590859  1
  H+  H140  1  0.62624060  0.59650175  0.97430216  1
  H+  H141  1  0.52678626  0.13217702  0.82757785  1
  H+  H142  1  0.14225112  0.09872348  0.36106766  1
  H+  H143  1  0.13732056  0.11527663  0.99107677  1
  H+  H144  1  -0.02081548  0.35946950  0.87671075  1
  H+  H145  1  0.72152016  0.35487013  0.17260502  1
  H+  H146  1  0.13946961  0.86094872  0.32513661  1
  H+  H147  1  0.86940069  0.38885382  0.49404108  1
  H+  H148  1  0.66707327  0.08266975  0.22804671  1
  H+  H149  1  0.36718426  0.88710954  0.67186317  1
  H+  H150  1  0.97497106  0.35953464  0.16025520  1
  H+  H151  1  0.13002641  0.27351305  0.66205160  1
  H+  H152  1  0.77373911  0.64434384  0.33748341  1
  H+  H153  1  0.19070638  0.87493055  0.91606252  1
  H+  H154  1  0.39080511  1.00510220  0.17301335  1
  H+  H155  1  0.14762574  0.62468999  0.49653896  1
  H+  H156  1  0.74418785  0.87226617  0.82916046  1
  H+  H157  1  0.28216661  0.90555529  0.82845036  1
  H+  H158  1  0.11733077  0.39432959  0.48870974  1
  H+  H159  1  0.38661631  0.26850548  0.33117927  1
  H+  H160  1  0.37944730  0.23067902  0.48946803  1
  H+  H161  1  0.51897712  0.37099720  0.00769621  1
  H+  H162  1  0.88624099  0.61088954  -0.00880264  1
  H+  H163  1  0.97666923  0.11335599  0.98536256  1
  H+  H164  1  0.86731593  0.98348978  0.81323940  1
  H+  H165  1  0.90099324  0.52423334  0.49688772  1
  H+  H166  1  -0.01741037  0.80350287  0.46413263  1
  H+  H167  1  0.59971916  -0.01694182  0.49617086  1
  H+  H168  1  0.86684396  0.23975196  0.32578023  1
  H+  H169  1  0.11411357  0.72840068  0.48833645  1
  H+  H170  1  0.39217211  0.63326719  0.81243087  1
  H+  H171  1  0.61111685  0.49190144  0.49242777  1
  H+  H172  1  0.00865337  0.89783411  0.47737756  1
  H+  H173  1  0.49362755  0.51970018  0.65956330  1
  H+  H174  1  0.12893525  0.38662734  -0.00757617  1
  H+  H175  1  0.40764260  0.49330050  0.96009555  1
  H+  H176  1  0.89307086  0.26967393  0.97295946  1
  H+  H177  1  0.50318382  0.35547547  0.85095332  1
  H+  H178  1  0.64424642  0.52037312  0.64257436  1
  H+  H179  1  0.83242534  0.70764701  0.99260020  1
  H+  H180  1  0.72335998  0.12130770  0.32421987  1
  H+  H181  1  0.53053051  0.61396204  -0.01031134  1
  H+  H182  1  0.88985820  0.77566514  0.16433726  1
  H+  H183  1  0.92844783  0.85174631  0.58901707  1
  H+  H184  1  0.47513745  0.60874405  0.33175593  1
  H+  H185  1  0.88446302  0.12000784  0.32393215  1
  H+  H186  1  0.22116239  0.35485800  0.14416617  1
  H+  H187  1  0.13451852  0.59357844  0.67180827  1
  H+  H188  1  0.34126075  0.36750278  0.71463030  1
  H+  H189  1  0.97713712  0.36788187  0.31901781  1
  H+  H190  1  0.27542056  0.13702591  0.00738941  1
  H+  H191  1  0.91653219  0.83422834  0.22447376  1
  H+  H192  1  0.89171819  0.61902638  0.83442726  1
  H+  H193  1  0.10877895  0.16643440  0.31298769  1
  H+  H194  1  0.87482239  -0.10316913  0.34384476  1
  H+  H195  1  0.76313872  0.36221540  0.34042848  1
  H+  H196  1  0.78684961  0.63889110  0.66072578  1
  H+  H197  1  0.23106628  0.85530483  0.00198003  1
  H+  H198  1  0.61738246  0.97512887  0.15470246  1
  H+  H199  1  0.36848506  0.63547880  0.33492121  1
  H+  H200  1  0.63339465  0.35861639  0.64743503  1
  H+  H201  1  0.62946048  0.35601310  0.32776991  1
  H+  H202  1  0.48638575  0.86362401  0.16550367  1
  H+  H203  1  0.91952494  0.33270712  0.22286517  1
  H+  H204  1  1.01680019  0.13071431  0.15573799  1
  H+  H205  1  0.55882056  0.15907379  0.40213011  1
  H+  H206  1  0.89615701  0.87363954  0.82577765  1
  H+  H207  1  0.35501938  0.59741381  0.99273478  1
  H+  H208  1  0.64432609  0.60746144  0.65483311  1
  H+  H209  1  0.86075419  0.47919980  0.66835673  1
  H+  H210  1  0.62918783  0.87127927  0.50184427  1
  H+  H211  1  0.33925550  0.67080427  0.39216681  1
  H+  H212  1  0.57973282  0.66393931  0.71614573  1
  H+  H213  1  0.33461721  0.66549826  0.72518488  1
  H+  H214  1  0.70888833  0.63987437  0.50021692  1
  H+  H215  1  0.55974839  0.77484719  0.94024067  1
  H+  H216  1  0.38820850  0.35310929  0.98393216  1
  H+  H217  1  0.02872346  0.63535884  0.48687793  1
  H+  H218  1  0.27912069  0.64511549  0.18143061  1
  H+  H219  1  0.09631829  0.18386613  0.43954823  1
  H+  H220  1  0.66628340  0.91875640  0.80557842  1
  H+  H221  1  0.04047968  0.38986301  -0.01702397  1
  H+  H222  1  0.86065443  0.38126124  0.15777139  1
  H+  H223  1  0.61425035  0.21804796  0.01113442  1
  H+  H224  1  0.11092970  0.47049334  0.68736623  1
  H+  H225  1  0.76199399  0.61170824  -0.00276193  1
  H+  H226  1  0.59760794  0.22169734  0.34324440  1
  H+  H227  1  0.00250327  0.58958333  0.81652092  1
  H+  H228  1  0.39878783  1.01355319  0.84273677  1
  H+  H229  1  0.11185416  0.63142734  1.00400297  1
  H+  H230  1  0.36542254  0.88618260  1.01270831  1
  H+  H231  1  0.61133986  0.12794744  0.00836188  1
  H+  H232  1  0.26222153  0.86712367  0.33293188  1
  H+  H233  1  0.85388815  0.69825770  0.41872431  1
  H+  H234  1  0.10528010  0.12968610  0.16004930  1
  H+  H235  1  0.63389709  0.12177029  0.32702319  1
  H+  H236  1  0.69593649  0.12032407  0.51158323  1
  H+  H237  1  0.60322628  0.63061896  0.34974277  1
  H+  H238  1  0.39443099  0.65426927  0.60260499  1
  H+  H239  1  0.63737085  0.61172303  0.17141623  1
  H+  H240  1  0.74094524  0.90364041  0.33718314  1
  H+  H241  1  0.13977996  0.27832413  0.50767764  1
  H+  H242  1  0.11313049  0.96594014  0.34390188  1
  H+  H243  1  0.11865654  0.71298120  0.67483570  1
  H+  H244  1  0.77439811  0.14803873  0.67322580  1
  H+  H245  1  0.21237343  0.36459318  0.67398046  1
  H+  H246  1  0.29004736  0.14345108  0.49511353  1
  H+  H247  1  0.98245672  0.60659916  0.65383397  1
  H+  H248  1  0.52407754  0.40019073  0.49331834  1
  H+  H249  1  0.51069835  0.89942984  0.34047582  1
  H+  H250  1  0.77644137  0.13849588  0.15195817  1
  H+  H251  1  0.84956013  0.47447396  0.82613330  1
  H+  H252  1  0.24612552  0.97224085  0.89921206  1
  H+  H253  1  0.38429173  1.00855852  0.32552714  1
  H+  H254  1  0.52047534  0.88995017  0.66310021  1
  H+  H255  1  0.87742164  0.11675409  0.83666841  1
  H+  H256  1  0.98689483  0.37116125  0.50908777  1
  H+  H257  1  0.63167358  0.37761524  0.87411792  1
  H+  H258  1  0.60936234  0.70948111  0.99533952  1
  H+  H259  1  0.88126544  -0.01319761  0.35213287  1
  H+  H260  1  0.37846780  0.36236251  0.50410528  1
  H+  H261  1  0.63930023  0.77679122  0.17121875  1
  H+  H262  1  0.77611380  0.13923922  -0.00120810  1
  H+  H263  1  0.79126653  0.65995699  0.80907476  1
  H+  H264  1  0.61359290  0.22937564  0.67182902  1
  H+  H265  1  0.59029135  0.64335198  0.50846284  1
  H+  H266  1  0.12375444  1.00637520  0.82674796  1
  H+  H267  1  0.08266641  0.11858368  0.81793769  1
  H+  H268  1  0.27560133  0.64766100  0.48528526  1
  H+  H269  1  0.64123705  0.26387468  0.84605740  1
  H+  H270  1  0.60363087  1.00148360  0.34241646  1
  H+  H271  1  0.82681507  0.66185972  0.09406359  1
  H+  H272  1  0.78098877  0.38156731  1.00385790  1
  H+  H273  1  0.15896360  0.88190067  0.17709068  1
  H+  H274  1  0.77529416  0.15095368  0.83086743  1
  H+  H275  1  0.34607009  0.83260425  0.84507499  1
  H+  H276  1  0.23958814  0.62674903  0.30943367  1
  H+  H277  1  0.51265509  0.89231216  0.49115851  1
  H+  H278  1  0.48588572  0.10689095  0.17421839  1
  H+  H279  1  0.39996572  0.76936692  0.32151964  1
  H+  H280  1  0.41142183  0.12958848  0.50105604  1
  H+  H281  1  0.51167153  0.38030570  0.66130941  1
  H+  H282  1  0.19061888  0.10294041  0.56381453  1
  H+  H283  1  0.09374168  0.59245193  0.81772098  1
  H+  H284  1  0.88190355  0.35710084  0.32036119  1
  H+  H285  1  0.77374436  0.63628724  0.15631956  1
  H+  H286  1  0.51849393  0.38274189  0.16799292  1
  H+  H287  1  0.08201076  0.76676304  0.84213724  1
  H+  H288  1  0.42224499  0.07125948  0.23734111  1
  H+  H289  1  0.64378514  0.08598536  0.57123197  1
  H+  H290  1  0.07484012  0.63697045  0.72665088  1
  H+  H291  1  0.91688306  0.07687465  0.58695987  1
  H+  H292  1  0.57611179  0.40456243  0.10834266  1
  H+  H293  1  0.34372391  0.16245239  0.40157226  1
  H+  H294  1  0.58653428  0.45793870  0.75823740  1
  H+  H295  1  0.91412301  0.08713265  0.26642018  1
  H+  H296  1  0.33911439  0.91951110  0.07226213  1
  H+  H297  1  0.66561295  0.59340051  0.56205483  1
  H+  H298  1  0.28127055  0.89398724  0.16726396  1
  H+  H299  1  0.83574068  0.92092529  0.09969960  1
  H+  H300  1  0.67301530  0.31833849  0.94236628  1
  H+  H301  1  0.66660378  0.08307076  0.93203540  1
  H+  H302  1  0.57878557  0.15935120  0.10114751  1
  H+  H303  1  0.42458647  0.07273793  0.90424557  1
  H+  H304  1  0.43138521  0.83465336  0.22750956  1
  H+  H305  1  0.07668164  0.15767303  0.05680455  1
  H+  H306  1  0.67477694  0.33801093  0.55855650  1
  H+  H307  1  0.56730830  0.93826931  0.40945360  1
  H+  H308  1  0.43675957  0.67951499  0.87200686  1
  H+  H309  1  0.27646409  0.88457195  0.67262592  1
  H+  H310  1  0.09485273  0.92809919  0.74037591  1
  H+  H311  1  0.29751554  0.66980628  0.63018231  1
  H+  H312  1  0.68497519  0.87707745  0.27882818  1
  H+  H313  1  0.32643893  0.17292120  0.10561926  1
  H+  H314  1  0.91403905  0.59358729  0.26313806  1
  H+  H315  1  0.18572013  0.84353375  0.23260220  1
  H+  H316  1  0.17801650  0.09404564  0.93338348  1
  H+  H317  1  0.33037120  0.41481635  0.39494023  1
  H+  H318  1  0.66388599  0.84616283  0.57558723  1
  H+  H319  1  0.65857579  0.04027737  0.83055172  1
  H+  H320  1  0.90739623  0.08099529  0.89357898  1
  H+  H321  1  0.58180825  0.91302418  0.06208439  1
  H+  H322  1  0.30259528  0.67693126  0.08854500  1
  H+  H323  1  0.16595105  0.31912361  0.90747509  1
  H+  H324  1  0.91448718  0.58579478  0.89652783  1
  H+  H325  1  0.88868051  0.11680596  0.98684794  1
  H+  H326  1  0.38707357  0.85061401  0.31479769  1
  H+  H327  1  0.26704689  0.14653723  0.16494717  1
  H+  H328  1  0.83873977  0.17374803  0.05626474  1
  H+  H329  1  0.85162707  0.68151937  0.71629282  1
  H+  H330  1  0.93087011  0.58116870  0.55691687  1
  H+  H331  1  0.65518797  0.32031709  0.26885546  1
  H+  H332  1  0.87241903  0.81080969  0.91861464  1
  H+  H333  1  0.42670885  0.08422692  0.59895344  1
  H+  H334  1  0.93041426  0.34654861  0.60665500  1
  H+  H335  1  0.42333267  0.32112759  0.89175530  1
  H+  H336  1  0.41579664  0.32909986  0.23703093  1
  H+  H337  1  0.31739624  0.94477183  0.43574467  1
  H+  H338  1  0.83475447  0.77514642  0.51760125  1
  H+  H339  1  0.08722939  0.66973350  0.39465433  1
  H+  H340  1  0.58423940  0.16805434  0.76635153  1
  H+  H341  1  0.56384891  0.48349740  0.75538812  1
  H+  H342  1  0.56536097  0.65674577  0.40676680  1
  H+  H343  1  0.88264462  0.74297564  0.81271005  1
  H+  H344  1  0.08541069  0.42503785  0.43018387  1
  H+  H345  1  0.63261326  0.35583553  0.17534084  1
  H+  H346  1  0.34244287  0.42016627  0.04121445  1
  H+  H347  1  0.83253946  0.18544156  0.38675294  1
  H+  H348  1  0.06703428  0.89008699  0.39371830  1
  H+  H349  1  0.43959888  0.56310710  0.90665589  1
  H+  H350  1  0.16707481  0.34224974  0.56607757  1
  H+  H351  1  0.66476407  0.58596742  0.27016599  1
  H+  H352  1  0.11071209  0.93504667  0.11485511  1
  H+  H353  1  0.18771707  0.58821365  0.93142810  1
  H+  H354  1  0.82931725  0.39691371  0.39637863  1
  H+  H355  1  0.39560630  0.81436357  0.94050696  1
  H+  H356  1  0.55004754  0.39762711  0.59378487  1
  H+  H357  1  0.16205394  0.08764166  0.24386645  1
  H+  H358  1  0.61899807  0.88611968  0.15533043  1
  H+  H359  1  0.59667550  0.92752004  0.71583713  1
  H+  H360  1  0.83814582  0.92215833  0.75311051  1
  H+  H361  1  0.11368878  0.22409115  1.00045261  1
  H+  H362  1  0.09121408  0.64067847  0.11692272  1
  H+  H363  1  0.58354724  0.66065578  0.09669158  1
  H+  H364  1  0.38973962  0.26965867  0.69879692  1
  H+  H365  1  0.32116438  0.86158304  0.38565397  1
  H+  H366  1  0.84036689  0.13703031  0.49215098  1
  H+  H367  1  0.72584641  0.87347829  0.64665313  1
  H+  H368  1  0.35257093  0.38144438  0.19014187  1
  H+  H369  1  0.15035660  0.90607680  0.02364561  1
  H+  H370  1  0.10659384  0.37226546  0.68021527  1
  H+  H371  1  0.16182135  0.82835202  0.60517560  1
  H+  H372  1  0.36773485  0.73156569  0.16566368  1
  H+  H373  1  0.47721673  0.10854650  0.99666036  1
  H+  H374  1  0.23722315  0.11743826  0.66451822  1
  H+  H375  1  0.08285381  0.17126792  0.72471377  1
  H+  H376  1  0.11269716  0.48851515  0.33039404  1
  H+  H377  1  0.67426939  0.60897386  0.87808695  1
  H+  H378  1  0.83429883  0.17946934  0.73248259  1
  H+  H379  1  0.83244240  0.41207266  0.09922972  1
  H+  H380  1  0.42137999  0.58528054  0.26838145  1
  H+  H381  1  0.42059839  0.84723023  0.59781533  1
  H+  H382  1  0.73162017  0.35577387  0.84497600  1
  H+  H383  1  0.98639356  0.87960396  0.83837408  1
  O2-  O384  1  0.07516781  0.15491933  0.13713059  1
  O2-  O385  1  0.10272555  0.18494863  0.48392785  1
  O2-  O386  1  0.06481107  0.16033095  0.80833591  1
  O2-  O387  1  0.07067760  0.40678972  0.13023253  1
  O2-  O388  1  0.08550679  0.42378388  0.47565450  1
  O2-  O389  1  0.07639625  0.40332455  0.83378215  1
  O2-  O390  1  0.08426805  0.62998803  0.16091704  1
  O2-  O391  1  0.09022392  0.67070603  0.46980802  1
  O2-  O392  1  0.04864667  0.59019376  0.79108947  1
  O2-  O393  1  0.09597330  0.92716834  0.15963060  1
  O2-  O394  1  0.03517716  0.86115239  0.46630313  1
  O2-  O395  1  0.09714102  0.94464191  0.81695065  1
  O2-  O396  1  0.32718860  0.17955796  0.15039861  1
  O2-  O397  1  0.35182948  0.16927102  0.47798961  1
  O2-  O398  1  0.35122181  0.15834569  0.81597531  1
  O2-  O399  1  0.31685558  0.41098700  0.19042347  1
  O2-  O400  1  0.32552774  0.41109944  0.47735074  1
  O2-  O401  1  0.31128837  0.41026013  0.78622402  1
  O2-  O402  1  0.32913104  0.66962002  0.15294859  1
  O2-  O403  1  0.33904034  0.68069959  0.47171444  1
  O2-  O404  1  0.32518994  0.65583190  0.77188032  1
  O2-  O405  1  0.34577097  0.92361720  0.15008754  1
  O2-  O406  1  0.32593310  0.93546397  0.47836321  1
  O2-  O407  1  0.33641179  0.91176045  0.81176291  1
  O2-  O408  1  0.57821265  0.15936895  0.14709535  1
  O2-  O409  1  0.52499914  0.14068972  0.48483347  1
  O2-  O410  1  0.58697648  0.16577269  0.81191543  1
  O2-  O411  1  0.57960518  0.41051369  0.15343684  1
  O2-  O412  1  0.58529684  0.42958535  0.48153252  1
  O2-  O413  1  0.61062947  0.42103767  0.87505126  1
  O2-  O414  1  0.58554737  0.66531176  0.14172178  1
  O2-  O415  1  0.56146902  0.67591471  0.49510808  1
  O2-  O416  1  0.59059823  0.69656254  0.79044095  1
  O2-  O417  1  0.58706035  0.91511363  0.13847307  1
  O2-  O418  1  0.57436477  0.92490923  0.47651397  1
  O2-  O419  1  0.66301881  0.96541213  0.78169065  1
  O2-  O420  1  0.83599665  0.16719550  0.13551161  1
  O2-  O421  1  0.82448544  0.16065425  0.52634968  1
  O2-  O422  1  0.83648742  0.17938313  0.81586849  1
  O2-  O423  1  0.82724709  0.40956756  0.14423720  1
  O2-  O424  1  0.84144736  0.41760721  0.47366265  1
  O2-  O425  1  0.81725679  0.41416188  0.81140597  1
  O2-  O426  1  0.83320824  0.66636365  0.13917032  1
  O2-  O427  1  0.87139760  0.71500993  0.46347296  1
  O2-  O428  1  0.85161037  0.68278053  0.79629979  1
  O2-  O429  1  0.83512699  0.91934013  0.14492197  1
  O2-  O430  1  0.93976098  0.93029461  0.48731487  1
  O2-  O431  1  0.84207256  0.92284986  0.79863458  1
  O2-  O432  1  0.15997552  0.08760748  0.19908800  1
  O2-  O433  1  0.19787588  0.10993533  0.51908869  1
  O2-  O434  1  0.19792119  0.11788381  0.85229836  1
  O2-  O435  1  0.16596760  0.32696767  0.12176519  1
  O2-  O436  1  0.16977078  0.34185884  0.52106312  1
  O2-  O437  1  0.16029105  0.31947205  0.86264753  1
  O2-  O438  1  0.18693339  0.59543481  0.22767070  1
  O2-  O439  1  0.18250739  0.59866405  0.51054622  1
  O2-  O440  1  0.18177022  0.57561191  0.85188498  1
  O2-  O441  1  0.19501671  0.85599586  0.18825423  1
  O2-  O442  1  0.15375835  0.83435245  0.52612586  1
  O2-  O443  1  0.21072292  0.91630250  0.88012965  1
  O2-  O444  1  0.42446669  0.07050764  0.19099586  1
  O2-  O445  1  0.44039802  0.09578971  0.51527510  1
  O2-  O446  1  0.42649758  0.07380536  0.85831910  1
  O2-  O447  1  0.41273300  0.33602205  0.19220148  1
  O2-  O448  1  0.41291145  0.33644665  0.52030909  1
  O2-  O449  1  0.43948722  0.32085034  0.84821950  1
  O2-  O450  1  0.42085398  0.58608295  0.18780704  1
  O2-  O451  1  0.41268246  0.62961390  0.56691409  1
  O2-  O452  1  0.43536035  0.63722910  0.84359551  1
  O2-  O453  1  0.42583228  0.83443049  0.18220185  1
  O2-  O454  1  0.41107910  0.84282785  0.51301845  1
  O2-  O455  1  0.34759905  0.78408065  0.86691234  1
  O2-  O456  1  0.66812299  0.08089977  0.18292165  1
  O2-  O457  1  0.63621143  0.08442426  0.52531228  1
  O2-  O458  1  0.67385903  0.09312836  0.85435887  1
  O2-  O459  1  0.66103663  0.32256748  0.18826961  1
  O2-  O460  1  0.67960818  0.34540014  0.51381430  1
  O2-  O461  1  0.67436903  0.31998181  0.86773242  1
  O2-  O462  1  0.66871889  0.58354727  0.18834289  1
  O2-  O463  1  0.65306253  0.59547696  0.51778997  1
  O2-  O464  1  0.67916061  0.62259704  0.83338540  1
  O2-  O465  1  0.66707706  0.83775273  0.18417418  1
  O2-  O466  1  0.65842457  0.84108019  0.51862948  1
  O2-  O467  1  0.68233952  0.84919544  0.84118602  1
  O2-  O468  1  0.91448863  0.08425755  0.18748203  1
  O2-  O469  1  0.96059770  0.07867217  0.52626081  1
  O2-  O470  1  0.90520393  0.08197397  0.84783234  1
  O2-  O471  1  0.91433882  0.32918642  0.17756683  1
  O2-  O472  1  0.92969210  0.34393658  0.53051418  1
  O2-  O473  1  0.91832458  0.32632453  0.89162205  1
  O2-  O474  1  0.91437012  0.57918239  0.18352933  1
  O2-  O475  1  0.93591561  0.58428976  0.51199707  1
  O2-  O476  1  0.91159053  0.58069611  0.85118573  1
  O2-  O477  1  0.92003035  0.83648974  0.17873457  1
  O2-  O478  1  0.80635512  0.73724536  0.48232995  1
  O2-  O479  1  0.92350516  0.84222533  0.84400943  1
  O2-  O480  1  0.16823793  0.07865533  0.33093838  1
  O2-  O481  1  0.17853523  0.09236491  0.64653438  1
  O2-  O482  1  0.17292388  0.08899492  0.97812530  1
  O2-  O483  1  0.16766097  0.35318800  0.30837420  1
  O2-  O484  1  0.15634099  0.33817336  0.65215114  1
  O2-  O485  1  0.17252334  0.32966830  0.99227822  1
  O2-  O486  1  0.17874870  0.60049329  0.29411012  1
  O2-  O487  1  0.15889002  0.55368826  0.66765723  1
  O2-  O488  1  0.17872927  0.58391093  0.97645502  1
  O2-  O489  1  0.17179714  0.83175820  0.31071345  1
  O2-  O490  1  0.16852374  0.82670039  0.65030936  1
  O2-  O491  1  0.17306494  0.82989693  0.98278983  1
  O2-  O492  1  0.41204417  0.06820691  0.31013437  1
  O2-  O493  1  0.42082770  0.08237715  0.64378818  1
  O2-  O494  1  0.41728315  0.07892051  0.97978556  1
  O2-  O495  1  0.41745402  0.32897367  0.31624373  1
  O2-  O496  1  0.41932363  0.33359374  0.70663975  1
  O2-  O497  1  0.42292330  0.32499091  0.97356274  1
  O2-  O498  1  0.41442530  0.57937029  0.31346844  1
  O2-  O499  1  0.48600217  0.56460679  0.67866975  1
  O2-  O500  1  0.45902092  0.54393079  0.94193166  1
  O2-  O501  1  0.42870285  0.83072040  0.30555795  1
  O2-  O502  1  0.42270396  0.84243870  0.64265721  1
  O2-  O503  1  0.40609553  0.82227007  0.98529170  1
  O2-  O504  1  0.66154355  0.08916858  0.31133230  1
  O2-  O505  1  0.66640694  0.09237963  0.64347790  1
  O2-  O506  1  0.66777865  0.08233713  0.97761335  1
  O2-  O507  1  0.65163472  0.31752641  0.31423681  1
  O2-  O508  1  0.66535007  0.32772193  0.64111351  1
  O2-  O509  1  0.67274301  0.32043460  0.98826805  1
  O2-  O510  1  0.66535438  0.58631971  0.31555394  1
  O2-  O511  1  0.67955525  0.58348081  0.63717073  1
  O2-  O512  1  0.65614910  0.56988087  0.95193084  1
  O2-  O513  1  0.69225416  0.90552941  0.31820263  1
  O2-  O514  1  0.66569368  0.84698430  0.62871534  1
  O2-  O515  1  0.61944281  0.80795115  0.95357985  1
  O2-  O516  1  0.91854730  0.09273256  0.31185600  1
  O2-  O517  1  0.87058713  0.06486592  0.61980671  1
  O2-  O518  1  0.91508144  0.08291329  0.97103263  1
  O2-  O519  1  0.91802212  0.33254494  0.30210862  1
  O2-  O520  1  0.92622491  0.34323862  0.65247504  1
  O2-  O521  1  0.92646043  0.33131913  0.95848310  1
  O2-  O522  1  0.91338039  0.60168354  0.30783767  1
  O2-  O523  1  0.92193789  0.57862855  0.63874460  1
  O2-  O524  1  0.92061610  0.58504710  0.97584990  1
  O2-  O525  1  0.91602389  0.83827175  0.30134092  1
  O2-  O526  1  0.87223137  0.81686886  0.60778149  1
  O2-  O527  1  0.83356725  0.78802522  0.95413187  1
  O2-  O528  1  0.07872439  0.16030645  0.01134420  1
  O2-  O529  1  0.08099454  0.18112330  0.34520604  1
  O2-  O530  1  0.09301940  0.17891853  0.68043975  1
  O2-  O531  1  0.09890498  0.42225015  0.00018291  1
  O2-  O532  1  0.08387471  0.43058670  0.34871762  1
  O2-  O533  1  0.07398253  0.40249839  0.69977985  1
  O2-  O534  1  0.08623195  0.66335036  0.02270045  1
  O2-  O535  1  0.08502966  0.67238762  0.34870910  1
  O2-  O536  1  0.08673398  0.64999539  0.68152994  1
  O2-  O537  1  0.15470637  0.95424867  0.04790712  1
  O2-  O538  1  0.08057949  0.90258003  0.34909636  1
  O2-  O539  1  0.09318379  0.92113880  0.69492726  1
  O2-  O540  1  0.33572952  0.16685883  0.02318765  1
  O2-  O541  1  0.33593061  0.16048243  0.35607959  1
  O2-  O542  1  0.34092340  0.16305289  0.69417516  1
  O2-  O543  1  0.33355944  0.40467775  -0.00175138  1
  O2-  O544  1  0.33304375  0.41455796  0.34988704  1
  O2-  O545  1  0.29887823  0.38709417  0.72155778  1
  O2-  O546  1  0.28859033  0.69221465  0.04600550  1
  O2-  O547  1  0.34079289  0.67057480  0.34658178  1
  O2-  O548  1  0.34754589  0.68138189  0.65468089  1
  O2-  O549  1  0.33599606  0.91750395  0.02670864  1
  O2-  O550  1  0.32557647  0.89174017  0.34769733  1
  O2-  O551  1  0.33703086  0.91778739  0.68788631  1
  O2-  O552  1  0.57994323  0.15649790  0.02499654  1
  O2-  O553  1  0.56800449  0.15957270  0.35768820  1
  O2-  O554  1  0.58415240  0.16951985  0.68929458  1
  O2-  O555  1  0.57768116  0.39622832  0.02769329  1
  O2-  O556  1  0.58524648  0.41683761  0.35428708  1
  O2-  O557  1  0.56601774  0.40823421  0.63671776  1
  O2-  O558  1  0.58615672  0.65127440  0.01234032  1
  O2-  O559  1  0.56578898  0.65404027  0.36209479  1
  O2-  O560  1  0.57393811  0.63921601  0.67428617  1
  O2-  O561  1  0.57484913  0.91285180  0.01640624  1
  O2-  O562  1  0.55433065  0.95089339  0.36571803  1
  O2-  O563  1  0.58529549  0.92303787  0.67141535  1
  O2-  O564  1  0.83815981  0.17233385  0.01055914  1
  O2-  O565  1  0.83053410  0.17785145  0.34282997  1
  O2-  O566  1  0.83522315  0.18020447  0.68736291  1
  O2-  O567  1  0.84312920  0.41648481  0.01515648  1
  O2-  O568  1  0.82387441  0.38510265  0.35177774  1
  O2-  O569  1  0.82647121  0.41893438  0.68461757  1
  O2-  O570  1  0.81974310  0.65202990  0.01288169  1
  O2-  O571  1  0.83586671  0.67931563  0.34834770  1
  O2-  O572  1  0.84880485  0.67687351  0.67087333  1
  O2-  O573  1  0.82842649  0.92326837  0.01877305  1
  O2-  O574  1  0.85672760  0.92932845  0.37089617  1
  O2-  O575  1  0.82144797  0.91380749  0.67506644  1
