# generated using pymatgen
data_H2O
_symmetry_space_group_name_H-M   'P 1'
_cell_length_a   17.99279212
_cell_length_b   17.99125448
_cell_length_c   22.00671583
_cell_angle_alpha   90.01113579
_cell_angle_beta   89.99314478
_cell_angle_gamma   120.02546447
_symmetry_Int_Tables_number   1
_chemical_formula_structural   H2O
_chemical_formula_sum   'H384 O192'
_cell_volume   6167.85807460
_cell_formula_units_Z   192
loop_
 _symmetry_equiv_pos_site_id
 _symmetry_equiv_pos_as_xyz
  1  'x, y, z'
loop_
 _atom_type_symbol
 _atom_type_oxidation_number
  H+  1.0
  O2-  -2.0
loop_
 _atom_site_type_symbol
 _atom_site_label
 _atom_site_symmetry_multiplicity
 _atom_site_fract_x
 _atom_site_fract_y
 _atom_site_fract_z
 _atom_site_occupancy
  H+  H0  1  0.39004975  0.11389863  0.65858430  1
  H+  H1  1  0.28929121  0.14472451  0.67197195  1
  H+  H2  1  0.86682030  0.39018014  0.49542730  1
  H+  H3  1  0.21923287  0.35842724  0.50003865  1
  H+  H4  1  0.13766125  0.34876195  0.83836334  1
  H+  H5  1  0.86646108  0.47940573  0.49620035  1
  H+  H6  1  0.63879975  1.02392440  0.17167767  1
  H+  H7  1  0.36407819  0.64171040  0.15475692  1
  H+  H8  1  0.34282596  0.16527958  0.73358511  1
  H+  H9  1  0.10677723  0.14626331  0.48867520  1
  H+  H10  1  0.37273024  0.98532354  0.82231345  1
  H+  H11  1  0.40882287  0.87852307  0.83135066  1
  H+  H12  1  0.77206797  0.39321211  0.34083461  1
  H+  H13  1  0.11662333  0.46798326  0.98842040  1
  H+  H14  1  0.29001494  0.64730953  0.81923108  1
  H+  H15  1  0.29254102  0.90258766  0.66339418  1
  H+  H16  1  0.37276014  1.01728876  0.17720647  1
  H+  H17  1  0.09557282  0.91713256  0.01457013  1
  H+  H18  1  0.87109647  0.98301817  0.16060152  1
  H+  H19  1  0.07174297  0.68252415  0.66555727  1
  H+  H20  1  0.77385522  0.39102346  0.00507496  1
  H+  H21  1  -0.03502879  0.60221655  0.18616906  1
  H+  H22  1  0.37824861  0.23697269  0.82501613  1
  H+  H23  1  0.31492370  0.15732250  0.07763599  1
  H+  H24  1  0.95850436  0.36679861  0.16470706  1
  H+  H25  1  0.60675487  0.87930721  0.68380901  1
  H+  H26  1  0.86105726  0.88877985  0.49363667  1
  H+  H27  1  0.39871312  0.85976322  -0.01177507  1
  H+  H28  1  0.02261033  0.63027001  0.85921911  1
  H+  H29  1  0.11109118  0.89883399  0.34099676  1
  H+  H30  1  0.46044801  0.33789195  0.17239471  1
  H+  H31  1  0.15582853  0.34783461  0.16365297  1
  H+  H32  1  0.71975274  0.84533225  0.84836414  1
  H+  H33  1  0.86022497  0.10927797  0.00523042  1
  H+  H34  1  0.73931607  0.87481997  0.16823597  1
  H+  H35  1  0.72026965  0.84290485  0.66690266  1
  H+  H36  1  0.61661273  0.46115046  0.66693000  1
  H+  H37  1  0.41289817  0.79223761  0.83068016  1
  H+  H38  1  0.35955918  0.47325886  0.83037743  1
  H+  H39  1  0.90768993  0.88304301  0.18181765  1
  H+  H40  1  0.11842813  0.46798845  0.67201751  1
  H+  H41  1  0.36405441  0.39414701  0.16395577  1
  H+  H42  1  0.02144767  0.65199803  0.34574429  1
  H+  H43  1  0.85257391  0.88366648  0.00575257  1
  H+  H44  1  1.02085911  0.38536670  0.50373170  1
  H+  H45  1  0.34960304  -0.00024243  0.50204717  1
  H+  H46  1  0.09149626  0.39199481  0.14274056  1
  H+  H47  1  -0.03351683  0.10471059  0.83065098  1
  H+  H48  1  0.13805909  0.11699297  0.83948551  1
  H+  H49  1  0.38068089  0.36238011  1.00253868  1
  H+  H50  1  0.87813056  0.36670852  0.31789885  1
  H+  H51  1  -0.03318641  0.36271309  -0.01511678  1
  H+  H52  1  0.37074030  0.14510259  0.83134113  1
  H+  H53  1  0.23933400  0.61776823  0.16898762  1
  H+  H54  1  0.66208144  0.32622432  0.23005769  1
  H+  H55  1  0.11481627  0.76046087  0.50325553  1
  H+  H56  1  0.85471572  0.61603232  0.66665157  1
  H+  H57  1  0.46776214  0.59580696  0.31115475  1
  H+  H58  1  0.64036612  0.59555535  0.65602476  1
  H+  H59  1  0.78434743  0.90448596  0.33627470  1
  H+  H60  1  0.86741370  0.47636929  0.82840290  1
  H+  H61  1  0.83845232  0.83043159  0.65083212  1
  H+  H62  1  0.72196063  0.86208169  0.99650645  1
  H+  H63  1  0.38204982  0.61887577  0.50314132  1
  H+  H64  1  0.63265761  0.35947934  0.32467320  1
  H+  H65  1  0.80829114  0.92953495  0.67583500  1
  H+  H66  1  0.63962902  0.36269619  0.50212717  1
  H+  H67  1  0.39606373  0.86684864  0.16096420  1
  H+  H68  1  0.11268302  0.21850909  0.83068850  1
  H+  H69  1  0.48421246  0.36448507  0.64008521  1
  H+  H70  1  0.79351418  0.14865402  0.33555465  1
  H+  H71  1  0.01896399  0.89455633  0.34369962  1
  H+  H72  1  0.37870597  0.99331562  0.66662031  1
  H+  H73  1  0.62967286  0.76971029  0.32165033  1
  H+  H74  1  0.73556559  0.61765611  0.84490659  1
  H+  H75  1  0.52859105  0.88797534  0.14931238  1
  H+  H76  1  0.63008850  0.91067405  0.34534374  1
  H+  H77  1  0.62583946  0.98566135  0.00076417  1
  H+  H78  1  0.90280341  0.57799817  0.57327603  1
  H+  H79  1  0.85332935  0.70803106  0.67017722  1
  H+  H80  1  0.85479973  0.63204746  -0.00203065  1
  H+  H81  1  0.63570320  0.26981427  -0.00455351  1
  H+  H82  1  0.90337209  1.03682200  0.32663177  1
  H+  H83  1  0.36549720  0.72541833  -0.00298259  1
  H+  H84  1  0.12155001  0.63660028  0.18850575  1
  H+  H85  1  0.15041700  0.58966400  0.70462993  1
  H+  H86  1  0.10550435  0.46811660  0.35404366  1
  H+  H87  1  0.84380725  0.21022633  0.82639144  1
  H+  H88  1  0.34956471  0.47321293  0.33080723  1
  H+  H89  1  0.30426123  0.13965778  0.36033704  1
  H+  H90  1  0.47741145  0.62257505  0.16515419  1
  H+  H91  1  0.21101585  0.81486494  0.90781545  1
  H+  H92  1  0.60463973  0.46950209  1.00279820  1
  H+  H93  1  -0.04888585  0.11748871  0.01085438  1
  H+  H94  1  0.16292107  0.79738044  0.63146581  1
  H+  H95  1  0.13828168  0.66057808  0.63882266  1
  H+  H96  1  0.36865872  -0.02179517  1.00206139  1
  H+  H97  1  0.87208478  0.72735409  0.82328747  1
  H+  H98  1  0.11120726  0.38445037  0.50266046  1
  H+  H99  1  0.43889246  0.84977417  0.21861297  1
  H+  H100  1  0.62735318  0.88782138  0.00154278  1
  H+  H101  1  0.88135900  0.37003335  0.98902653  1
  H+  H102  1  0.62080302  0.89192275  0.15347900  1
  H+  H103  1  0.27480172  0.14144739  1.01088273  1
  H+  H104  1  0.11025139  0.46203025  0.81979018  1
  H+  H105  1  0.57682820  0.15611345  0.06823022  1
  H+  H106  1  0.24269428  0.63155874  0.67188264  1
  H+  H107  1  0.72556184  0.85841081  0.51077942  1
  H+  H108  1  0.21977644  0.36344141  0.33663186  1
  H+  H109  1  0.87770894  1.01632216  0.82720043  1
  H+  H110  1  0.84707128  0.47418268  0.66745207  1
  H+  H111  1  0.60719398  0.72684313  -0.00415330  1
  H+  H112  1  0.65284229  0.03278812  0.50894643  1
  H+  H113  1  0.11901357  0.61307115  0.34851021  1
  H+  H114  1  0.72351243  0.61101554  0.50012062  1
  H+  H115  1  0.12428616  0.51734030  0.51169248  1
  H+  H116  1  0.38008281  0.28314658  0.33625328  1
  H+  H117  1  0.93083210  0.09179912  0.23022316  1
  H+  H118  1  0.23262614  0.12412795  0.83964543  1
  H+  H119  1  0.88195622  0.61050559  0.50828546  1
  H+  H120  1  0.27614262  0.38227594  0.01604938  1
  H+  H121  1  0.54600754  0.14134788  0.34362828  1
  H+  H122  1  -0.02508136  0.36536415  0.65978266  1
  H+  H123  1  0.55581213  0.92749025  0.83652383  1
  H+  H124  1  0.84641736  0.62339518  0.15630091  1
  H+  H125  1  0.72512024  0.35523091  0.65737952  1
  H+  H126  1  0.65903218  0.12916886  0.32648984  1
  H+  H127  1  0.57414046  0.40476094  0.06028479  1
  H+  H128  1  0.19124280  0.55799419  0.22535576  1
  H+  H129  1  0.47216102  0.60859698  0.98822663  1
  H+  H130  1  0.70286594  0.72327448  0.36733010  1
  H+  H131  1  0.13985550  0.27284031  1.00965989  1
  H+  H132  1  0.90818577  0.03084134  0.68026440  1
  H+  H133  1  0.88107304  0.77243310  0.99176911  1
  H+  H134  1  1.00863881  0.63687829  0.50576339  1
  H+  H135  1  0.85955583  0.22764763  0.15639935  1
  H+  H136  1  0.88434973  0.35754068  0.83176247  1
  H+  H137  1  0.88411597  0.15249979  0.33634552  1
  H+  H138  1  0.10757440  0.48576958  0.14893121  1
  H+  H139  1  0.51876922  0.42279282  0.86202955  1
  H+  H140  1  0.61173733  0.47287643  0.48849567  1
  H+  H141  1  0.32282260  0.11409006  0.17635639  1
  H+  H142  1  0.11001900  1.00900100  0.00778513  1
  H+  H143  1  0.13773839  0.35951846  1.01007860  1
  H+  H144  1  0.94568114  0.59042318  0.65637996  1
  H+  H145  1  0.08111525  0.15408413  0.77195475  1
  H+  H146  1  0.17972949  0.09972522  0.92725190  1
  H+  H147  1  0.52204770  0.38339921  0.48627310  1
  H+  H148  1  0.87506553  0.51531008  0.17643997  1
  H+  H149  1  0.89546539  1.03751395  0.50794234  1
  H+  H150  1  0.64519515  0.02629621  0.65851535  1
  H+  H151  1  0.25671649  0.62116508  0.49365668  1
  H+  H152  1  0.63975737  0.59686584  0.32714975  1
  H+  H153  1  0.14256487  0.78500617  0.18891680  1
  H+  H154  1  0.60168976  0.21455831  0.16349642  1
  H+  H155  1  0.36524189  0.73195920  0.15520225  1
  H+  H156  1  0.84750817  0.17996203  0.43105902  1
  H+  H157  1  0.63854763  0.80600695  0.58940927  1
  H+  H158  1  1.00083189  0.89297349  0.18733368  1
  H+  H159  1  0.15233336  0.88656851  0.96933559  1
  H+  H160  1  0.84894986  0.38447728  0.15464089  1
  H+  H161  1  0.72451683  0.61019875  -0.00355729  1
  H+  H162  1  0.88572695  0.52794132  0.33455267  1
  H+  H163  1  0.42343093  0.73690602  0.36791824  1
  H+  H164  1  0.36554431  0.74142527  0.67074956  1
  H+  H165  1  0.15686450  0.80709661  0.33553279  1
  H+  H166  1  0.74263806  0.12300729  0.50684025  1
  H+  H167  1  0.62737638  0.23013566  0.48854167  1
  H+  H168  1  0.84782756  0.23204492  0.00334357  1
  H+  H169  1  0.63217725  0.75568700  0.85347631  1
  H+  H170  1  0.14143598  0.60278519  0.83848329  1
  H+  H171  1  0.38156912  0.26626208  1.01324090  1
  H+  H172  1  0.97571618  0.86490437  0.50386378  1
  H+  H173  1  0.13554025  0.12619134  0.15654948  1
  H+  H174  1  0.39174131  0.52786041  0.16400312  1
  H+  H175  1  0.12482305  0.15053714  0.34356850  1
  H+  H176  1  0.14873686  0.87661451  0.17630629  1
  H+  H177  1  0.36283657  0.47817844  0.49301978  1
  H+  H178  1  0.63221918  0.10890419  0.17430294  1
  H+  H179  1  0.47576046  0.11410705  0.99547382  1
  H+  H180  1  0.15041613  1.00092168  0.16496022  1
  H+  H181  1  0.60587378  0.17435740  0.40425791  1
  H+  H182  1  0.85949114  0.39103246  0.67169512  1
  H+  H183  1  0.38795886  0.36286497  0.49003265  1
  H+  H184  1  -0.01322505  0.12672190  0.49585889  1
  H+  H185  1  0.73132888  0.36740715  0.50290886  1
  H+  H186  1  0.23505715  0.11143789  0.48754023  1
  H+  H187  1  0.63304787  0.14396002  0.48995992  1
  H+  H188  1  0.77079178  0.62830719  0.33683501  1
  H+  H189  1  0.11507975  0.13544575  0.67396505  1
  H+  H190  1  0.75363193  0.61007618  0.15165139  1
  H+  H191  1  0.47497003  0.60831825  0.64942537  1
  H+  H192  1  0.59888271  0.36026341  0.82208408  1
  H+  H193  1  0.51146167  0.12762488  0.16668555  1
  H+  H194  1  0.36608807  0.47122169  0.00147465  1
  H+  H195  1  0.48292006  0.87305914  0.66257109  1
  H+  H196  1  0.61183990  0.63062732  0.49124722  1
  H+  H197  1  0.24534171  0.87083671  0.82272330  1
  H+  H198  1  0.85888654  0.87454928  0.82524039  1
  H+  H199  1  0.91362318  0.33446611  0.56904599  1
  H+  H200  1  0.59599464  0.35744773  0.15404786  1
  H+  H201  1  0.29499528  0.87926524  -0.00585438  1
  H+  H202  1  0.37865588  0.64571429  0.33783260  1
  H+  H203  1  0.01932269  0.37392792  0.82178789  1
  H+  H204  1  0.16643460  0.78491213  -0.02994501  1
  H+  H205  1  0.27844821  0.88724882  0.15828872  1
  H+  H206  1  0.63012704  0.50219488  0.32963591  1
  H+  H207  1  0.62233385  0.74597280  0.14955125  1
  H+  H208  1  0.86381215  0.63925002  0.33970323  1
  H+  H209  1  0.05807627  0.89627686  0.67930545  1
  H+  H210  1  0.36281990  0.03772065  0.35385529  1
  H+  H211  1  0.08621187  0.17256373  0.40867612  1
  H+  H212  1  0.61945278  0.89560689  0.49839906  1
  H+  H213  1  0.98635658  0.86895300  0.83897095  1
  H+  H214  1  0.96255567  0.86908468  0.99574735  1
  H+  H215  1  0.41155811  0.58287539  0.25221593  1
  H+  H216  1  0.90020084  0.11805542  0.16966079  1
  H+  H217  1  0.88378544  0.77797838  0.32856507  1
  H+  H218  1  0.87754837  1.03870013  0.69876163  1
  H+  H219  1  0.15214433  0.78195112  0.83011166  1
  H+  H220  1  0.34587542  0.87101236  0.48598770  1
  H+  H221  1  0.73236235  0.35936332  0.83860252  1
  H+  H222  1  0.15712485  0.87276491  0.00123096  1
  H+  H223  1  1.03888880  0.15666247  0.67311965  1
  H+  H224  1  0.44293215  0.62945194  0.55731922  1
  H+  H225  1  0.37715257  0.64638968  0.82440516  1
  H+  H226  1  0.59078367  0.55352894  0.18764029  1
  H+  H227  1  0.64371260  0.27659840  0.32660188  1
  H+  H228  1  0.60749139  0.22326744  0.82115516  1
  H+  H229  1  0.90981502  0.58196842  0.27329732  1
  H+  H230  1  0.13047548  0.97461765  0.49028890  1
  H+  H231  1  0.93494306  0.86584353  0.65935856  1
  H+  H232  1  0.47379988  0.60411541  0.84639759  1
  H+  H233  1  0.13095894  0.89857142  0.82579064  1
  H+  H234  1  0.04437327  0.12612496  0.16233428  1
  H+  H235  1  0.47685442  0.12002934  0.83438831  1
  H+  H236  1  0.59500002  0.44433804  0.15863251  1
  H+  H237  1  0.88931327  0.27723713  0.50754893  1
  H+  H238  1  0.71896230  0.11291294  -0.01314705  1
  H+  H239  1  0.92309226  0.17499103  0.65086148  1
  H+  H240  1  0.99363761  0.12423724  0.32689252  1
  H+  H241  1  0.61088160  0.37026936  0.66607276  1
  H+  H242  1  0.28102674  0.37162898  0.67816886  1
  H+  H243  1  0.90797891  0.32661545  0.89235554  1
  H+  H244  1  0.38693837  0.11334070  0.99862308  1
  H+  H245  1  0.77549011  0.14436193  0.67141114  1
  H+  H246  1  0.12823367  0.26833244  0.49775857  1
  H+  H247  1  0.10968759  0.67869787  0.89839613  1
  H+  H248  1  0.86594045  0.89160559  0.34094021  1
  H+  H249  1  0.11209077  0.31021022  0.17145655  1
  H+  H250  1  0.63766039  0.76752540  0.50226613  1
  H+  H251  1  0.15954324  0.03989365  0.65479423  1
  H+  H252  1  0.61701777  0.62246111  0.84250894  1
  H+  H253  1  0.60574863  0.12900288  0.00664725  1
  H+  H254  1  0.12539167  0.36753601  0.34900319  1
  H+  H255  1  0.61084300  0.13112395  0.66783796  1
  H+  H256  1  0.62997970  0.66343997  0.14041475  1
  H+  H257  1  0.11932212  0.86341658  0.49244709  1
  H+  H258  1  0.41874687  0.08845302  0.89601822  1
  H+  H259  1  0.63922564  0.00359957  0.34409788  1
  H+  H260  1  0.61139287  0.21985462  0.66515485  1
  H+  H261  1  0.18778699  0.24718662  0.19417606  1
  H+  H262  1  0.47878885  0.11312939  0.64881323  1
  H+  H263  1  0.16517726  0.88662276  0.64747729  1
  H+  H264  1  0.15670007  0.13907240  0.98605957  1
  H+  H265  1  0.38889768  0.24364447  0.45585609  1
  H+  H266  1  0.10116791  0.64014276  0.50278124  1
  H+  H267  1  0.63235250  0.35637922  0.98984917  1
  H+  H268  1  0.47582222  0.35986406  0.99773792  1
  H+  H269  1  0.85911139  0.72462787  0.48899271  1
  H+  H270  1  0.50966277  0.90558238  0.31399107  1
  H+  H271  1  0.14366064  1.03567049  0.32293722  1
  H+  H272  1  0.89315340  0.61082893  0.84308190  1
  H+  H273  1  0.35440460  0.38743896  0.33716326  1
  H+  H274  1  0.95174974  0.60842981  0.98840100  1
  H+  H275  1  0.04121762  0.08890289  0.01611823  1
  H+  H276  1  0.77487529  0.13637475  0.15891947  1
  H+  H277  1  0.03146123  0.56752908  0.04113655  1
  H+  H278  1  0.35852669  0.75817134  0.51459041  1
  H+  H279  1  0.30831308  0.75817571  0.35930176  1
  H+  H280  1  0.65620112  0.06782754  0.92849095  1
  H+  H281  1  0.39779037  0.87953682  0.66136276  1
  H+  H282  1  0.14852392  0.59407925  -0.02264724  1
  H+  H283  1  0.85766321  0.48720629  1.00181529  1
  H+  H284  1  0.51614418  0.38091589  0.33977719  1
  H+  H285  1  0.84921687  0.12397833  0.82117915  1
  H+  H286  1  0.82835053  0.16971243  0.73347155  1
  H+  H287  1  0.39344526  0.35829853  0.64609820  1
  H+  H288  1  0.08502039  0.15206178  0.07190480  1
  H+  H289  1  0.73222000  0.60187183  0.65811753  1
  H+  H290  1  0.22640118  0.35057004  0.84466670  1
  H+  H291  1  0.31794202  0.84293084  0.38890103  1
  H+  H292  1  0.08914120  0.65268366  0.74728356  1
  H+  H293  1  0.66619591  0.57737661  0.56023871  1
  H+  H294  1  0.26770814  0.05502263  0.52026060  1
  H+  H295  1  0.24156627  0.60416920  0.98226380  1
  H+  H296  1  0.57481976  0.64004402  0.78496341  1
  H+  H297  1  0.60239641  0.93324185  0.74026357  1
  H+  H298  1  0.90037207  0.33429539  0.22590105  1
  H+  H299  1  0.92242980  0.83588119  0.89664098  1
  H+  H300  1  0.16829746  0.84585922  0.55385268  1
  H+  H301  1  0.08232085  0.91951618  0.42922704  1
  H+  H302  1  0.66949146  0.32673413  0.59523155  1
  H+  H303  1  0.59832739  0.92467547  0.06584203  1
  H+  H304  1  0.84957750  0.97215663  0.01403396  1
  H+  H305  1  0.11519109  0.93363695  0.73746479  1
  H+  H306  1  0.82451016  0.42178903  0.09636887  1
  H+  H307  1  0.87620031  0.14776769  0.49011617  1
  H+  H308  1  0.33587300  0.91833348  0.09705392  1
  H+  H309  1  0.15953443  0.58053596  0.56815665  1
  H+  H310  1  0.07328317  0.42218849  0.05102344  1
  H+  H311  1  0.38258542  0.60703251  0.99221525  1
  H+  H312  1  0.12769482  0.98693206  0.82845030  1
  H+  H313  1  0.26191279  0.87272927  0.46829607  1
  H+  H314  1  0.33320035  0.66881600  0.05901060  1
  H+  H315  1  0.66936631  0.83708667  0.22315955  1
  H+  H316  1  0.88745884  0.28278495  0.31666346  1
  H+  H317  1  0.43225908  0.42017302  0.86805409  1
  H+  H318  1  0.57159977  0.16415224  0.76177582  1
  H+  H319  1  0.82932695  0.66385386  0.43048297  1
  H+  H320  1  0.83661454  0.91746826  0.10350917  1
  H+  H321  1  0.08242998  0.40475069  0.72888857  1
  H+  H322  1  0.33214366  0.42588076  0.43063889  1
  H+  H323  1  0.35022310  0.93054116  0.76016571  1
  H+  H324  1  0.39708927  0.82703245  0.56908436  1
  H+  H325  1  0.88318987  0.28016894  0.66370154  1
  H+  H326  1  0.37168546  0.45338202  0.68958913  1
  H+  H327  1  0.41878365  0.33191544  0.54748275  1
  H+  H328  1  0.80625646  0.88172018  0.76943819  1
  H+  H329  1  0.81879003  0.17303111  0.06413943  1
  H+  H330  1  0.12769343  0.69746233  0.74922270  1
  H+  H331  1  0.83595870  0.66137256  0.76696950  1
  H+  H332  1  0.36262848  0.26239161  0.18249524  1
  H+  H333  1  0.42388485  0.83142368  0.92687793  1
  H+  H334  1  0.40606852  0.86129459  0.31221809  1
  H+  H335  1  0.07385328  0.67955220  0.40745796  1
  H+  H336  1  0.09213753  0.66693942  0.03288914  1
  H+  H337  1  0.57028923  0.80030353  0.29027311  1
  H+  H338  1  0.38891267  0.53969480  0.61745139  1
  H+  H339  1  0.83411179  0.42117268  0.76610846  1
  H+  H340  1  0.70781843  0.08127503  0.83005064  1
  H+  H341  1  0.67306812  0.57842484  0.90298045  1
  H+  H342  1  0.17791195  0.33212907  0.59704612  1
  H+  H343  1  0.67991346  0.09216468  0.26592657  1
  H+  H344  1  0.92343505  0.84639388  0.27258358  1
  H+  H345  1  0.61501871  0.68034870  0.40280798  1
  H+  H346  1  0.19411124  0.09122584  0.59354562  1
  H+  H347  1  0.59748965  0.70896545  0.69292606  1
  H+  H348  1  0.59777546  0.93444527  0.44107531  1
  H+  H349  1  0.19139791  0.09411378  0.26524210  1
  H+  H350  1  0.40689146  0.57743845  0.89965135  1
  H+  H351  1  0.12316682  0.57428408  0.28771594  1
  H+  H352  1  0.40821498  0.33094660  0.27106771  1
  H+  H353  1  0.90319306  0.57514503  0.90936933  1
  H+  H354  1  0.35075846  0.42655639  0.09927170  1
  H+  H355  1  0.34556209  0.68132248  0.72925550  1
  H+  H356  1  0.66307334  0.83109126  0.93367758  1
  H+  H357  1  0.14768914  0.35628843  0.65705627  1
  H+  H358  1  0.37798077  0.05803416  0.56311142  1
  H+  H359  1  0.32474540  0.65642553  0.43698310  1
  H+  H360  1  0.09508299  0.94187062  0.10939744  1
  H+  H361  1  0.18338960  0.56948351  0.88459572  1
  H+  H362  1  0.67203363  0.32720765  0.89757621  1
  H+  H363  1  0.12846987  0.26739327  0.34229405  1
  H+  H364  1  0.33816785  0.40058966  0.78036456  1
  H+  H365  1  0.82926792  0.92127928  0.43786556  1
  H+  H366  1  0.57682722  0.67078473  0.05495806  1
  H+  H367  1  0.56551525  0.38616628  0.76403501  1
  H+  H368  1  0.71680071  0.35400770  0.16806987  1
  H+  H369  1  0.22303294  0.23171534  0.25325378  1
  H+  H370  1  0.65235891  0.55144777  0.23710545  1
  H+  H371  1  0.08303169  0.41207835  0.41523461  1
  H+  H372  1  0.52570309  0.63841174  0.48411623  1
  H+  H373  1  0.67650664  0.08711312  0.59894656  1
  H+  H374  1  0.57850910  0.40777244  0.39896835  1
  H+  H375  1  0.37910808  0.06245172  0.24051069  1
  H+  H376  1  0.82679210  0.66292421  0.05902531  1
  H+  H377  1  0.17584186  0.85663182  0.27281068  1
  H+  H378  1  0.90905016  0.83029418  0.55980109  1
  H+  H379  1  0.95374768  0.14763818  0.59182206  1
  H+  H380  1  0.83267464  0.41926636  0.40036918  1
  H+  H381  1  0.08976102  0.66986292  0.13535823  1
  H+  H382  1  0.27580665  -0.02475462  0.32304174  1
  H+  H383  1  0.63394266  0.60777143  -0.00770331  1
  O2-  O384  1  0.10099877  0.15305016  0.14186245  1
  O2-  O385  1  0.07853809  0.17475365  0.47029188  1
  O2-  O386  1  0.08224496  0.15584558  0.81786769  1
  O2-  O387  1  0.06807148  0.42869919  0.13045217  1
  O2-  O388  1  0.08246788  0.41816254  0.48982925  1
  O2-  O389  1  0.07930483  0.40130418  0.80572284  1
  O2-  O390  1  0.08774977  0.66548811  0.17945643  1
  O2-  O391  1  0.07110938  0.67143570  0.48964567  1
  O2-  O392  1  0.08815609  0.66059055  0.85717278  1
  O2-  O393  1  0.10813641  0.93854781  0.15257734  1
  O2-  O394  1  0.08556965  0.91527529  0.47582768  1
  O2-  O395  1  0.09915330  0.92727910  0.81066493  1
  O2-  O396  1  0.29389736  0.14518615  0.15968336  1
  O2-  O397  1  0.37894264  0.19304500  0.42975105  1
  O2-  O398  1  0.33990437  0.17606999  0.81678837  1
  O2-  O399  1  0.35398050  0.43745624  0.14374253  1
  O2-  O400  1  0.33270616  0.41997711  0.47576317  1
  O2-  O401  1  0.33540454  0.41023298  0.82469328  1
  O2-  O402  1  0.33098153  0.67017731  0.14147343  1
  O2-  O403  1  0.31872964  0.65094457  0.48193908  1
  O2-  O404  1  0.35166263  0.68094514  0.80787934  1
  O2-  O405  1  0.33849822  0.91821630  0.14251625  1
  O2-  O406  1  0.32295812  0.89977632  0.45780663  1
  O2-  O407  1  0.34711144  0.92536749  0.80572132  1
  O2-  O408  1  0.57001553  0.15315597  0.14938791  1
  O2-  O409  1  0.60320329  0.17191594  0.47013669  1
  O2-  O410  1  0.56815001  0.16368421  0.80681569  1
  O2-  O411  1  0.56416272  0.38667644  0.13928247  1
  O2-  O412  1  0.58428313  0.41276601  0.47313780  1
  O2-  O413  1  0.55097593  0.36721215  0.80677763  1
  O2-  O414  1  0.58942908  0.68397522  0.13546086  1
  O2-  O415  1  0.58748425  0.66534966  0.47233975  1
  O2-  O416  1  0.58016831  0.64964161  0.82855008  1
  O2-  O417  1  0.59111005  0.92208479  0.13683587  1
  O2-  O418  1  0.59768880  0.93374532  0.48612654  1
  O2-  O419  1  0.61744405  0.95984811  0.82324188  1
  O2-  O420  1  0.83391670  0.16693335  0.14147310  1
  O2-  O421  1  0.84451458  0.17807158  0.47641278  1
  O2-  O422  1  0.81260698  0.15048762  0.81022208  1
  O2-  O423  1  0.81996613  0.41755073  0.14219454  1
  O2-  O424  1  0.83653984  0.41993086  0.47891800  1
  O2-  O425  1  0.83767324  0.41682958  0.81123480  1
  O2-  O426  1  0.81222860  0.64555687  0.13623921  1
  O2-  O427  1  0.82760668  0.66339652  0.47609164  1
  O2-  O428  1  0.84063810  0.66554186  0.81220133  1
  O2-  O429  1  0.83856973  0.92064794  0.14904305  1
  O2-  O430  1  0.82736106  0.91729742  0.48301059  1
  O2-  O431  1  0.82005670  0.89650266  0.81259173  1
  O2-  O432  1  0.20512924  0.09789966  0.18555049  1
  O2-  O433  1  0.21481415  0.06349126  0.51597930  1
  O2-  O434  1  0.17276462  0.08932383  0.85544972  1
  O2-  O435  1  0.22999660  0.27755420  0.22636065  1
  O2-  O436  1  0.15993184  0.32929416  0.51613235  1
  O2-  O437  1  0.16426448  0.31687934  0.85553728  1
  O2-  O438  1  0.17940927  0.58026256  0.18834304  1
  O2-  O439  1  0.15387011  0.58043580  0.52387058  1
  O2-  O440  1  0.17598352  0.57335867  0.83980248  1
  O2-  O441  1  0.17880211  0.84750291  0.19477522  1
  O2-  O442  1  0.15075618  0.82914542  0.50899703  1
  O2-  O443  1  0.18543296  0.84349031  0.84092092  1
  O2-  O444  1  0.39316372  0.07459306  0.19679257  1
  O2-  O445  1  0.34811661  0.04734842  0.52322576  1
  O2-  O446  1  0.41483985  0.08802233  0.85105850  1
  O2-  O447  1  0.40561728  0.32199491  0.19375237  1
  O2-  O448  1  0.41789738  0.33085298  0.50096288  1
  O2-  O449  1  0.48652985  0.43945262  0.89007507  1
  O2-  O450  1  0.41745678  0.59076410  0.17994566  1
  O2-  O451  1  0.42485670  0.60123140  0.51784926  1
  O2-  O452  1  0.41142413  0.58177682  0.85422023  1
  O2-  O453  1  0.42736002  0.83632591  0.17345590  1
  O2-  O454  1  0.37317840  0.81646577  0.52733265  1
  O2-  O455  1  0.44238989  0.85209251  0.84684332  1
  O2-  O456  1  0.66786017  0.08363792  0.18799321  1
  O2-  O457  1  0.68303048  0.09436243  0.52373829  1
  O2-  O458  1  0.64691983  0.04726051  0.84628142  1
  O2-  O459  1  0.65700106  0.31920719  0.18477282  1
  O2-  O460  1  0.67062746  0.33356892  0.51760778  1
  O2-  O461  1  0.67148925  0.32589052  0.85245197  1
  O2-  O462  1  0.64119846  0.54716192  0.19168774  1
  O2-  O463  1  0.66245818  0.58046728  0.51494965  1
  O2-  O464  1  0.67484708  0.58797959  0.85841683  1
  O2-  O465  1  0.67529360  0.84270188  0.17831313  1
  O2-  O466  1  0.66377912  0.82383691  0.52402010  1
  O2-  O467  1  0.66155917  0.81666090  0.86694863  1
  O2-  O468  1  0.92961244  0.08738705  0.18475343  1
  O2-  O469  1  0.92657894  0.09972035  0.51592788  1
  O2-  O470  1  0.90380719  0.07741925  0.83823990  1
  O2-  O471  1  0.89874399  0.33174707  0.17893261  1
  O2-  O472  1  0.91758295  0.33773217  0.52346858  1
  O2-  O473  1  0.91068672  0.32342061  0.84723520  1
  O2-  O474  1  0.90334308  0.57404690  0.19562456  1
  O2-  O475  1  0.91384208  0.58348053  0.52545130  1
  O2-  O476  1  0.91841083  0.57856168  0.86241770  1
  O2-  O477  1  0.94131505  0.86107183  0.20298432  1
  O2-  O478  1  0.91377112  0.83310953  0.51467878  1
  O2-  O479  1  0.92507020  0.83609254  0.85121844  1
  O2-  O480  1  0.17976793  0.09582786  0.30953618  1
  O2-  O481  1  0.18658258  0.09818792  0.63737518  1
  O2-  O482  1  0.18157849  0.10303807  0.97379018  1
  O2-  O483  1  0.15560703  0.33253827  0.32975890  1
  O2-  O484  1  0.18897069  0.34016347  0.64138205  1
  O2-  O485  1  0.17317726  0.33335954  1.02095645  1
  O2-  O486  1  0.13930235  0.57535334  0.32996828  1
  O2-  O487  1  0.17510309  0.59551355  0.66416817  1
  O2-  O488  1  0.18315580  0.56915374  0.96257894  1
  O2-  O489  1  0.17487115  0.86410867  0.31778332  1
  O2-  O490  1  0.19235179  0.86078772  0.62206710  1
  O2-  O491  1  0.21251670  0.78564859  0.94640119  1
  O2-  O492  1  0.32518894  0.03446782  0.32085162  1
  O2-  O493  1  0.41631297  0.08191522  0.63732069  1
  O2-  O494  1  0.41534433  0.08418169  0.97961618  1
  O2-  O495  1  0.41257419  0.34055429  0.31625014  1
  O2-  O496  1  0.43156530  0.35141908  0.61694454  1
  O2-  O497  1  0.40972111  0.32498333  0.99282323  1
  O2-  O498  1  0.40959097  0.57970296  0.29872073  1
  O2-  O499  1  0.41605729  0.56130637  0.65672293  1
  O2-  O500  1  0.40993376  0.57394627  0.97696011  1
  O2-  O501  1  0.45895815  0.88009763  0.28692520  1
  O2-  O502  1  0.42356924  0.84432589  0.64664732  1
  O2-  O503  1  0.41652547  0.82035429  0.97129800  1
  O2-  O504  1  0.68794482  0.09740751  0.31105610  1
  O2-  O505  1  0.67327158  0.08673132  0.64472407  1
  O2-  O506  1  0.65750323  0.07376206  0.97351100  1
  O2-  O507  1  0.66834924  0.33544253  0.30868569  1
  O2-  O508  1  0.66515590  0.32212478  0.64053226  1
  O2-  O509  1  0.66668610  0.32898803  0.97860992  1
  O2-  O510  1  0.66405942  0.56238933  0.31096273  1
  O2-  O511  1  0.67267516  0.57107732  0.63793439  1
  O2-  O512  1  0.66265541  0.57410191  0.98358434  1
  O2-  O513  1  0.63024911  0.81855366  0.29903966  1
  O2-  O514  1  0.62324869  0.79872683  0.63625864  1
  O2-  O515  1  0.66128739  0.83579312  0.98098633  1
  O2-  O516  1  0.93374205  0.09536013  0.30908769  1
  O2-  O517  1  0.97447317  0.18168385  0.62963391  1
  O2-  O518  1  0.89098182  0.07631243  1.00172670  1
  O2-  O519  1  0.90395689  0.33754054  0.29523870  1
  O2-  O520  1  0.91408507  0.33998779  0.64610208  1
  O2-  O521  1  0.90501101  0.33358700  0.97311879  1
  O2-  O522  1  0.91560504  0.58858131  0.31852137  1
  O2-  O523  1  0.88895984  0.56890014  0.63900801  1
  O2-  O524  1  0.89197064  0.57563844  0.97574965  1
  O2-  O525  1  0.91397707  0.84035108  0.31876634  1
  O2-  O526  1  0.88620201  0.81997954  0.63793585  1
  O2-  O527  1  0.90658438  0.83327746  0.97574371  1
  O2-  O528  1  0.07330379  0.14985875  0.02602095  1
  O2-  O529  1  0.09038725  0.17606844  0.35836429  1
  O2-  O530  1  0.06907011  0.13405398  0.69880506  1
  O2-  O531  1  0.07503529  0.41119177  0.00694487  1
  O2-  O532  1  0.08556681  0.40925089  0.36961220  1
  O2-  O533  1  0.08218880  0.40728796  0.68317909  1
  O2-  O534  1  0.06783971  0.61194774  0.01208063  1
  O2-  O535  1  0.08101905  0.68342423  0.36268895  1
  O2-  O536  1  0.10780670  0.69334226  0.62986021  1
  O2-  O537  1  0.07099070  0.95218372  0.02803808  1
  O2-  O538  1  0.07960702  0.92701707  0.35882568  1
  O2-  O539  1  0.11772424  0.93244063  0.69113268  1
  O2-  O540  1  0.33062580  0.16746293  0.03384404  1
  O2-  O541  1  0.32249265  0.19419720  0.38225170  1
  O2-  O542  1  0.34661278  0.16166507  0.68906545  1
  O2-  O543  1  0.34110322  0.41234331  0.02007656  1
  O2-  O544  1  0.32302058  0.41717866  0.35212725  1
  O2-  O545  1  0.33794493  0.39158053  0.69890420  1
  O2-  O546  1  0.33469216  0.66431646  0.01414490  1
  O2-  O547  1  0.36799471  0.68454618  0.36413047  1
  O2-  O548  1  0.33393080  0.68027504  0.68479294  1
  O2-  O549  1  0.34503699  0.91888891  0.01902829  1
  O2-  O550  1  0.31300500  0.81341489  0.34958678  1
  O2-  O551  1  0.34904763  0.93157980  0.68392227  1
  O2-  O552  1  0.57823679  0.16086605  0.02300078  1
  O2-  O553  1  0.60588201  0.17577791  0.35581486  1
  O2-  O554  1  0.57722313  0.15910978  0.68004713  1
  O2-  O555  1  0.57269133  0.40696602  0.01498341  1
  O2-  O556  1  0.57771698  0.40748302  0.35290829  1
  O2-  O557  1  0.58074970  0.40110792  0.68068454  1
  O2-  O558  1  0.57700944  0.66585101  0.01012852  1
  O2-  O559  1  0.64099320  0.69400179  0.36006334  1
  O2-  O560  1  0.58798360  0.70603993  0.64888178  1
  O2-  O561  1  0.60078139  0.92476290  0.01927909  1
  O2-  O562  1  0.60383972  0.94336061  0.36078655  1
  O2-  O563  1  0.59102622  0.92212192  0.69608847  1
  O2-  O564  1  0.81339987  0.17156162  0.01873671  1
  O2-  O565  1  0.85327701  0.18197936  0.35163345  1
  O2-  O566  1  0.83466193  0.17971488  0.68853341  1
  O2-  O567  1  0.83420046  0.42497458  0.01985351  1
  O2-  O568  1  0.83295897  0.42378801  0.35499771  1
  O2-  O569  1  0.82373098  0.41517020  0.68723750  1
  O2-  O570  1  0.82950824  0.66935214  0.01376750  1
  O2-  O571  1  0.82957231  0.66708056  0.35287843  1
  O2-  O572  1  0.82496557  0.64965053  0.68714175  1
  O2-  O573  1  0.82126154  0.90971409  0.02604176  1
  O2-  O574  1  0.83945187  0.92645350  0.35664889  1
  O2-  O575  1  0.78007939  0.86772017  0.68384210  1
