# generated using pymatgen
data_H2O
_symmetry_space_group_name_H-M   'P 1'
_cell_length_a   17.99685456
_cell_length_b   17.99335642
_cell_length_c   21.99844824
_cell_angle_alpha   89.99033371
_cell_angle_beta   90.02059231
_cell_angle_gamma   119.96547862
_symmetry_Int_Tables_number   1
_chemical_formula_structural   H2O
_chemical_formula_sum   'H384 O192'
_cell_volume   6171.38171040
_cell_formula_units_Z   192
loop_
 _symmetry_equiv_pos_site_id
 _symmetry_equiv_pos_as_xyz
  1  'x, y, z'
loop_
 _atom_type_symbol
 _atom_type_oxidation_number
  H+  1.0
  O2-  -2.0
loop_
 _atom_site_type_symbol
 _atom_site_label
 _atom_site_symmetry_multiplicity
 _atom_site_fract_x
 _atom_site_fract_y
 _atom_site_fract_z
 _atom_site_occupancy
  H+  H0  1  0.49107759  0.10602923  0.49342548  1
  H+  H1  1  0.27838681  0.14055208  0.33843693  1
  H+  H2  1  0.62908643  0.40168072  0.64771218  1
  H+  H3  1  0.61366551  0.13335704  0.81934333  1
  H+  H4  1  0.73088886  0.11521991  0.32462367  1
  H+  H5  1  0.72470545  0.58023609  0.84568106  1
  H+  H6  1  0.65276554  0.33249370  0.54881724  1
  H+  H7  1  0.04612917  0.40923292  0.80994618  1
  H+  H8  1  0.37545034  0.01321653  0.32669060  1
  H+  H9  1  0.51341336  0.11640603  0.33576961  1
  H+  H10  1  0.87245368  0.71599488  0.35457049  1
  H+  H11  1  0.05920361  0.88044820  0.81433301  1
  H+  H12  1  0.90451062  0.25435057  -0.00196374  1
  H+  H13  1  0.39340070  0.35770802  0.99530683  1
  H+  H14  1  0.28955093  0.11731725  -0.00185021  1
  H+  H15  1  -0.06772725  0.32069146  0.76098140  1
  H+  H16  1  0.43467298  0.36967217  0.41536724  1
  H+  H17  1  0.86686809  0.26184240  0.66991481  1
  H+  H18  1  1.04267377  0.40228226  0.34735759  1
  H+  H19  1  0.02827373  0.64811246  0.67065388  1
  H+  H20  1  0.28908552  0.64833342  0.16382020  1
  H+  H21  1  0.15784279  0.54769592  0.20079352  1
  H+  H22  1  0.86011536  0.13426743  0.66892390  1
  H+  H23  1  0.24009403  0.36664812  0.50919188  1
  H+  H24  1  0.47517806  0.09722593  0.17328329  1
  H+  H25  1  0.86994806  0.20900154  0.81588351  1
  H+  H26  1  0.10358415  0.95693949  0.01125992  1
  H+  H27  1  0.60947502  0.63697098  0.18293749  1
  H+  H28  1  0.23476702  0.10063627  0.64882105  1
  H+  H29  1  0.86579120  0.12894390  0.34676361  1
  H+  H30  1  0.62435306  0.10208493  0.51156947  1
  H+  H31  1  0.98074542  0.03853329  1.00276056  1
  H+  H32  1  0.34374481  0.75771735  0.31872943  1
  H+  H33  1  0.39207654  0.61544165  0.18098617  1
  H+  H34  1  -0.01668773  0.38170593  -0.02004447  1
  H+  H35  1  0.63200310  0.76582321  0.19113009  1
  H+  H36  1  0.61835113  0.13142113  0.16103267  1
  H+  H37  1  0.39384670  0.15058376  0.67446186  1
  H+  H38  1  0.40341993  0.78619461  0.67259319  1
  H+  H39  1  0.51078508  0.64782876  0.66018132  1
  H+  H40  1  0.10827401  0.22155783  0.33581792  1
  H+  H41  1  0.86465871  0.97073680  0.79944248  1
  H+  H42  1  0.71943283  0.60452708  -0.00022822  1
  H+  H43  1  0.61037522  0.87764453  0.18047543  1
  H+  H44  1  0.12508986  0.37950966  0.15945258  1
  H+  H45  1  0.41007519  0.11473158  -0.00429209  1
  H+  H46  1  0.62261922  0.00561439  0.97086150  1
  H+  H47  1  0.88241933  0.09961490  0.82636730  1
  H+  H48  1  0.87432879  0.49161039  0.68905426  1
  H+  H49  1  0.10144957  0.26429013  1.03115637  1
  H+  H50  1  0.87957671  0.00126028  0.34948159  1
  H+  H51  1  0.60426664  0.97701829  0.49534781  1
  H+  H52  1  0.88935440  0.61334994  0.66670308  1
  H+  H53  1  0.91113129  0.37019341  0.33878842  1
  H+  H54  1  0.49944346  0.65624755  0.47525501  1
  H+  H55  1  0.63412330  0.77747626  0.50406696  1
  H+  H56  1  0.96959299  0.60825000  0.99675904  1
  H+  H57  1  0.83530245  0.72442323  0.83005953  1
  H+  H58  1  0.76976525  0.38824369  -0.00052326  1
  H+  H59  1  0.15850796  0.13432714  0.03587295  1
  H+  H60  1  0.89312827  0.52832643  0.51611477  1
  H+  H61  1  0.74715348  0.63005247  0.50917831  1
  H+  H62  1  0.16390317  0.17799253  0.68218787  1
  H+  H63  1  0.38649141  0.27953736  0.32230694  1
  H+  H64  1  0.08789861  0.40023584  0.05640515  1
  H+  H65  1  0.48759714  0.86472310  0.17714380  1
  H+  H66  1  0.60002216  0.46925585  0.81275688  1
  H+  H67  1  0.51848892  0.87995506  0.48515050  1
  H+  H68  1  0.03768806  0.63772643  0.34539368  1
  H+  H69  1  0.10303627  0.09032500  0.49441468  1
  H+  H70  1  0.68411286  0.65429737  0.27607772  1
  H+  H71  1  -0.02204598  0.11345247  0.65639437  1
  H+  H72  1  0.32822032  0.67749739  0.80787782  1
  H+  H73  1  0.50927864  -0.08981151  0.66090201  1
  H+  H74  1  0.13590117  0.76114146  0.50963417  1
  H+  H75  1  0.64728585  0.27121242  0.99488094  1
  H+  H76  1  0.39540324  0.60814601  0.99823153  1
  H+  H77  1  0.16758293  0.55256730  0.81398440  1
  H+  H78  1  0.12319751  0.51702718  0.65023380  1
  H+  H79  1  0.17303527  0.58000311  0.56798621  1
  H+  H80  1  0.39127672  0.65599280  0.65482810  1
  H+  H81  1  0.81833502  0.41158224  0.34477457  1
  H+  H82  1  0.87063803  0.13930690  0.49607409  1
  H+  H83  1  0.16961283  0.87048547  0.82241106  1
  H+  H84  1  0.13111304  0.86211026  0.32845668  1
  H+  H85  1  -0.03123862  0.35960354  0.47233044  1
  H+  H86  1  0.39890447  0.61415382  0.56323030  1
  H+  H87  1  0.17220447  0.33406415  0.56466202  1
  H+  H88  1  0.52842590  0.37971388  1.00941462  1
  H+  H89  1  0.20940776  -0.02043378  0.95972436  1
  H+  H90  1  0.96943950  0.44275629  0.21022492  1
  H+  H91  1  0.15950649  0.82800573  0.58845072  1
  H+  H92  1  0.63906739  0.50409470  0.47695210  1
  H+  H93  1  0.93878644  0.87135464  1.00403018  1
  H+  H94  1  0.16674302  0.78084288  0.82959266  1
  H+  H95  1  0.76395378  0.04531575  0.95960229  1
  H+  H96  1  0.83160201  0.89582317  0.41570329  1
  H+  H97  1  0.09983066  0.14258624  0.16351587  1
  H+  H98  1  0.72460891  0.11156543  0.16649878  1
  H+  H99  1  0.13783571  0.11230261  0.32674048  1
  H+  H100  1  0.63632629  0.26372352  0.83977109  1
  H+  H101  1  0.84852950  0.72304731  0.01379727  1
  H+  H102  1  0.81813844  0.65449498  0.73599926  1
  H+  H103  1  0.13957592  0.51865678  1.00061721  1
  H+  H104  1  0.22954614  0.10883762  0.68167378  1
  H+  H105  1  0.61251771  0.62719208  0.01440647  1
  H+  H106  1  0.89961363  0.56450340  0.83332104  1
  H+  H107  1  0.19829705  0.61754148  0.24995003  1
  H+  H108  1  0.17590370  0.34411249  0.23853052  1
  H+  H109  1  0.61379604  0.96722823  0.16847743  1
  H+  H110  1  0.61771054  0.38231222  1.00743041  1
  H+  H111  1  0.77186175  0.39783593  0.48992820  1
  H+  H112  1  0.84968482  0.83031977  0.48955510  1
  H+  H113  1  0.27858173  0.40710094  0.82277861  1
  H+  H114  1  0.92337153  0.58537668  0.27955208  1
  H+  H115  1  0.97878126  0.33451637  0.49471630  1
  H+  H116  1  0.85221800  0.70821948  0.16813985  1
  H+  H117  1  1.01254645  0.10599767  0.82422416  1
  H+  H118  1  0.52265804  0.63526980  0.17325175  1
  H+  H119  1  0.84680265  0.47231771  0.16505541  1
  H+  H120  1  0.90449225  0.34752852  0.82037984  1
  H+  H121  1  -0.03309771  0.85367057  0.32815504  1
  H+  H122  1  0.12259491  0.72879057  0.34739065  1
  H+  H123  1  0.78301397  0.88643325  0.64126704  1
  H+  H124  1  0.39321302  0.11636999  0.84554986  1
  H+  H125  1  0.43548914  0.61933415  0.34916328  1
  H+  H126  1  0.90059008  0.62193245  0.51783539  1
  H+  H127  1  0.62511651  0.89460056  0.81859508  1
  H+  H128  1  0.36769459  0.71792411  0.00475347  1
  H+  H129  1  0.71460588  0.33371229  0.63078485  1
  H+  H130  1  0.98100761  0.13314089  0.50088675  1
  H+  H131  1  0.97527050  0.13142008  0.18363316  1
  H+  H132  1  0.82321114  0.88759578  1.02061828  1
  H+  H133  1  0.13069275  0.39020510  0.99669544  1
  H+  H134  1  0.63549929  0.01559913  0.66973279  1
  H+  H135  1  0.22603800  0.86589594  0.32848189  1
  H+  H136  1  0.29831363  0.62351938  0.50414719  1
  H+  H137  1  0.65928347  0.81717671  0.29016463  1
  H+  H138  1  0.29536451  0.89659411  0.81448265  1
  H+  H139  1  0.11532447  0.64009904  0.18041243  1
  H+  H140  1  0.86887151  0.35420987  0.67584903  1
  H+  H141  1  0.36612553  0.96834824  0.48512022  1
  H+  H142  1  0.36186445  0.49887480  0.49354772  1
  H+  H143  1  0.72051494  0.84969975  0.34891172  1
  H+  H144  1  0.76469938  0.12490050  0.67012134  1
  H+  H145  1  0.17441264  0.84339942  0.97718892  1
  H+  H146  1  0.52637436  0.39743807  0.32618775  1
  H+  H147  1  0.84971190  0.97698259  0.17213686  1
  H+  H148  1  0.10527358  0.18531792  0.83318513  1
  H+  H149  1  0.02234500  0.12743367  0.34206944  1
  H+  H150  1  0.61304766  0.35400700  0.31283266  1
  H+  H151  1  0.39657489  0.77493701  0.16952428  1
  H+  H152  1  0.62087093  0.47225527  0.30615303  1
  H+  H153  1  0.03105302  0.63052401  0.50157657  1
  H+  H154  1  0.06943183  0.06358555  0.64646642  1
  H+  H155  1  0.67280530  0.82737449  0.88819176  1
  H+  H156  1  0.69034659  0.33645392  0.31792765  1
  H+  H157  1  0.12539168  0.84487561  0.50358423  1
  H+  H158  1  0.72712604  0.11198126  0.83463814  1
  H+  H159  1  0.41652771  0.02869588  0.99537687  1
  H+  H160  1  0.42140274  0.34581914  0.26679012  1
  H+  H161  1  0.10862993  -0.02951790  0.34150091  1
  H+  H162  1  0.58265790  0.92592187  0.76745276  1
  H+  H163  1  0.14285347  0.08819659  0.83605395  1
  H+  H164  1  0.10370805  0.70731818  0.02873744  1
  H+  H165  1  0.80732935  0.96723901  0.01263989  1
  H+  H166  1  0.13373003  0.65251798  0.81430581  1
  H+  H167  1  0.35227524  0.42451003  0.07298739  1
  H+  H168  1  0.63836676  0.02411127  0.83459735  1
  H+  H169  1  0.86061678  0.74180066  0.65522143  1
  H+  H170  1  0.12232869  0.22800676  0.49061847  1
  H+  H171  1  0.87686376  0.22403198  0.34294976  1
  H+  H172  1  0.36588252  0.41833997  0.67164130  1
  H+  H173  1  0.55623304  0.41947923  0.16103685  1
  H+  H174  1  0.87241183  0.66121667  0.82996771  1
  H+  H175  1  0.65749012  0.62967684  0.50651234  1
  H+  H176  1  0.10533405  0.62115155  0.02524309  1
  H+  H177  1  0.89461511  0.02250794  0.64549068  1
  H+  H178  1  0.22122493  0.35813459  0.33112315  1
  H+  H179  1  0.09875785  0.95924394  0.17338282  1
  H+  H180  1  0.13729290  0.46605721  0.13211722  1
  H+  H181  1  0.86353862  0.87362600  0.64459061  1
  H+  H182  1  0.15684030  0.50883637  0.49776313  1
  H+  H183  1  0.95312096  0.82362935  0.64905816  1
  H+  H184  1  0.06879963  0.93126645  0.48806660  1
  H+  H185  1  0.26173309  0.37645587  0.00173191  1
  H+  H186  1  0.37076401  0.55612366  0.65114920  1
  H+  H187  1  0.86786367  0.85314865  0.18096469  1
  H+  H188  1  0.27565986  0.88153130  0.49214592  1
  H+  H189  1  0.90656568  0.62069167  0.34443877  1
  H+  H190  1  0.32984909  0.18076826  0.49896309  1
  H+  H191  1  0.61869314  0.75574539  0.98745193  1
  H+  H192  1  0.13399945  0.49172658  0.34298094  1
  H+  H193  1  0.13707186  0.28092131  0.66035173  1
  H+  H194  1  0.17357448  0.06510446  0.51132415  1
  H+  H195  1  0.38246552  0.48267201  1.01131897  1
  H+  H196  1  0.31025503  0.90699647  -0.00023228  1
  H+  H197  1  0.39947759  0.76859936  0.50810852  1
  H+  H198  1  0.61968061  0.23182020  0.47978776  1
  H+  H199  1  0.37930298  -0.00494471  0.82075027  1
  H+  H200  1  0.83537032  0.33369272  0.51619860  1
  H+  H201  1  0.13139237  0.31829153  0.85999087  1
  H+  H202  1  0.16695641  0.16137074  1.00782269  1
  H+  H203  1  0.62108995  0.76494858  0.66155717  1
  H+  H204  1  0.56092299  0.89860705  -0.10871383  1
  H+  H205  1  0.40434363  0.66857722  0.83479650  1
  H+  H206  1  0.68673956  0.85180263  0.69429164  1
  H+  H207  1  0.13594015  0.61172384  0.65078268  1
  H+  H208  1  0.29789686  0.23042506  0.12218913  1
  H+  H209  1  0.62296416  0.25987685  0.64948623  1
  H+  H210  1  0.30825929  0.61782323  0.34005764  1
  H+  H211  1  0.58754794  0.73109888  0.37544727  1
  H+  H212  1  1.00966251  0.38070448  0.66933901  1
  H+  H213  1  0.13012798  0.76863135  0.65613117  1
  H+  H214  1  0.61453923  0.72671966  0.81069465  1
  H+  H215  1  0.28808646  0.39245348  0.16636617  1
  H+  H216  1  0.12657511  0.36384710  0.65342093  1
  H+  H217  1  0.85312366  0.38866504  0.15686772  1
  H+  H218  1  0.90336664  0.49995204  0.34856992  1
  H+  H219  1  0.59375710  0.20894059  0.32908748  1
  H+  H220  1  0.61957853  0.88669842  0.34835547  1
  H+  H221  1  0.60523256  0.89813798  0.67874509  1
  H+  H222  1  0.82813537  0.21081023  0.50098864  1
  H+  H223  1  0.38412062  0.88457691  0.00264938  1
  H+  H224  1  0.38717828  0.85090135  0.49848704  1
  H+  H225  1  0.73110464  0.86026460  0.82709602  1
  H+  H226  1  0.92265760  0.58409272  0.60809531  1
  H+  H227  1  0.66047254  0.52253692  0.21156875  1
  H+  H228  1  0.71823449  0.35148939  0.16659897  1
  H+  H229  1  0.76231954  0.60349750  0.67666020  1
  H+  H230  1  0.28025603  0.63110644  0.01303830  1
  H+  H231  1  0.12091820  0.85129757  0.18623302  1
  H+  H232  1  0.63879601  0.37537598  0.48904843  1
  H+  H233  1  0.85440696  0.87294657  0.35054042  1
  H+  H234  1  0.38419140  0.42250271  0.48406426  1
  H+  H235  1  0.45212520  0.37779428  0.72060646  1
  H+  H236  1  0.40817183  0.11251781  0.50271189  1
  H+  H237  1  0.93465807  0.85194815  0.86240799  1
  H+  H238  1  0.04568330  0.65633054  0.82524597  1
  H+  H239  1  0.63223483  0.51459854  0.99972295  1
  H+  H240  1  0.46556690  0.84294448  0.95359765  1
  H+  H241  1  0.87823602  0.60177447  0.18342682  1
  H+  H242  1  0.54392702  0.13636504  1.00703842  1
  H+  H243  1  0.38410101  0.87762580  0.15879783  1
  H+  H244  1  0.11770144  0.85804583  0.64973991  1
  H+  H245  1  0.35554420  0.39266395  0.34208677  1
  H+  H246  1  0.12254778  0.76014670  0.18784993  1
  H+  H247  1  0.14940097  0.61084917  0.50458344  1
  H+  H248  1  0.87304996  0.83403498  0.94833143  1
  H+  H249  1  0.99949742  0.38776892  0.17461201  1
  H+  H250  1  0.14002735  0.97418062  0.81110196  1
  H+  H251  1  0.69466067  0.85077866  0.99507029  1
  H+  H252  1  0.85763128  0.85780850  0.83434439  1
  H+  H253  1  0.87626788  0.44063522  0.86109245  1
  H+  H254  1  0.36760619  0.21638397  -0.00009983  1
  H+  H255  1  0.38489120  0.10709858  0.32248661  1
  H+  H256  1  0.95453373  0.84933555  0.18336108  1
  H+  H257  1  0.52911547  0.63914107  0.81819346  1
  H+  H258  1  -0.00163322  0.21638159  0.03846545  1
  H+  H259  1  0.40766130  0.26241834  0.47151806  1
  H+  H260  1  0.85566590  0.23194900  0.15250542  1
  H+  H261  1  0.38211489  0.36536573  0.83728489  1
  H+  H262  1  0.63881193  0.10977517  0.32202837  1
  H+  H263  1  0.41797739  0.33005712  0.93285204  1
  H+  H264  1  0.39535319  0.53443377  0.84033303  1
  H+  H265  1  0.36508527  0.22807819  0.83044491  1
  H+  H266  1  0.12631832  0.05846574  0.11641328  1
  H+  H267  1  0.52526860  0.13372382  0.82201265  1
  H+  H268  1  0.72909203  0.34346715  0.84805072  1
  H+  H269  1  0.37372967  0.76654289  0.88306621  1
  H+  H270  1  0.86134623  0.64098744  0.00562064  1
  H+  H271  1  0.62286177  0.97777768  0.33999527  1
  H+  H272  1  0.58678468  0.92231684  0.42377754  1
  H+  H273  1  0.06602454  0.94185348  0.65421885  1
  H+  H274  1  0.58655251  0.85948159  -0.05154798  1
  H+  H275  1  0.36051326  0.52460618  0.33681070  1
  H+  H276  1  0.89191376  0.37395613  0.98687219  1
  H+  H277  1  0.53139781  0.11779572  0.66307259  1
  H+  H278  1  0.15208342  0.40222364  0.49318649  1
  H+  H279  1  0.71872174  0.85608363  0.19402718  1
  H+  H280  1  -0.00392617  0.02721271  -0.02560120  1
  H+  H281  1  0.41181129  0.24553827  0.68449855  1
  H+  H282  1  0.24038299  0.10533401  0.83290239  1
  H+  H283  1  0.35825772  -0.00536135  0.66669851  1
  H+  H284  1  0.26077664  0.91797325  0.67599804  1
  H+  H285  1  0.62937909  0.13027770  0.00823377  1
  H+  H286  1  0.86279220  0.14806582  0.15267500  1
  H+  H287  1  0.13602922  0.36247055  0.32863151  1
  H+  H288  1  0.21205386  0.11094988  0.15202450  1
  H+  H289  1  0.64727555  0.11324122  0.66081209  1
  H+  H290  1  0.64877656  0.31490678  0.22436987  1
  H+  H291  1  0.93855526  0.34324114  0.27797228  1
  H+  H292  1  0.88761861  0.05178773  0.88430252  1
  H+  H293  1  0.37927123  0.97299942  0.16054618  1
  H+  H294  1  0.34730478  0.17628952  0.39283665  1
  H+  H295  1  0.82639940  0.14735563  0.76008247  1
  H+  H296  1  0.19735421  0.28724616  0.97024751  1
  H+  H297  1  0.83334369  0.65401629  0.10756466  1
  H+  H298  1  0.66639982  0.32479704  0.93258365  1
  H+  H299  1  0.08995888  0.66223512  0.44095706  1
  H+  H300  1  0.43709656  0.04521962  0.58653527  1
  H+  H301  1  0.84945822  0.42816640  0.44221953  1
  H+  H302  1  0.06733507  0.19238165  0.11760506  1
  H+  H303  1  0.07295409  0.02433338  0.58217301  1
  H+  H304  1  0.41085314  0.58558217  0.24445575  1
  H+  H305  1  0.21639790  0.86896752  0.91237500  1
  H+  H306  1  0.65840598  0.53811234  0.59648707  1
  H+  H307  1  0.09573780  0.68295561  0.72631345  1
  H+  H308  1  0.37446908  0.48271654  0.16888247  1
  H+  H309  1  0.16811721  0.08002866  0.26991298  1
  H+  H310  1  0.62401188  0.46044772  0.10900258  1
  H+  H311  1  0.59241389  0.16079220  0.09771149  1
  H+  H312  1  0.33470481  0.43720755  0.76204892  1
  H+  H313  1  0.89730816  0.81610218  0.27503917  1
  H+  H314  1  0.77841339  0.85665006  0.50152871  1
  H+  H315  1  0.87013003  0.19260817  0.05650654  1
  H+  H316  1  0.80933641  0.91887715  0.11343814  1
  H+  H317  1  0.08435538  0.42327817  0.72051603  1
  H+  H318  1  0.83148474  0.16565729  0.43286679  1
  H+  H319  1  0.14579243  0.28150748  0.18206395  1
  H+  H320  1  0.93043136  0.60236256  0.90015130  1
  H+  H321  1  0.41065360  0.37863346  0.17210518  1
  H+  H322  1  0.58412575  0.43614357  0.74465328  1
  H+  H323  1  0.08687127  0.17082367  0.42950993  1
  H+  H324  1  0.46832075  0.36508032  0.83011012  1
  H+  H325  1  0.15713716  0.82652748  0.25470366  1
  H+  H326  1  0.87957271  0.52391534  0.98776595  1
  H+  H327  1  -0.00198718  0.83141404  0.48317842  1
  H+  H328  1  0.16037485  0.62980910  0.34053110  1
  H+  H329  1  0.27208603  0.40637532  0.66770544  1
  H+  H330  1  0.92245756  0.10171579  0.56147129  1
  H+  H331  1  0.85677946  0.10548768  0.98033808  1
  H+  H332  1  0.35765569  0.91573624  0.09484989  1
  H+  H333  1  0.85149414  0.42449498  0.78911502  1
  H+  H334  1  -0.03489102  0.59813141  0.18680634  1
  H+  H335  1  0.42087040  0.29601602  0.16952997  1
  H+  H336  1  0.56959270  0.66434334  0.71962214  1
  H+  H337  1  0.32241973  0.90711042  0.39501721  1
  H+  H338  1  0.48796096  0.39330107  0.65650976  1
  H+  H339  1  0.59269918  0.16556086  0.42409827  1
  H+  H340  1  0.83547215  0.90845451  0.74020138  1
  H+  H341  1  0.40660173  0.73875358  0.73234602  1
  H+  H342  1  0.58596034  0.66131408  0.07405540  1
  H+  H343  1  0.67234864  0.08479210  0.23004090  1
  H+  H344  1  0.34425630  0.66661996  0.10202431  1
  H+  H345  1  0.13983057  0.42640834  0.82066164  1
  H+  H346  1  0.85856361  0.29835408  0.57520472  1
  H+  H347  1  0.48576282  0.61028030  1.00117836  1
  H+  H348  1  0.58168927  0.16357700  0.72523695  1
  H+  H349  1  0.36050190  0.17312861  0.77248710  1
  H+  H350  1  0.62736587  0.24245258  0.16265304  1
  H+  H351  1  0.85813303  0.66600284  0.41794161  1
  H+  H352  1  0.61421122  0.44858267  0.41388205  1
  H+  H353  1  0.12402146  0.43877340  0.43086570  1
  H+  H354  1  0.32732836  0.17138012  0.09150814  1
  H+  H355  1  0.50645207  0.40122033  0.46475528  1
  H+  H356  1  0.39476883  0.82220086  0.26376248  1
  H+  H357  1  0.66492415  0.54731463  0.90329932  1
  H+  H358  1  0.43008154  0.58766318  0.90254671  1
  H+  H359  1  0.91069029  0.13270340  0.23216573  1
  H+  H360  1  0.07201048  0.89972400  0.39578556  1
  H+  H361  1  0.32562203  0.42239524  0.40270212  1
  H+  H362  1  0.78077156  0.41869615  0.70689208  1
  H+  H363  1  0.09478256  0.15656308  0.73331669  1
  H+  H364  1  0.07508150  0.65570841  0.12020299  1
  H+  H365  1  0.44894834  -0.02229798  0.63020369  1
  H+  H366  1  0.19564645  0.37585122  0.90939794  1
  H+  H367  1  0.18241044  0.04013643  0.92563596  1
  H+  H368  1  0.45098765  0.87161222  0.59605262  1
  H+  H369  1  0.33370981  0.95376510  0.74991757  1
  H+  H370  1  0.05116228  0.85765488  0.02256461  1
  H+  H371  1  0.66897980  0.08131592  0.92609864  1
  H+  H372  1  0.16022165  0.59001448  0.95097459  1
  H+  H373  1  0.89278529  0.76706287  0.55694428  1
  H+  H374  1  0.82771335  0.42307231  0.05915389  1
  H+  H375  1  0.08015752  0.90236771  0.71743932  1
  H+  H376  1  0.90848665  0.04704021  0.28611112  1
  H+  H377  1  0.22460553  0.62290095  0.86323340  1
  H+  H378  1  0.34370740  0.87551966  0.33155869  1
  H+  H379  1  0.41362028  0.06309663  0.23145420  1
  H+  H380  1  0.66533879  0.82235341  0.56834684  1
  H+  H381  1  0.06575270  0.90021114  0.11618833  1
  H+  H382  1  0.64846803  0.06469476  0.57200203  1
  H+  H383  1  0.42770568  0.08151464  0.90095532  1
  O2-  O384  1  0.07392151  0.17986604  0.16216979  1
  O2-  O385  1  0.08499154  0.16839979  0.47505502  1
  O2-  O386  1  0.07451715  0.13165557  0.81062885  1
  O2-  O387  1  0.09347810  0.40589872  0.13715696  1
  O2-  O388  1  0.13445053  0.44368122  0.47622702  1
  O2-  O389  1  0.10723725  0.44872054  0.79823152  1
  O2-  O390  1  0.07705041  0.66158861  0.16537207  1
  O2-  O391  1  0.09199576  0.66054025  0.48637181  1
  O2-  O392  1  0.10234068  0.68410663  0.80429045  1
  O2-  O393  1  0.06838433  0.89788133  0.16138947  1
  O2-  O394  1  0.05853309  0.87559249  0.47167421  1
  O2-  O395  1  0.11315194  0.91397986  0.79265858  1
  O2-  O396  1  0.31203320  0.18609764  0.13228359  1
  O2-  O397  1  0.37809858  0.19776455  0.47146930  1
  O2-  O398  1  0.34170215  0.16728731  0.81620552  1
  O2-  O399  1  0.34817042  0.42340146  0.15088955  1
  O2-  O400  1  0.33877011  0.43816764  0.48014012  1
  O2-  O401  1  0.33748789  0.43077363  0.80715063  1
  O2-  O402  1  0.34787038  0.67158669  0.14758376  1
  O2-  O403  1  0.35862180  0.65425197  0.48947925  1
  O2-  O404  1  0.38735552  0.71197694  0.82273267  1
  O2-  O405  1  0.35286816  0.91124846  0.14087219  1
  O2-  O406  1  0.33259494  0.90670591  0.47249585  1
  O2-  O407  1  0.35148586  0.94019764  0.79443980  1
  O2-  O408  1  0.58873822  0.16298231  0.14410783  1
  O2-  O409  1  0.59333526  0.16983002  0.46939120  1
  O2-  O410  1  0.58325747  0.16335681  0.80337274  1
  O2-  O411  1  0.61789139  0.45809672  0.15341919  1
  O2-  O412  1  0.60843458  0.44455161  0.45888097  1
  O2-  O413  1  0.55432954  0.42996164  0.78331725  1
  O2-  O414  1  0.58326997  0.66387682  0.15832117  1
  O2-  O415  1  0.55760841  0.67876519  0.45716018  1
  O2-  O416  1  0.58306671  0.66755758  0.79458070  1
  O2-  O417  1  0.58068969  0.90502436  0.15992100  1
  O2-  O418  1  0.58076058  0.91758053  0.47243321  1
  O2-  O419  1  0.59162236  0.92442373  0.81373889  1
  O2-  O420  1  0.83081519  0.17489292  0.13445472  1
  O2-  O421  1  0.82650210  0.15905106  0.47845143  1
  O2-  O422  1  0.83158502  0.14756881  0.80613799  1
  O2-  O423  1  0.81756102  0.41369858  0.14493422  1
  O2-  O424  1  0.83557965  0.42374535  0.48622166  1
  O2-  O425  1  0.84753157  0.39738490  0.82966084  1
  O2-  O426  1  0.83653045  0.65084021  0.15237351  1
  O2-  O427  1  0.85057880  0.67208078  0.49487118  1
  O2-  O428  1  0.82626646  0.66952197  0.81287900  1
  O2-  O429  1  0.82046762  0.91719922  0.15804701  1
  O2-  O430  1  0.83681571  0.87705017  0.48371663  1
  O2-  O431  1  0.83275781  0.90986210  0.78551730  1
  O2-  O432  1  0.14786506  0.07348498  0.15809039  1
  O2-  O433  1  0.11179700  0.04196054  0.50957283  1
  O2-  O434  1  0.17938631  0.06314600  0.84632313  1
  O2-  O435  1  0.17943564  0.34403205  0.19265513  1
  O2-  O436  1  0.17743246  0.33412820  0.51921061  1
  O2-  O437  1  0.18012958  0.37583088  0.86559701  1
  O2-  O438  1  0.18795425  0.61002589  0.20441194  1
  O2-  O439  1  0.18239864  0.58349676  0.52085176  1
  O2-  O440  1  0.20208594  0.61597892  0.82207808  1
  O2-  O441  1  0.15225314  0.82196643  0.20285545  1
  O2-  O442  1  0.16154727  0.82314901  0.52316739  1
  O2-  O443  1  0.20130429  0.84364453  0.84125672  1
  O2-  O444  1  0.41515721  0.05948653  0.18606431  1
  O2-  O445  1  0.43076600  0.07349088  0.50980131  1
  O2-  O446  1  0.42076190  0.08124310  0.85562120  1
  O2-  O447  1  0.44449669  0.35264846  0.18860174  1
  O2-  O448  1  0.44146589  0.36821070  0.45941806  1
  O2-  O449  1  0.41174593  0.33436780  0.85145057  1
  O2-  O450  1  0.41819647  0.58317044  0.19970250  1
  O2-  O451  1  0.39793574  0.60648157  0.51578220  1
  O2-  O452  1  0.42826844  0.59330054  0.85762622  1
  O2-  O453  1  0.42190700  0.83479669  0.18590675  1
  O2-  O454  1  0.42573999  0.83108889  0.51515540  1
  O2-  O455  1  0.34897351  0.79174307  0.91223481  1
  O2-  O456  1  0.66616741  0.08241280  0.18440594  1
  O2-  O457  1  0.63067981  0.05462822  0.52822349  1
  O2-  O458  1  0.66705470  0.08589125  0.84947008  1
  O2-  O459  1  0.65639108  0.31098057  0.17915415  1
  O2-  O460  1  0.66281387  0.33922205  0.50431180  1
  O2-  O461  1  0.66909110  0.32050598  0.86022367  1
  O2-  O462  1  0.67732179  0.54821829  0.25394211  1
  O2-  O463  1  0.68267312  0.59440277  0.51765950  1
  O2-  O464  1  0.67636915  0.52877222  0.86379172  1
  O2-  O465  1  0.65981493  0.82344807  0.21120391  1
  O2-  O466  1  0.68017345  0.82740281  0.52515851  1
  O2-  O467  1  0.67207653  0.83342384  0.84328270  1
  O2-  O468  1  0.91207491  0.10351504  0.19513813  1
  O2-  O469  1  0.92123315  0.10762701  0.51650054  1
  O2-  O470  1  0.90955090  0.06526807  0.84216136  1
  O2-  O471  1  0.94960292  0.38361519  0.19764880  1
  O2-  O472  1  0.82492160  0.28015272  0.53734069  1
  O2-  O473  1  0.94081512  0.32354363  0.80515932  1
  O2-  O474  1  0.90462784  0.56706113  0.20076433  1
  O2-  O475  1  0.92908832  0.58794908  0.53207525  1
  O2-  O476  1  0.94049526  0.61609483  0.85510154  1
  O2-  O477  1  0.89373463  0.81905224  0.19617276  1
  O2-  O478  1  0.89840738  0.76559356  0.51155020  1
  O2-  O479  1  0.87272563  0.82625070  0.86581908  1
  O2-  O480  1  0.16854232  0.08068521  0.31428764  1
  O2-  O481  1  0.04944536  0.00957281  0.62422163  1
  O2-  O482  1  0.19205261  0.02354325  0.96689246  1
  O2-  O483  1  0.16165140  0.32803189  0.31325392  1
  O2-  O484  1  0.16338367  0.33842137  0.64181516  1
  O2-  O485  1  0.20164559  0.34209739  0.98088532  1
  O2-  O486  1  0.19188139  0.60040378  0.32312881  1
  O2-  O487  1  0.15983262  0.57673844  0.63516889  1
  O2-  O488  1  0.16476033  0.58258766  0.99447491  1
  O2-  O489  1  0.16261156  0.83196451  0.31307442  1
  O2-  O490  1  0.15684969  0.83132704  0.63688179  1
  O2-  O491  1  0.22248576  0.89014474  0.95589221  1
  O2-  O492  1  0.41158260  0.07265944  0.30973519  1
  O2-  O493  1  0.44282991  0.03188810  0.62960414  1
  O2-  O494  1  0.44250386  0.08803432  0.97828630  1
  O2-  O495  1  0.41490639  0.34216387  0.31215855  1
  O2-  O496  1  0.43263121  0.36250488  0.67829876  1
  O2-  O497  1  0.41664002  0.32244658  0.97788656  1
  O2-  O498  1  0.38292858  0.58560549  0.32453894  1
  O2-  O499  1  0.40247956  0.61330981  0.63173786  1
  O2-  O500  1  0.42593814  0.57832212  0.98317674  1
  O2-  O501  1  0.37771254  0.81863787  0.30701024  1
  O2-  O502  1  0.44926948  0.89137274  0.63752146  1
  O2-  O503  1  0.40068513  0.81011375  0.96825422  1
  O2-  O504  1  0.67286864  0.08368094  0.30625424  1
  O2-  O505  1  0.67357344  0.07873959  0.64763793  1
  O2-  O506  1  0.66721457  0.06689842  0.97052979  1
  O2-  O507  1  0.63467023  0.31352237  0.29835611  1
  O2-  O508  1  0.65494162  0.31983218  0.63090088  1
  O2-  O509  1  0.67034242  0.33029331  0.97888505  1
  O2-  O510  1  0.63820078  0.60352895  0.25585862  1
  O2-  O511  1  0.67836673  0.52494620  0.63509403  1
  O2-  O512  1  0.65933757  0.57536370  0.98455295  1
  O2-  O513  1  0.65911497  0.82068447  0.33552879  1
  O2-  O514  1  0.65995276  0.83141430  0.65470394  1
  O2-  O515  1  0.64553761  0.81353569  0.96788376  1
  O2-  O516  1  0.91145765  0.06133964  0.32924008  1
  O2-  O517  1  0.91996247  0.08592983  0.63948011  1
  O2-  O518  1  0.82027627  0.04792561  0.96127670  1
  O2-  O519  1  0.93785079  0.33672049  0.32267443  1
  O2-  O520  1  0.89932813  0.32538176  0.65986954  1
  O2-  O521  1  0.92281974  0.34696273  0.96798898  1
  O2-  O522  1  0.93719885  0.59060883  0.32391440  1
  O2-  O523  1  0.92465420  0.58684789  0.65411706  1
  O2-  O524  1  0.91481438  0.58601132  0.97444465  1
  O2-  O525  1  0.90432374  0.81961260  0.32018293  1
  O2-  O526  1  0.89435707  0.79719219  0.63231654  1
  O2-  O527  1  0.87772133  0.83472593  0.99333510  1
  O2-  O528  1  0.05276392  0.22009118  0.05393592  1
  O2-  O529  1  0.08482646  0.16181750  0.35203239  1
  O2-  O530  1  0.10609588  0.16873820  0.68883772  1
  O2-  O531  1  0.09664046  0.41513362  0.01240036  1
  O2-  O532  1  0.10479732  0.43170875  0.35879585  1
  O2-  O533  1  0.07314177  0.41235273  0.67614575  1
  O2-  O534  1  0.07107504  0.64736773  0.04107624  1
  O2-  O535  1  0.09824294  0.66881465  0.36205119  1
  O2-  O536  1  0.09154148  0.68298964  0.68081977  1
  O2-  O537  1  0.05531578  0.91119070  0.03622448  1
  O2-  O538  1  0.07802947  0.90798701  0.35054406  1
  O2-  O539  1  0.06533337  0.88944947  0.67362465  1
  O2-  O540  1  0.34488047  0.15760564  0.01806975  1
  O2-  O541  1  0.34085095  0.17345988  0.34781639  1
  O2-  O542  1  0.41004645  0.19562861  0.70469628  1
  O2-  O543  1  0.35127423  0.42137601  0.02742567  1
  O2-  O544  1  0.32063010  0.41758835  0.35726461  1
  O2-  O545  1  0.33119263  0.44504228  0.68303723  1
  O2-  O546  1  0.34124453  0.66004164  0.02516985  1
  O2-  O547  1  0.27718699  0.64956059  0.35191820  1
  O2-  O548  1  0.38232974  0.72865403  0.69117385  1
  O2-  O549  1  0.36526140  0.92382752  0.02094933  1
  O2-  O550  1  0.31745020  0.91016607  0.34976414  1
  O2-  O551  1  0.30665522  0.96971148  0.69563973  1
  O2-  O552  1  0.60282910  0.16320458  0.02538480  1
  O2-  O553  1  0.57599340  0.15162621  0.34651535  1
  O2-  O554  1  0.58651105  0.16509388  0.67976417  1
  O2-  O555  1  0.58838772  0.41265103  0.02406635  1
  O2-  O556  1  0.58889320  0.42170353  0.33436094  1
  O2-  O557  1  0.60818329  0.44263906  0.65697636  1
  O2-  O558  1  0.58313343  0.65935052  0.02893827  1
  O2-  O559  1  0.53982474  0.67503157  0.39148751  1
  O2-  O560  1  0.57052225  0.67074763  0.67404536  1
  O2-  O561  1  0.55559234  0.89087144  -0.06371128  1
  O2-  O562  1  0.59188829  0.92105545  0.36013815  1
  O2-  O563  1  0.58446286  0.93525113  0.69509187  1
  O2-  O564  1  0.90327964  0.20328797  0.01842385  1
  O2-  O565  1  0.83909738  0.16422114  0.35759151  1
  O2-  O566  1  0.82742637  0.15999546  0.68681513  1
  O2-  O567  1  0.83145950  0.42410542  0.01427480  1
  O2-  O568  1  0.87495518  0.43661106  0.36302737  1
  O2-  O569  1  0.84095848  0.43460125  0.71106909  1
  O2-  O570  1  0.82690666  0.66277332  0.02626342  1
  O2-  O571  1  0.85892461  0.66005776  0.37249034  1
  O2-  O572  1  0.82039949  0.64725389  0.69106228  1
  O2-  O573  1  0.78970271  0.91362810  0.03666975  1
  O2-  O574  1  0.82831225  0.90503716  0.36966911  1
  O2-  O575  1  0.84172901  0.91253506  0.65807433  1
