# generated using pymatgen
data_H2O
_symmetry_space_group_name_H-M   'P 1'
_cell_length_a   17.98673104
_cell_length_b   17.98927779
_cell_length_c   21.99200370
_cell_angle_alpha   89.97039098
_cell_angle_beta   90.01713618
_cell_angle_gamma   120.00890691
_symmetry_Int_Tables_number   1
_chemical_formula_structural   H2O
_chemical_formula_sum   'H384 O192'
_cell_volume   6162.00939692
_cell_formula_units_Z   192
loop_
 _symmetry_equiv_pos_site_id
 _symmetry_equiv_pos_as_xyz
  1  'x, y, z'
loop_
 _atom_type_symbol
 _atom_type_oxidation_number
  H+  1.0
  O2-  -2.0
loop_
 _atom_site_type_symbol
 _atom_site_label
 _atom_site_symmetry_multiplicity
 _atom_site_fract_x
 _atom_site_fract_y
 _atom_site_fract_z
 _atom_site_occupancy
  H+  H0  1  0.39070438  0.35719109  0.99896892  1
  H+  H1  1  0.00306009  0.39452140  0.33298297  1
  H+  H2  1  0.47988916  0.61660353  0.32544796  1
  H+  H3  1  0.51029470  0.88578481  0.35508825  1
  H+  H4  1  0.53583613  0.78111810  0.29055503  1
  H+  H5  1  0.37958668  0.88118057  0.68339388  1
  H+  H6  1  0.21124064  0.84832869  0.86052674  1
  H+  H7  1  0.11124424  0.12182778  0.47477175  1
  H+  H8  1  0.82819314  0.87986844  0.16064471  1
  H+  H9  1  0.13395534  0.34479037  0.85480294  1
  H+  H10  1  0.01854004  0.62346748  0.82734487  1
  H+  H11  1  0.85848662  0.12290558  0.82780211  1
  H+  H12  1  0.85813494  0.48090835  0.33380840  1
  H+  H13  1  0.18028523  0.53014671  0.80297655  1
  H+  H14  1  0.62560905  0.97234524  0.66817158  1
  H+  H15  1  0.86721018  0.72874683  0.33416802  1
  H+  H16  1  0.38695184  0.86362603  0.17711923  1
  H+  H17  1  0.47331649  0.86328762  0.51101201  1
  H+  H18  1  0.11485370  0.63657915  0.49429631  1
  H+  H19  1  0.84227645  0.40398591  0.78004811  1
  H+  H20  1  0.63739296  0.27565074  0.50868026  1
  H+  H21  1  0.60410854  0.89077617  0.15321115  1
  H+  H22  1  0.38627699  0.76659944  0.99334113  1
  H+  H23  1  0.63994988  0.17378676  0.67663450  1
  H+  H24  1  0.39517474  0.11287546  0.31941438  1
  H+  H25  1  0.42876412  0.08683100  0.22546690  1
  H+  H26  1  0.90300283  0.86808344  0.32000838  1
  H+  H27  1  0.75435684  0.14999933  0.65871764  1
  H+  H28  1  0.24453086  0.62933557  0.33677546  1
  H+  H29  1  0.88599471  0.78124384  0.66476386  1
  H+  H30  1  0.28074569  0.13114275  0.33133731  1
  H+  H31  1  0.61600043  0.65734588  -0.00935106  1
  H+  H32  1  0.37185119  0.22672867  0.83559755  1
  H+  H33  1  0.23148970  0.86047648  0.17599429  1
  H+  H34  1  0.74172072  0.36832553  0.83337788  1
  H+  H35  1  0.02901871  0.13792025  0.00449309  1
  H+  H36  1  0.13770044  0.53995391  0.66223466  1
  H+  H37  1  0.96893907  0.10379346  0.84139005  1
  H+  H38  1  0.39208551  0.27559764  0.13661994  1
  H+  H39  1  0.35729376  0.38797198  0.10190693  1
  H+  H40  1  0.63883743  0.53598525  0.85293298  1
  H+  H41  1  0.17469390  0.32647958  0.94905369  1
  H+  H42  1  0.14280614  0.63434278  0.16345860  1
  H+  H43  1  0.87961523  0.35792926  0.16616066  1
  H+  H44  1  0.87333746  0.46032443  -0.00040297  1
  H+  H45  1  0.07514849  0.25247722  0.48547323  1
  H+  H46  1  0.14079219  0.01231316  0.32484023  1
  H+  H47  1  0.13188042  0.27725324  0.16610810  1
  H+  H48  1  0.17393016  0.07996481  0.90196423  1
  H+  H49  1  0.62217025  0.48256781  0.16052782  1
  H+  H50  1  0.77925746  0.37832032  0.00260586  1
  H+  H51  1  0.22946472  0.63108690  0.66460594  1
  H+  H52  1  0.12414184  0.75919756  0.85187188  1
  H+  H53  1  0.88251838  0.11514580  0.16204837  1
  H+  H54  1  0.38294181  0.77702685  0.50451030  1
  H+  H55  1  0.66209909  0.34281739  0.79046984  1
  H+  H56  1  0.86730503  0.88492895  0.83089425  1
  H+  H57  1  0.89601154  0.52954249  0.16624884  1
  H+  H58  1  0.16340176  0.54379885  0.77647408  1
  H+  H59  1  0.64491976  0.53300640  0.32169799  1
  H+  H60  1  0.08246072  0.67026550  0.77016179  1
  H+  H61  1  0.39461434  0.01526204  0.48597987  1
  H+  H62  1  0.91493339  0.56885310  0.92256249  1
  H+  H63  1  0.66098135  0.07238692  0.64859736  1
  H+  H64  1  0.22746530  0.36001022  0.84603202  1
  H+  H65  1  0.45266975  0.11267650  0.61904875  1
  H+  H66  1  0.27977085  0.38778025  0.66226640  1
  H+  H67  1  0.84623062  0.20083831  1.05046885  1
  H+  H68  1  0.88918942  0.61985654  0.66282452  1
  H+  H69  1  0.62565623  0.27072812  0.16630382  1
  H+  H70  1  0.86069106  0.72784840  0.52713178  1
  H+  H71  1  0.32905585  0.66636422  0.10178278  1
  H+  H72  1  0.56372735  0.16237732  0.05713843  1
  H+  H73  1  0.28105090  0.88956866  0.33512550  1
  H+  H74  1  0.85930855  0.36418219  0.51382499  1
  H+  H75  1  0.28321440  0.47215578  0.79038055  1
  H+  H76  1  0.69487934  0.59515239  0.43866562  1
  H+  H77  1  0.37540845  0.76143371  0.33487697  1
  H+  H78  1  0.89418776  0.61768041  0.16820607  1
  H+  H79  1  0.88234060  -0.01387656  0.33720525  1
  H+  H80  1  0.63425114  0.82304587  0.22432691  1
  H+  H81  1  0.63656972  0.36543588  0.51020619  1
  H+  H82  1  0.77355200  0.38737889  0.15327109  1
  H+  H83  1  0.61429200  0.97169558  0.83321760  1
  H+  H84  1  0.38313275  0.13698872  0.00454515  1
  H+  H85  1  0.27760026  0.37877406  0.01677152  1
  H+  H86  1  0.22244319  0.18732156  0.20456775  1
  H+  H87  1  0.89112386  0.27487418  0.66816117  1
  H+  H88  1  0.39701930  1.02418476  0.31929710  1
  H+  H89  1  0.36014667  0.63063336  1.01009514  1
  H+  H90  1  0.59957877  0.13172982  0.99508554  1
  H+  H91  1  0.86349877  0.63908214  0.33405540  1
  H+  H92  1  0.62071132  0.47693554  0.48756272  1
  H+  H93  1  0.46809607  0.62089287  0.16959874  1
  H+  H94  1  0.63520729  0.86456513  0.51126980  1
  H+  H95  1  0.14539998  0.09939660  0.83764975  1
  H+  H96  1  0.73911537  0.12427025  0.49302581  1
  H+  H97  1  0.13676942  0.61257967  0.99930368  1
  H+  H98  1  0.85408516  0.08806989  0.52533250  1
  H+  H99  1  0.40743179  0.13140037  0.67465280  1
  H+  H100  1  -0.00102509  0.34792116  0.83611815  1
  H+  H101  1  0.73635191  0.62181812  0.32054751  1
  H+  H102  1  0.49292293  0.61339022  0.65481994  1
  H+  H103  1  0.88204302  0.01181570  0.84420717  1
  H+  H104  1  0.88021554  0.14968762  0.67837827  1
  H+  H105  1  0.59917310  0.89153358  0.35089631  1
  H+  H106  1  0.03722418  0.21344939  0.78760361  1
  H+  H107  1  0.13134728  0.53544352  0.16160399  1
  H+  H108  1  0.23065448  0.00832381  0.55259975  1
  H+  H109  1  0.28574616  0.39364867  0.48298686  1
  H+  H110  1  0.64123181  0.77690806  0.84359714  1
  H+  H111  1  0.49389397  0.86489682  0.84598214  1
  H+  H112  1  0.86339243  0.39606049  0.33942242  1
  H+  H113  1  0.72641777  0.10473704  0.84281213  1
  H+  H114  1  0.38904482  -0.02302842  0.68945739  1
  H+  H115  1  0.39462118  0.36675226  0.50469466  1
  H+  H116  1  0.61381517  0.14623811  0.14036275  1
  H+  H117  1  0.39010093  0.06811849  0.54458922  1
  H+  H118  1  0.12371814  0.40181714  0.33993994  1
  H+  H119  1  0.14608086  0.38069673  0.49854702  1
  H+  H120  1  0.38780465  0.27011021  0.66280957  1
  H+  H121  1  0.97945847  0.60804813  0.97794301  1
  H+  H122  1  0.88275347  0.86227677  0.50925387  1
  H+  H123  1  0.76634987  0.87943199  0.49253870  1
  H+  H124  1  0.77816856  0.63947334  0.67533713  1
  H+  H125  1  0.14286312  0.11173049  0.99249947  1
  H+  H126  1  0.14836715  0.29174013  0.31513175  1
  H+  H127  1  0.15380753  0.00101832  0.51624159  1
  H+  H128  1  0.01973260  0.36598668  0.01022914  1
  H+  H129  1  0.36274259  0.37756739  0.67050712  1
  H+  H130  1  0.90766856  0.13536677  0.31859693  1
  H+  H131  1  0.14182245  0.86322504  0.32982166  1
  H+  H132  1  0.62245592  0.77039327  0.16291314  1
  H+  H133  1  0.39017035  0.52994691  0.32284535  1
  H+  H134  1  0.37888372  0.14370041  0.47895385  1
  H+  H135  1  0.38370062  0.27550307  0.31409052  1
  H+  H136  1  0.01253923  0.12526189  0.15648069  1
  H+  H137  1  0.36620055  0.46807480  0.01330146  1
  H+  H138  1  0.03837554  0.14553713  0.32337359  1
  H+  H139  1  0.61837407  0.64632735  0.83295563  1
  H+  H140  1  0.28197519  0.13163113  0.68335164  1
  H+  H141  1  0.38662412  0.77508035  0.17460107  1
  H+  H142  1  0.10885661  0.86974896  0.84208000  1
  H+  H143  1  0.36260868  0.64179989  0.48813617  1
  H+  H144  1  0.61421660  -0.02120132  0.50041763  1
  H+  H145  1  0.98063002  0.86211959  0.84017664  1
  H+  H146  1  0.35665957  0.64403692  0.34331040  1
  H+  H147  1  0.12100043  0.73600395  0.15635514  1
  H+  H148  1  0.10461372  0.13001297  0.16055786  1
  H+  H149  1  0.51699050  0.89252218  0.15791340  1
  H+  H150  1  0.60465813  0.98404698  0.00598437  1
  H+  H151  1  0.62144913  0.72596821  0.67611478  1
  H+  H152  1  0.63494416  0.03427010  0.15474501  1
  H+  H153  1  0.91761427  0.20266258  0.46766396  1
  H+  H154  1  0.89008997  0.77454509  0.83642325  1
  H+  H155  1  0.71694762  0.86258848  0.66528288  1
  H+  H156  1  0.88129754  0.86784447  0.66747354  1
  H+  H157  1  0.85825164  0.21237157  0.83229631  1
  H+  H158  1  0.59765307  -0.03667318  0.64019789  1
  H+  H159  1  0.39350258  0.27720400  0.50304510  1
  H+  H160  1  0.97497078  0.84522819  0.99176446  1
  H+  H161  1  0.86355958  0.24440794  0.48912939  1
  H+  H162  1  0.85312994  0.99586822  0.00935314  1
  H+  H163  1  0.62159920  0.47097202  0.00568794  1
  H+  H164  1  0.77284692  0.14195541  0.13540780  1
  H+  H165  1  0.61881561  0.88423036  0.83558815  1
  H+  H166  1  0.10499362  0.87881930  0.49479322  1
  H+  H167  1  0.87131739  0.02254210  0.17188929  1
  H+  H168  1  0.36812642  0.88436440  0.33436794  1
  H+  H169  1  0.15873927  0.65495962  0.85070273  1
  H+  H170  1  0.12253367  0.25362775  0.65860583  1
  H+  H171  1  0.46819071  0.36517309  0.31110499  1
  H+  H172  1  0.74410190  0.14335966  0.30198346  1
  H+  H173  1  0.61895174  0.73356344  0.49281747  1
  H+  H174  1  0.86685516  0.62353559  1.00086426  1
  H+  H175  1  0.61985720  0.14654071  0.48811419  1
  H+  H176  1  0.74441752  0.88641207  0.16161638  1
  H+  H177  1  0.35758790  0.63758608  0.16425763  1
  H+  H178  1  0.32210465  0.42279561  0.75772653  1
  H+  H179  1  0.37454110  0.48291580  0.48831390  1
  H+  H180  1  0.09524011  0.36353867  0.67707755  1
  H+  H181  1  0.12958793  0.77325701  0.50707382  1
  H+  H182  1  0.09581070  0.11782981  0.50712036  1
  H+  H183  1  0.64699743  0.36353597  0.99509328  1
  H+  H184  1  0.54767726  0.16861046  0.68350047  1
  H+  H185  1  -0.01648672  0.61711419  0.50888438  1
  H+  H186  1  0.13938133  0.01823253  0.67581271  1
  H+  H187  1  0.37827517  0.89633111  0.48634846  1
  H+  H188  1  0.42653673  0.58468893  0.55809745  1
  H+  H189  1  0.12074496  0.96368197  0.83657590  1
  H+  H190  1  0.52171344  0.14039196  0.14865908  1
  H+  H191  1  0.76929852  0.39631819  0.48945446  1
  H+  H192  1  0.57847232  0.91697592  0.44264381  1
  H+  H193  1  0.11399742  0.37796925  1.01249357  1
  H+  H194  1  0.03083447  0.65341390  0.67631525  1
  H+  H195  1  0.52787045  0.14329209  0.33272450  1
  H+  H196  1  1.03152957  0.64523364  0.15336136  1
  H+  H197  1  0.48706098  0.82785861  0.68298124  1
  H+  H198  1  1.02432394  0.40850614  0.15593528  1
  H+  H199  1  0.77436329  0.63947986  0.83534587  1
  H+  H200  1  0.63960970  0.10909933  0.84174509  1
  H+  H201  1  0.23657837  0.62747435  0.16447912  1
  H+  H202  1  0.28904978  0.13294776  0.49018542  1
  H+  H203  1  0.40309483  0.11761679  0.86030135  1
  H+  H204  1  0.85972490  0.63361582  0.83594471  1
  H+  H205  1  0.42255126  0.82955417  0.90591379  1
  H+  H206  1  0.14420149  0.10356311  0.31698122  1
  H+  H207  1  0.87500060  0.48048717  0.83527038  1
  H+  H208  1  0.61372400  0.83227055  0.66839730  1
  H+  H209  1  0.94872317  0.11437635  0.51398931  1
  H+  H210  1  0.88049892  0.73037058  0.16145503  1
  H+  H211  1  0.61424951  0.74356199  1.00181455  1
  H+  H212  1  0.38448202  0.36253893  0.84936197  1
  H+  H213  1  0.89166130  0.53073695  0.50773631  1
  H+  H214  1  0.67353505  0.59075591  0.22643685  1
  H+  H215  1  0.23486039  0.38066329  0.32107929  1
  H+  H216  1  0.65972793  0.59537597  1.03415619  1
  H+  H217  1  0.28735574  0.66569945  0.83825952  1
  H+  H218  1  0.88061245  0.34930203  0.85041844  1
  H+  H219  1  0.87224874  0.71738095  -0.00056691  1
  H+  H220  1  0.11360108  0.72538459  0.34094308  1
  H+  H221  1  0.63700068  0.52094370  0.66448808  1
  H+  H222  1  0.02144243  0.89028233  0.49586687  1
  H+  H223  1  0.61562530  0.39227917  0.33526884  1
  H+  H224  1  0.87219917  0.40275277  0.67643563  1
  H+  H225  1  0.65295903  0.13664730  0.30675494  1
  H+  H226  1  0.48781281  0.11289195  0.85232537  1
  H+  H227  1  0.48104493  0.35894450  0.99573034  1
  H+  H228  1  0.72957698  0.36368633  0.31419995  1
  H+  H229  1  0.92402576  0.86033649  0.17188289  1
  H+  H230  1  -0.01344454  0.11339220  0.66677551  1
  H+  H231  1  0.62909939  0.36520374  0.17249685  1
  H+  H232  1  0.52438148  0.39920485  0.84057342  1
  H+  H233  1  0.89984421  0.14203126  0.98658045  1
  H+  H234  1  0.35322877  0.73927790  0.67308108  1
  H+  H235  1  0.39619446  0.53764678  0.83968116  1
  H+  H236  1  0.79903259  0.28325546  0.55215427  1
  H+  H237  1  0.52798000  0.14106454  0.49011759  1
  H+  H238  1  0.37398642  0.22079606  1.00165983  1
  H+  H239  1  0.61437128  0.63922171  0.15341158  1
  H+  H240  1  0.23068654  0.10792269  0.99065912  1
  H+  H241  1  0.11251549  0.22908743  0.82953155  1
  H+  H242  1  0.28705116  0.13451449  0.83440846  1
  H+  H243  1  0.32827419  0.90407225  0.10360921  1
  H+  H244  1  0.39531407  0.11431415  0.16613149  1
  H+  H245  1  0.60166505  0.75690296  0.31693698  1
  H+  H246  1  0.52113721  0.39399576  0.68020403  1
  H+  H247  1  0.02020823  -0.10434343  0.68346020  1
  H+  H248  1  0.14167345  0.26606745  0.00691608  1
  H+  H249  1  0.11782157  0.65113966  0.67562117  1
  H+  H250  1  0.62295990  0.22574489  0.83463062  1
  H+  H251  1  0.34713086  0.86648866  0.01093881  1
  H+  H252  1  0.10696324  -0.03383801  1.00415647  1
  H+  H253  1  0.47188151  0.86081036  0.99399563  1
  H+  H254  1  0.86459989  0.64045518  0.52689329  1
  H+  H255  1  0.85440675  -0.03363514  0.49562278  1
  H+  H256  1  0.87029120  0.49219170  0.67431617  1
  H+  H257  1  0.23199869  0.62088026  0.50636761  1
  H+  H258  1  0.39546322  0.77005337  0.83982560  1
  H+  H259  1  0.36962408  0.64926939  0.83232145  1
  H+  H260  1  0.72197647  0.14336821  0.99029541  1
  H+  H261  1  0.35049913  -0.03154537  0.84279679  1
  H+  H262  1  0.89763043  0.57155197  0.79773658  1
  H+  H263  1  0.08984884  0.43265101  0.82903063  1
  H+  H264  1  0.47307212  0.61242106  -0.00294511  1
  H+  H265  1  0.65435870  0.29106154  0.66376736  1
  H+  H266  1  0.88586709  0.25386241  0.32668872  1
  H+  H267  1  0.73470435  0.61894628  0.16794871  1
  H+  H268  1  0.84553449  0.66923736  0.10050405  1
  H+  H269  1  0.86342736  0.22784486  0.14330300  1
  H+  H270  1  0.11774215  0.63870719  0.34191364  1
  H+  H271  1  0.48042484  0.61699740  0.49709894  1
  H+  H272  1  0.35324350  0.92672759  0.42222924  1
  H+  H273  1  0.40543454  0.52494358  0.65214146  1
  H+  H274  1  0.75176525  0.38383459  0.65831802  1
  H+  H275  1  0.63660847  0.27099005  0.31815211  1
  H+  H276  1  0.86048537  -0.01962924  0.68342536  1
  H+  H277  1  0.77685967  0.88474373  0.83424480  1
  H+  H278  1  0.12813245  0.13000550  0.67172152  1
  H+  H279  1  0.02156867  0.86096095  0.16434901  1
  H+  H280  1  0.12762272  0.48776763  0.49892789  1
  H+  H281  1  1.00036084  0.36957449  0.67317295  1
  H+  H282  1  0.62257539  0.64372589  0.33517500  1
  H+  H283  1  0.14056923  0.85816186  0.17226587  1
  H+  H284  1  0.48589909  0.62495938  0.84285445  1
  H+  H285  1  0.36688684  0.97407578  0.15810989  1
  H+  H286  1  0.02956912  0.88579418  0.33908905  1
  H+  H287  1  0.52914952  0.38884050  0.49597467  1
  H+  H288  1  0.81835485  0.93302411  0.06656059  1
  H+  H289  1  0.59257501  0.41396041  0.06501345  1
  H+  H290  1  0.91712215  0.08323218  0.61280325  1
  H+  H291  1  0.08837597  0.68218111  0.05788257  1
  H+  H292  1  0.25658323  0.87357419  0.65766820  1
  H+  H293  1  0.93464052  0.83163400  0.26317329  1
  H+  H294  1  0.25114391  0.84321710  0.02164549  1
  H+  H295  1  0.11001779  0.95651433  0.15537720  1
  H+  H296  1  0.09800289  0.43081270  0.43834258  1
  H+  H297  1  0.74131929  0.61946013  0.50298993  1
  H+  H298  1  0.87130292  0.32971601  1.00223739  1
  H+  H299  1  0.41535992  0.59589921  0.23182477  1
  H+  H300  1  0.08288624  0.43577384  0.09570275  1
  H+  H301  1  0.84802962  0.19161735  0.38298838  1
  H+  H302  1  0.92140143  0.58850373  0.60445829  1
  H+  H303  1  0.41528941  0.82588193  0.27442200  1
  H+  H304  1  0.16210372  0.79516864  0.65879455  1
  H+  H305  1  0.34147685  0.16952479  0.38915141  1
  H+  H306  1  0.28705924  0.14176098  0.15437849  1
  H+  H307  1  0.58578560  0.41748136  0.39561613  1
  H+  H308  1  0.10992159  0.17064514  0.37599384  1
  H+  H309  1  0.16908270  0.34672055  0.21705799  1
  H+  H310  1  0.17293954  0.59440844  0.56708294  1
  H+  H311  1  0.34239659  0.42238843  0.39167503  1
  H+  H312  1  0.58867414  0.17840092  0.39221345  1
  H+  H313  1  0.36264608  0.38969315  0.32915973  1
  H+  H314  1  0.09572790  0.16395236  0.72936120  1
  H+  H315  1  0.68131323  0.34368818  0.59481283  1
  H+  H316  1  0.32949959  0.67151140  0.42891603  1
  H+  H317  1  0.62284135  0.64635978  0.48508439  1
  H+  H318  1  0.69417926  0.11455320  0.55719715  1
  H+  H319  1  0.08215874  0.15555770  0.06608398  1
  H+  H320  1  0.83461852  0.41096729  0.09492847  1
  H+  H321  1  0.17807236  0.59444177  0.27628579  1
  H+  H322  1  0.84300333  0.17325268  0.73794708  1
  H+  H323  1  0.18598892  0.09660645  0.23393440  1
  H+  H324  1  0.61537408  0.40380533  0.83860795  1
  H+  H325  1  0.46430469  0.09627940  0.95051528  1
  H+  H326  1  0.92681331  0.09586871  0.26053493  1
  H+  H327  1  0.06045702  0.38492476  0.74161993  1
  H+  H328  1  0.59020583  0.67244932  0.77039292  1
  H+  H329  1  0.41140307  0.83237081  0.61325705  1
  H+  H330  1  0.82855874  0.42302689  0.42983457  1
  H+  H331  1  0.41464350  0.58003117  0.93875438  1
  H+  H332  1  0.66443426  0.83136583  0.56949814  1
  H+  H333  1  0.84535694  0.92101962  0.39233186  1
  H+  H334  1  0.12863882  0.49420968  0.34418039  1
  H+  H335  1  0.55332096  0.86089587  0.74037118  1
  H+  H336  1  0.33888313  0.15662183  0.09124532  1
  H+  H337  1  0.27221467  0.63309517  0.01006260  1
  H+  H338  1  0.13601889  0.77557907  0.95073927  1
  H+  H339  1  0.83526285  0.66888975  0.73563238  1
  H+  H340  1  0.67528701  0.10535825  0.20735003  1
  H+  H341  1  0.91841695  0.84571911  0.57205934  1
  H+  H342  1  0.74623582  0.61250302  1.00261923  1
  H+  H343  1  0.92319173  0.58412318  0.26308331  1
  H+  H344  1  0.63171107  0.87231830  0.99255445  1
  H+  H345  1  0.08034449  0.91345505  0.74211885  1
  H+  H346  1  0.31987198  0.67344370  0.73126236  1
  H+  H347  1  0.95834752  0.40837198  0.27613644  1
  H+  H348  1  0.67005911  0.83732676  0.90382779  1
  H+  H349  1  0.41734160  0.33467341  0.90821622  1
  H+  H350  1  0.90384591  0.31344754  0.22008573  1
  H+  H351  1  0.72458208  0.87926515  -0.00399189  1
  H+  H352  1  0.57531101  0.92353447  0.06464579  1
  H+  H353  1  0.41663546  0.32895800  0.60186644  1
  H+  H354  1  0.67430087  0.33535554  0.93551738  1
  H+  H355  1  0.66164818  0.32773847  0.24171661  1
  H+  H356  1  0.08603466  0.91761782  0.40090074  1
  H+  H357  1  0.57734725  0.43099427  0.74035340  1
  H+  H358  1  0.82939965  0.91751832  0.74055090  1
  H+  H359  1  0.18435011  0.34245651  0.54949008  1
  H+  H360  1  0.34485174  0.16838069  0.74148669  1
  H+  H361  1  0.66360219  0.09427993  0.93284027  1
  H+  H362  1  0.53007366  0.39514924  0.14758679  1
  H+  H363  1  0.62433957  0.63851411  0.67865284  1
  H+  H364  1  0.91588733  0.81690712  0.93248459  1
  H+  H365  1  0.18293781  0.06947002  0.61388059  1
  H+  H366  1  0.13116071  0.51999848  0.99667161  1
  H+  H367  1  0.18812076  0.62239468  0.90947733  1
  H+  H368  1  0.90417325  0.30749024  0.90856958  1
  H+  H369  1  0.02445635  0.19107817  0.42980000  1
  H+  H370  1  0.67344853  0.58103386  0.60497567  1
  H+  H371  1  0.17240715  0.83833432  0.56272612  1
  H+  H372  1  0.91805061  0.09221088  0.93433611  1
  H+  H373  1  0.16876606  0.83140595  0.26986117  1
  H+  H374  1  0.59464890  0.17237528  0.77479708  1
  H+  H375  1  0.58362858  0.66837528  0.09380419  1
  H+  H376  1  0.91220258  0.33640857  0.60760403  1
  H+  H377  1  0.09028378  0.28879415  0.60554551  1
  H+  H378  1  0.07982601  0.90359070  0.06106257  1
  H+  H379  1  0.32339081  0.91314340  0.78238917  1
  H+  H380  1  0.59253707  0.67419525  0.39562965  1
  H+  H381  1  0.67359858  0.59738183  0.91069731  1
  H+  H382  1  0.08191887  0.66359009  0.43472914  1
  H+  H383  1  0.97889110  0.61068410  0.32457026  1
  O2-  O384  1  0.07264187  0.15481612  0.14072755  1
  O2-  O385  1  0.01704129  0.20475271  0.47144999  1
  O2-  O386  1  0.06722253  0.18424914  0.80231192  1
  O2-  O387  1  0.07595418  0.45549970  0.13662467  1
  O2-  O388  1  0.10034172  0.42690270  0.48343409  1
  O2-  O389  1  0.05872968  0.37249845  0.81595411  1
  O2-  O390  1  0.09179446  0.67622618  0.13710985  1
  O2-  O391  1  0.08063595  0.66340065  0.48014297  1
  O2-  O392  1  0.07948681  0.66442401  0.81574454  1
  O2-  O393  1  0.08540770  0.89689586  0.14268966  1
  O2-  O394  1  0.08112501  0.91675528  0.47939649  1
  O2-  O395  1  0.08461027  0.90368237  0.82252181  1
  O2-  O396  1  0.34550246  0.16548270  0.13648042  1
  O2-  O397  1  0.34438322  0.17226405  0.46986285  1
  O2-  O398  1  0.34822960  0.16693039  0.82076113  1
  O2-  O399  1  0.36933767  0.37159550  0.14298042  1
  O2-  O400  1  0.34750336  0.42160120  0.47290879  1
  O2-  O401  1  0.30961852  0.43735699  0.79971654  1
  O2-  O402  1  0.32414021  0.66657366  0.14728532  1
  O2-  O403  1  0.33094786  0.67142128  0.47608187  1
  O2-  O404  1  0.34494898  0.68425307  0.81712062  1
  O2-  O405  1  0.33445743  0.91146699  0.14952081  1
  O2-  O406  1  0.35865776  0.93484456  0.46733793  1
  O2-  O407  1  0.30739766  0.91316586  0.82568077  1
  O2-  O408  1  0.58052991  0.17594006  0.12846744  1
  O2-  O409  1  0.58892445  0.17730619  0.47606755  1
  O2-  O410  1  0.59237624  0.16534425  0.81970422  1
  O2-  O411  1  0.59430487  0.42113070  0.14593958  1
  O2-  O412  1  0.58910595  0.41349512  0.47987097  1
  O2-  O413  1  0.58509481  0.43451666  0.82620838  1
  O2-  O414  1  0.58264695  0.66821239  0.13897789  1
  O2-  O415  1  0.59003586  0.67503476  0.47346248  1
  O2-  O416  1  0.58707013  0.67452401  0.81631619  1
  O2-  O417  1  0.57616002  0.92395870  0.13928897  1
  O2-  O418  1  0.58361614  0.91770585  0.48906950  1
  O2-  O419  1  0.58304899  0.90988132  0.82160406  1
  O2-  O420  1  0.83468972  0.17098522  0.12229864  1
  O2-  O421  1  0.85831504  0.19365950  0.46704024  1
  O2-  O422  1  0.83030962  0.15519991  0.81137764  1
  O2-  O423  1  0.83402296  0.41336084  0.14074979  1
  O2-  O424  1  0.83002163  0.42360571  0.47528702  1
  O2-  O425  1  0.83858210  0.40340230  0.82461517  1
  O2-  O426  1  0.84229221  0.66780386  0.14562869  1
  O2-  O427  1  0.82616057  0.66445579  0.53437960  1
  O2-  O428  1  0.83322011  0.66481005  0.81732066  1
  O2-  O429  1  0.80731692  0.91827505  0.14865953  1
  O2-  O430  1  0.82712042  0.90876872  0.47709309  1
  O2-  O431  1  0.83691476  0.91684907  0.81786130  1
  O2-  O432  1  0.19640292  0.12681832  0.19336033  1
  O2-  O433  1  0.20638052  0.04401776  0.54039550  1
  O2-  O434  1  0.17931430  0.07678901  0.85594957  1
  O2-  O435  1  0.16375724  0.33951003  0.17272173  1
  O2-  O436  1  0.16895272  0.33763079  0.50653052  1
  O2-  O437  1  0.17182531  0.32196821  0.86689555  1
  O2-  O438  1  0.17070681  0.59963239  0.17917512  1
  O2-  O439  1  0.17094943  0.58893470  0.52177722  1
  O2-  O440  1  0.20870597  0.65730500  0.87218459  1
  O2-  O441  1  0.17022652  0.82752392  0.19003774  1
  O2-  O442  1  0.15361357  0.83393151  0.51932201  1
  O2-  O443  1  0.15089667  0.81340391  0.87647325  1
  O2-  O444  1  0.42838374  0.08601731  0.17986602  1
  O2-  O445  1  0.42007133  0.08157858  0.50573560  1
  O2-  O446  1  0.43408994  0.08901714  0.87654574  1
  O2-  O447  1  0.42650119  0.33861927  0.12699568  1
  O2-  O448  1  0.42325831  0.33560464  0.52182127  1
  O2-  O449  1  0.41814873  0.33625373  0.86174634  1
  O2-  O450  1  0.40999753  0.59800416  0.18660478  1
  O2-  O451  1  0.42038353  0.58388635  0.51238774  1
  O2-  O452  1  0.42521393  0.59460373  0.85908941  1
  O2-  O453  1  0.41962527  0.83458264  0.19079692  1
  O2-  O454  1  0.41125606  0.83698645  0.52074381  1
  O2-  O455  1  0.42978359  0.83247988  0.85942529  1
  O2-  O456  1  0.66855913  0.09778770  0.16173745  1
  O2-  O457  1  0.68305774  0.10203293  0.51314634  1
  O2-  O458  1  0.66713072  0.07764083  0.86012297  1
  O2-  O459  1  0.65615618  0.32894267  0.18718570  1
  O2-  O460  1  0.66881363  0.33598578  0.52562925  1
  O2-  O461  1  0.67498328  0.34154789  0.83347146  1
  O2-  O462  1  0.67270081  0.58779813  0.18079213  1
  O2-  O463  1  0.68097408  0.58766470  0.48199466  1
  O2-  O464  1  0.67244547  0.59777931  0.86587135  1
  O2-  O465  1  0.64662126  0.83030505  0.17936165  1
  O2-  O466  1  0.66611834  0.83341536  0.52370799  1
  O2-  O467  1  0.67354583  0.83793471  0.85814779  1
  O2-  O468  1  0.90855273  0.08439072  0.18268183  1
  O2-  O469  1  0.89636876  0.07105463  0.53594084  1
  O2-  O470  1  0.90983804  0.07450086  0.85764855  1
  O2-  O471  1  0.91223486  0.32737187  0.17681645  1
  O2-  O472  1  0.85926943  0.31745024  0.54006857  1
  O2-  O473  1  0.90739286  0.31284468  0.86328786  1
  O2-  O474  1  0.92753900  0.58889735  0.18212179  1
  O2-  O475  1  0.92392278  0.58763487  0.52745839  1
  O2-  O476  1  0.90893567  0.55920661  0.83883454  1
  O2-  O477  1  0.93973489  0.82032741  0.18903715  1
  O2-  O478  1  0.91761985  0.83834164  0.52690996  1
  O2-  O479  1  0.91820536  0.83455729  0.85170603  1
  O2-  O480  1  0.17474628  0.07221976  0.30650326  1
  O2-  O481  1  0.17759649  0.07945120  0.65785639  1
  O2-  O482  1  0.17136745  0.08115040  0.97452446  1
  O2-  O483  1  0.17337637  0.35360530  0.30717075  1
  O2-  O484  1  0.12991627  0.30940659  0.64005220  1
  O2-  O485  1  0.17247520  0.32838025  0.99396616  1
  O2-  O486  1  0.17627285  0.59270256  0.32073479  1
  O2-  O487  1  0.16523013  0.59780678  0.64567991  1
  O2-  O488  1  0.16706358  0.58181748  0.98637150  1
  O2-  O489  1  0.17144929  0.83200768  0.31527215  1
  O2-  O490  1  0.20003796  0.84844098  0.63656072  1
  O2-  O491  1  0.13850578  0.77054499  0.99663819  1
  O2-  O492  1  0.42858768  0.08557131  0.30456603  1
  O2-  O493  1  0.44906357  0.11102984  0.66321872  1
  O2-  O494  1  0.46862934  0.09379301  0.99692260  1
  O2-  O495  1  0.40739069  0.33519396  0.29926936  1
  O2-  O496  1  0.41442682  0.33034944  0.64733880  1
  O2-  O497  1  0.42068443  0.32804439  0.98032795  1
  O2-  O498  1  0.42036639  0.59132541  0.30957113  1
  O2-  O499  1  0.43799681  0.58093701  0.63220800  1
  O2-  O500  1  0.41222957  0.57637064  0.98407055  1
  O2-  O501  1  0.41248748  0.82615459  0.31941227  1
  O2-  O502  1  0.41021181  0.82785989  0.65775852  1
  O2-  O503  1  0.41304584  0.82615270  0.97613420  1
  O2-  O504  1  0.68816175  0.12089185  0.28148156  1
  O2-  O505  1  0.69781474  0.13377249  0.63873979  1
  O2-  O506  1  0.66123461  0.10481143  0.97807591  1
  O2-  O507  1  0.66856012  0.33105304  0.29764591  1
  O2-  O508  1  0.68855000  0.34929996  0.64173944  1
  O2-  O509  1  0.68055460  0.33694680  0.97955774  1
  O2-  O510  1  0.67409697  0.59259180  0.30559284  1
  O2-  O511  1  0.67342936  0.58241960  0.64928306  1
  O2-  O512  1  0.67958383  0.58434349  0.99570812  1
  O2-  O513  1  0.59759674  0.80452511  0.29527613  1
  O2-  O514  1  0.66053073  0.82483954  0.64611197  1
  O2-  O515  1  0.66315170  0.84240035  0.97965757  1
  O2-  O516  1  0.93683705  0.10335471  0.30545162  1
  O2-  O517  1  0.92463226  0.09204472  0.65772990  1
  O2-  O518  1  0.92320173  0.10350963  0.97913346  1
  O2-  O519  1  0.94338716  0.37205786  0.31222490  1
  O2-  O520  1  0.92309186  0.33752432  0.65266448  1
  O2-  O521  1  0.90131447  0.29699844  0.98889352  1
  O2-  O522  1  0.91851452  0.57953096  0.30832767  1
  O2-  O523  1  0.91840972  0.58709454  0.65017766  1
  O2-  O524  1  0.91853715  0.56864194  0.96745934  1
  O2-  O525  1  0.93222922  0.83494245  0.30931448  1
  O2-  O526  1  0.91510055  0.84208702  0.65092084  1
  O2-  O527  1  0.91443866  0.80753951  0.97693402  1
  O2-  O528  1  0.08848283  0.16090603  0.02042801  1
  O2-  O529  1  0.10236097  0.17347248  0.33237053  1
  O2-  O530  1  0.09597991  0.16145604  0.68428325  1
  O2-  O531  1  0.08001578  0.40730498  0.02066694  1
  O2-  O532  1  0.09418711  0.43171993  0.35800664  1
  O2-  O533  1  0.06591448  0.39432253  0.69565703  1
  O2-  O534  1  0.08924502  0.67841645  0.01200514  1
  O2-  O535  1  0.08135350  0.66411515  0.35466523  1
  O2-  O536  1  0.08943218  0.68192476  0.69373943  1
  O2-  O537  1  0.07501886  0.90539852  0.01625293  1
  O2-  O538  1  0.09043790  0.91784249  0.35535789  1
  O2-  O539  1  0.08013465  0.92802787  0.69867905  1
  O2-  O540  1  0.34431537  0.15909441  0.01454718  1
  O2-  O541  1  0.34214161  0.16624296  0.34390080  1
  O2-  O542  1  0.34387885  0.16762790  0.69587504  1
  O2-  O543  1  0.34031078  0.40742279  0.02707032  1
  O2-  O544  1  0.33665451  0.42337502  0.34668298  1
  O2-  O545  1  0.33336782  0.41016623  0.68497203  1
  O2-  O546  1  0.33326318  0.66461225  0.02434011  1
  O2-  O547  1  0.32651483  0.67358695  0.35806930  1
  O2-  O548  1  0.31370509  0.67387556  0.68694434  1
  O2-  O549  1  0.31106729  0.88591938  0.03160883  1
  O2-  O550  1  0.34336870  0.92220836  0.34593827  1
  O2-  O551  1  0.35225273  0.91742649  0.70198935  1
  O2-  O552  1  0.55879725  0.15652937  0.00980048  1
  O2-  O553  1  0.58923840  0.18061021  0.34696994  1
  O2-  O554  1  0.61063425  0.20272328  0.69573376  1
  O2-  O555  1  0.58894964  0.41019970  0.01974205  1
  O2-  O556  1  0.58743582  0.42334133  0.35057428  1
  O2-  O557  1  0.58073406  0.42763619  0.69571994  1
  O2-  O558  1  0.58490702  0.68012872  0.01324542  1
  O2-  O559  1  0.58878282  0.67048008  0.35019472  1
  O2-  O560  1  0.59306239  0.66682821  0.69477350  1
  O2-  O561  1  0.57601849  0.92337540  0.01854814  1
  O2-  O562  1  0.57010917  0.91831417  0.37163466  1
  O2-  O563  1  0.53776484  0.82457220  0.70414949  1
  O2-  O564  1  0.84252515  0.20559772  0.00415834  1
  O2-  O565  1  0.85388897  0.19253027  0.33813112  1
  O2-  O566  1  0.85049453  0.18202542  0.69217271  1
  O2-  O567  1  0.84016282  0.40212081  0.01816745  1
  O2-  O568  1  0.82452038  0.41903955  0.34886320  1
  O2-  O569  1  0.83739423  0.42882621  0.68814325  1
  O2-  O570  1  0.83956221  0.65530144  0.01772655  1
  O2-  O571  1  0.83126412  0.66750624  0.34725254  1
  O2-  O572  1  0.83861053  0.67182051  0.69050401  1
  O2-  O573  1  0.81733395  0.93511456  0.02171581  1
  O2-  O574  1  0.85468899  0.92484404  0.34783850  1
  O2-  O575  1  0.82745396  0.91901391  0.69501446  1
