# generated using pymatgen
data_H2O
_symmetry_space_group_name_H-M   'P 1'
_cell_length_a   17.97890910
_cell_length_b   17.98427118
_cell_length_c   22.00448961
_cell_angle_alpha   90.00931258
_cell_angle_beta   89.98286294
_cell_angle_gamma   120.00740081
_symmetry_Int_Tables_number   1
_chemical_formula_structural   H2O
_chemical_formula_sum   'H384 O192'
_cell_volume   6161.20556011
_cell_formula_units_Z   192
loop_
 _symmetry_equiv_pos_site_id
 _symmetry_equiv_pos_as_xyz
  1  'x, y, z'
loop_
 _atom_type_symbol
 _atom_type_oxidation_number
  H+  1.0
  O2-  -2.0
loop_
 _atom_site_type_symbol
 _atom_site_label
 _atom_site_symmetry_multiplicity
 _atom_site_fract_x
 _atom_site_fract_y
 _atom_site_fract_z
 _atom_site_occupancy
  H+  H0  1  0.78550187  0.39139831  0.80640261  1
  H+  H1  1  0.88527968  0.02321631  0.33131605  1
  H+  H2  1  0.67649109  0.82890724  0.90510012  1
  H+  H3  1  0.38178175  0.77687004  0.16888548  1
  H+  H4  1  0.63176794  0.36246246  0.99704074  1
  H+  H5  1  0.64239705  0.87092722  0.67178790  1
  H+  H6  1  0.13264244  0.77013171  0.33867685  1
  H+  H7  1  0.35712386  0.87969904  0.49519667  1
  H+  H8  1  0.65508371  0.78789156  0.67080367  1
  H+  H9  1  0.73030398  0.88142314  0.32995762  1
  H+  H10  1  0.89780453  0.78933043  0.65197266  1
  H+  H11  1  0.64199827  0.51455668  0.49414146  1
  H+  H12  1  0.49214708  0.50479519  0.88365314  1
  H+  H13  1  0.61899720  0.60559082  1.00034310  1
  H+  H14  1  0.63195908  0.03246048  0.49877541  1
  H+  H15  1  0.11379697  0.71660697  -0.00879440  1
  H+  H16  1  0.62522854  0.48280075  0.33463563  1
  H+  H17  1  0.65150669  0.35686880  0.65684250  1
  H+  H18  1  0.52848217  0.13646303  0.99772150  1
  H+  H19  1  0.37460741  0.45034027  0.67725810  1
  H+  H20  1  0.61575402  0.39612530  0.17256698  1
  H+  H21  1  0.27400060  0.63584438  0.16259148  1
  H+  H22  1  0.61490279  0.71772801  0.49946977  1
  H+  H23  1  0.50798748  0.37572085  0.79859959  1
  H+  H24  1  0.16178549  0.75920640  0.90664829  1
  H+  H25  1  0.53756475  0.89824771  0.69093330  1
  H+  H26  1  0.85995334  0.22952785  0.49715764  1
  H+  H27  1  0.35718197  0.49072703  0.49251897  1
  H+  H28  1  0.13836100  0.03115745  0.32599000  1
  H+  H29  1  0.21926243  0.86305951  0.33276660  1
  H+  H30  1  0.63342174  0.02032243  0.16677591  1
  H+  H31  1  0.13615822  0.36368663  0.83741145  1
  H+  H32  1  0.71466778  0.72660761  0.72096571  1
  H+  H33  1  0.11184603  0.47111611  0.34127935  1
  H+  H34  1  0.86742164  0.64245721  0.34608065  1
  H+  H35  1  0.22429259  0.37646536  0.50862975  1
  H+  H36  1  0.84133667  0.91239527  0.76700483  1
  H+  H37  1  0.20973608  0.60186584  0.49716783  1
  H+  H38  1  0.62633782  0.43142539  0.73627494  1
  H+  H39  1  0.41016962  0.24804361  0.49972466  1
  H+  H40  1  0.13577216  0.51876134  0.99843998  1
  H+  H41  1  0.86883834  0.73252670  0.34797876  1
  H+  H42  1  0.69608675  0.58934785  0.97865236  1
  H+  H43  1  0.37213092  0.73793661  0.32401797  1
  H+  H44  1  0.33463810  0.97619849  0.67626503  1
  H+  H45  1  0.27282233  0.40977227  0.83698986  1
  H+  H46  1  0.60733090  0.88002267  0.00319753  1
  H+  H47  1  0.85520684  0.88605592  0.49367460  1
  H+  H48  1  0.85940183  0.88996208  0.34675788  1
  H+  H49  1  0.86632792  0.23260224  0.83091095  1
  H+  H50  1  0.82898380  0.16860569  0.43718981  1
  H+  H51  1  0.87162727  0.35466703  -0.01243139  1
  H+  H52  1  0.28038726  0.39400869  0.15614246  1
  H+  H53  1  0.10566307  0.90244549  0.15888725  1
  H+  H54  1  0.52046587  0.63388586  0.01952937  1
  H+  H55  1  0.13875111  0.60904482  -0.00548364  1
  H+  H56  1  0.11097996  0.13409393  0.01665046  1
  H+  H57  1  0.32565106  0.43545818  0.43144679  1
  H+  H58  1  0.65781572  0.65138712  0.67573674  1
  H+  H59  1  0.39380314  0.01735023  0.97410549  1
  H+  H60  1  0.61018240  0.22757824  0.49304221  1
  H+  H61  1  0.14025918  0.27442418  0.32339300  1
  H+  H62  1  0.63804852  0.60360154  0.50066802  1
  H+  H63  1  0.52521363  0.15619101  0.81898375  1
  H+  H64  1  0.12794884  0.01773042  1.00456378  1
  H+  H65  1  0.62503092  0.65179850  0.16689582  1
  H+  H66  1  0.62131083  0.65801117  0.33861665  1
  H+  H67  1  0.91839438  0.59008534  0.27201587  1
  H+  H68  1  0.88217026  0.66711999  0.62964693  1
  H+  H69  1  0.97475728  0.60817948  0.98089718  1
  H+  H70  1  0.77057130  0.36340184  0.15078378  1
  H+  H71  1  0.89310181  0.64398345  0.17632530  1
  H+  H72  1  0.35592736  0.12029149  0.67431715  1
  H+  H73  1  0.87226402  0.90152813  0.66795165  1
  H+  H74  1  0.41328750  0.62958890  0.53003192  1
  H+  H75  1  0.14436972  0.27767568  0.17367817  1
  H+  H76  1  0.64359954  0.77014607  0.84548002  1
  H+  H77  1  0.60548184  0.13035081  0.15627669  1
  H+  H78  1  0.12321629  0.60047624  0.50900978  1
  H+  H79  1  0.58489857  0.54698347  0.91375131  1
  H+  H80  1  0.12324821  0.89796172  0.03035377  1
  H+  H81  1  0.27574383  0.63890986  0.00879384  1
  H+  H82  1  0.88819244  0.51630592  0.97813873  1
  H+  H83  1  0.92101212  0.86672269  0.80300392  1
  H+  H84  1  0.59782619  0.12904928  0.34759267  1
  H+  H85  1  0.73432516  0.61814385  0.83232676  1
  H+  H86  1  0.46492668  0.34800733  0.04484638  1
  H+  H87  1  0.71809866  0.36033893  0.49837459  1
  H+  H88  1  0.64156194  0.11563208  0.67941623  1
  H+  H89  1  0.72509130  0.10682836  0.00277793  1
  H+  H90  1  0.15642202  0.51498608  0.65943016  1
  H+  H91  1  0.52212608  0.89936074  0.47452452  1
  H+  H92  1  0.18328547  0.08290262  0.56066483  1
  H+  H93  1  0.72151074  0.11939699  0.50618813  1
  H+  H94  1  0.35118869  0.65981656  0.80877941  1
  H+  H95  1  0.31754495  0.15820848  0.76179493  1
  H+  H96  1  0.14001450  0.36339703  0.32517437  1
  H+  H97  1  0.31483018  0.68132152  0.41056231  1
  H+  H98  1  0.22076996  0.10226079  1.00384449  1
  H+  H99  1  0.39914627  0.01365274  0.51537393  1
  H+  H100  1  0.63510573  0.86971802  0.17323030  1
  H+  H101  1  0.77318820  0.13746137  0.16444064  1
  H+  H102  1  0.46399034  0.64700643  0.81663518  1
  H+  H103  1  0.88215940  0.67811752  0.70172747  1
  H+  H104  1  0.37072399  0.64738780  0.32833632  1
  H+  H105  1  0.17692632  0.12581272  0.49805307  1
  H+  H106  1  0.04214680  0.65162953  0.67393162  1
  H+  H107  1  0.39189649  0.53520239  0.32455831  1
  H+  H108  1  0.40054108  0.29356946  0.31776483  1
  H+  H109  1  0.98221165  0.45825517  0.08815528  1
  H+  H110  1  0.91831000  0.36572155  0.16779462  1
  H+  H111  1  0.61864269  0.13865304  0.49642655  1
  H+  H112  1  0.77725868  0.38719226  0.33719046  1
  H+  H113  1  0.11059044  0.89195035  0.34451492  1
  H+  H114  1  0.13569406  0.64496395  0.85230277  1
  H+  H115  1  0.38725842  0.52239567  1.03137868  1
  H+  H116  1  0.02486944  0.63515313  0.34415902  1
  H+  H117  1  0.39042469  0.10349999  -0.01724374  1
  H+  H118  1  0.84298729  0.09186192  0.51895769  1
  H+  H119  1  0.77422025  0.40691087  0.15362054  1
  H+  H120  1  0.00579514  0.15587493  0.85403563  1
  H+  H121  1  0.86122739  0.47138911  0.49209895  1
  H+  H122  1  0.49721909  0.30904730  0.53193345  1
  H+  H123  1  0.11953808  0.47228520  0.17317785  1
  H+  H124  1  0.95067888  0.79788435  0.78320735  1
  H+  H125  1  0.90598815  0.52313625  0.82118060  1
  H+  H126  1  0.14721507  0.27998912  0.83436107  1
  H+  H127  1  0.11766262  0.14966111  0.16509345  1
  H+  H128  1  0.88096944  0.75909096  0.18030457  1
  H+  H129  1  0.59374475  0.21273671  0.16242368  1
  H+  H130  1  0.88457362  0.60705669  0.51254697  1
  H+  H131  1  0.86229573  0.54454158  0.17773645  1
  H+  H132  1  0.01867174  0.63195395  0.49733789  1
  H+  H133  1  0.22064885  0.35227506  0.66664664  1
  H+  H134  1  0.84521870  0.60507291  -0.01944049  1
  H+  H135  1  0.35827571  0.20769821  0.02050033  1
  H+  H136  1  0.54100489  0.41564515  0.16925894  1
  H+  H137  1  0.38154395  0.11683849  0.50261049  1
  H+  H138  1  0.21736752  0.86057508  0.51280257  1
  H+  H139  1  1.02306775  0.13353238  0.67347990  1
  H+  H140  1  0.88893357  0.52412222  0.32796795  1
  H+  H141  1  0.97295475  0.35325625  0.33129348  1
  H+  H142  1  0.27381567  0.86329763  0.97195721  1
  H+  H143  1  0.23381510  0.65286838  0.67614542  1
  H+  H144  1  0.37471548  0.55932947  0.82670233  1
  H+  H145  1  0.61714872  0.24265138  0.81737179  1
  H+  H146  1  0.25834049  0.71428841  0.44128097  1
  H+  H147  1  0.41410416  0.84535056  0.22328699  1
  H+  H148  1  0.09678113  0.75424503  0.67486169  1
  H+  H149  1  0.51851558  0.88822280  0.15381488  1
  H+  H150  1  0.14022719  0.01480099  0.64686717  1
  H+  H151  1  0.85302865  0.12586443  0.34094889  1
  H+  H152  1  0.86270862  0.98507814  0.16323778  1
  H+  H153  1  0.73890959  0.61375562  0.64350945  1
  H+  H154  1  0.61942963  0.73828661  0.16688065  1
  H+  H155  1  0.76202866  0.62941699  0.86023953  1
  H+  H156  1  0.03486212  0.24735506  -0.06229961  1
  H+  H157  1  0.88253211  0.36215481  0.51025035  1
  H+  H158  1  0.22596011  0.10372107  0.65544914  1
  H+  H159  1  0.65206505  1.03296347  0.68753808  1
  H+  H160  1  0.77197099  0.63128673  0.49916272  1
  H+  H161  1  0.48978003  0.10485627  0.51439136  1
  H+  H162  1  0.64318161  0.37599638  0.83410153  1
  H+  H163  1  0.36584842  0.27961944  0.79650718  1
  H+  H164  1  0.36793748  0.15492783  0.32705377  1
  H+  H165  1  0.35505808  0.88191490  0.14208586  1
  H+  H166  1  0.99916649  0.70567581  0.74081941  1
  H+  H167  1  0.92639451  0.10113282  0.94501550  1
  H+  H168  1  0.28179479  0.39586746  0.33484580  1
  H+  H169  1  0.88920257  0.88365422  0.18354334  1
  H+  H170  1  0.05795351  0.65998210  0.84487443  1
  H+  H171  1  0.65557168  0.48679403  0.67601199  1
  H+  H172  1  1.00874072  0.39047989  1.00145966  1
  H+  H173  1  0.04903054  0.78561264  0.21206396  1
  H+  H174  1  0.97638180  0.82631368  1.04095252  1
  H+  H175  1  0.39971953  0.88264738  0.32205826  1
  H+  H176  1  0.38652379  0.64739338  0.66572386  1
  H+  H177  1  0.63154721  0.31132636  0.24779862  1
  H+  H178  1  0.84358240  0.17098661  0.77408969  1
  H+  H179  1  0.49116018  0.61667339  0.50724882  1
  H+  H180  1  0.84574426  0.21020743  0.33863989  1
  H+  H181  1  0.93002558  0.65277744  0.79046408  1
  H+  H182  1  0.73708283  0.10365776  0.84701406  1
  H+  H183  1  0.38691157  0.60601508  0.00957931  1
  H+  H184  1  0.08166584  0.66209556  0.40512228  1
  H+  H185  1  0.49143074  0.89227569  0.31310590  1
  H+  H186  1  0.96927449  0.10502497  1.00824376  1
  H+  H187  1  0.84875017  0.97359267  0.00782022  1
  H+  H188  1  0.37147408  0.02740856  0.12580783  1
  H+  H189  1  0.91826457  0.16012112  0.85613250  1
  H+  H190  1  0.48560544  0.62563563  0.17197924  1
  H+  H191  1  0.36604409  0.15873233  0.15243419  1
  H+  H192  1  0.01559497  0.63583890  0.15708677  1
  H+  H193  1  0.89412688  0.26678486  0.17532777  1
  H+  H194  1  0.86269975  0.13666100  0.16559657  1
  H+  H195  1  0.46865394  0.12556900  0.36985436  1
  H+  H196  1  0.56949921  0.62275377  0.83330522  1
  H+  H197  1  0.38866655  0.76483267  -0.00449918  1
  H+  H198  1  1.02316577  0.38679172  0.82919743  1
  H+  H199  1  0.77641366  0.14578160  0.68803623  1
  H+  H200  1  0.14271055  0.02695269  0.86052440  1
  H+  H201  1  0.36117043  -0.00189509  0.35527797  1
  H+  H202  1  0.36032249  0.38120303  1.06611320  1
  H+  H203  1  0.47225116  0.10131761  0.67220249  1
  H+  H204  1  0.23085563  0.13088231  0.17396022  1
  H+  H205  1  0.14977820  0.84100124  0.56675773  1
  H+  H206  1  0.14072156  0.82727489  0.93315780  1
  H+  H207  1  0.08691432  0.37825872  0.00273214  1
  H+  H208  1  0.10300819  0.46364782  0.49298649  1
  H+  H209  1  0.03051849  0.37282776  0.17512870  1
  H+  H210  1  0.59777436  0.21013466  0.66600641  1
  H+  H211  1  0.87800197  0.26829408  0.99242560  1
  H+  H212  1  0.38635040  0.85677937  -0.01815517  1
  H+  H213  1  0.66202575  0.82091857  0.57191667  1
  H+  H214  1  0.11791476  -0.01924545  0.49316186  1
  H+  H215  1  0.83566198  -0.03537817  0.50172538  1
  H+  H216  1  0.02438458  0.11781601  0.48537946  1
  H+  H217  1  0.57505509  0.45918187  0.83094557  1
  H+  H218  1  0.38800145  0.11405911  0.41121386  1
  H+  H219  1  0.59433923  0.67330779  0.76995875  1
  H+  H220  1  0.48683022  0.58244505  0.66436983  1
  H+  H221  1  0.88940249  0.74119833  0.01963250  1
  H+  H222  1  0.59238752  0.46490712  0.01358012  1
  H+  H223  1  0.10982258  0.12734386  0.66851747  1
  H+  H224  1  0.74759501  0.64037835  0.17442766  1
  H+  H225  1  0.13002198  0.60216323  0.17149588  1
  H+  H226  1  0.88860646  0.03498038  0.66911333  1
  H+  H227  1  0.16119876  0.57925242  0.23364506  1
  H+  H228  1  0.33742964  0.94995521  0.29405167  1
  H+  H229  1  0.13717435  0.61260444  0.32830817  1
  H+  H230  1  0.12125990  0.14028402  0.82912638  1
  H+  H231  1  0.97712908  0.87152019  0.33733155  1
  H+  H232  1  0.39600359  0.65894524  0.69878283  1
  H+  H233  1  0.73246219  0.62715198  0.33279842  1
  H+  H234  1  0.49307297  0.38066461  0.33048106  1
  H+  H235  1  0.86561986  0.38558912  0.33731842  1
  H+  H236  1  1.03705309  0.87712306  0.65521491  1
  H+  H237  1  0.28204033  0.15538765  0.31243479  1
  H+  H238  1  0.36682845  0.64305926  0.16157596  1
  H+  H239  1  0.39124399  0.28343681  1.09108358  1
  H+  H240  1  0.04139838  0.88883610  0.83652520  1
  H+  H241  1  0.89121518  0.36742343  0.83468234  1
  H+  H242  1  0.95418086  0.50540926  0.13420591  1
  H+  H243  1  0.92154564  0.49205217  0.65184051  1
  H+  H244  1  0.37833672  0.77730474  0.49170838  1
  H+  H245  1  0.22762488  0.61640092  0.31994940  1
  H+  H246  1  0.54202788  0.40258459  0.47295338  1
  H+  H247  1  0.98002603  0.12276138  0.17714590  1
  H+  H248  1  0.71613314  0.84628679  0.51052671  1
  H+  H249  1  0.14128332  0.03997348  0.16835633  1
  H+  H250  1  0.63747891  0.79805711  0.32996001  1
  H+  H251  1  0.60732346  -0.02877495  1.00450090  1
  H+  H252  1  0.10694008  0.72208046  0.49967374  1
  H+  H253  1  0.07083829  0.89278770  -0.04603593  1
  H+  H254  1  0.10393135  0.71791350  0.16152961  1
  H+  H255  1  0.13312292  0.26331726  0.66216154  1
  H+  H256  1  0.37439256  0.40349838  0.34030480  1
  H+  H257  1  0.37840685  0.37323663  0.81254099  1
  H+  H258  1  0.86292397  0.13595669  1.01186926  1
  H+  H259  1  0.13236481  0.38014070  0.17466162  1
  H+  H260  1  0.62896275  0.88316975  0.83377214  1
  H+  H261  1  0.66158106  0.54679755  0.17579999  1
  H+  H262  1  0.62599758  0.97022130  0.83638261  1
  H+  H263  1  0.86439209  0.23802574  0.68443993  1
  H+  H264  1  0.91902202  0.84634013  0.27819256  1
  H+  H265  1  0.21295849  0.72076715  0.70635087  1
  H+  H266  1  0.97678949  0.09840208  0.49069101  1
  H+  H267  1  0.60130777  0.42799790  0.39923427  1
  H+  H268  1  0.63103348  0.77314665  0.99956478  1
  H+  H269  1  0.16399058  0.25144568  0.48734538  1
  H+  H270  1  1.02774533  0.39336442  0.67792365  1
  H+  H271  1  0.10883800  0.37758296  0.67702757  1
  H+  H272  1  0.89501438  0.56089747  0.66722863  1
  H+  H273  1  0.35404337  0.32768252  0.63939046  1
  H+  H274  1  0.63815628  0.27550538  0.33692360  1
  H+  H275  1  0.63786567  0.93244385  0.32381083  1
  H+  H276  1  0.26593126  0.87957511  0.13626429  1
  H+  H277  1  0.37837830  0.78568068  0.65585714  1
  H+  H278  1  0.34970488  0.20638296  0.66614416  1
  H+  H279  1  0.71943186  0.86494495  0.00035626  1
  H+  H280  1  0.40470094  0.38565766  0.17934261  1
  H+  H281  1  0.26805001  0.14404798  0.82616211  1
  H+  H282  1  0.63512972  0.37165884  0.48883643  1
  H+  H283  1  0.10821314  0.88748553  0.49195620  1
  H+  H284  1  0.46298160  0.11185662  0.12971252  1
  H+  H285  1  0.11268875  0.13958397  0.33315229  1
  H+  H286  1  0.39645133  0.53670974  0.16754374  1
  H+  H287  1  -0.01769416  0.89218959  0.18054402  1
  H+  H288  1  0.63783469  0.11016336  0.99644651  1
  H+  H289  1  0.42173048  0.09409879  0.88540535  1
  H+  H290  1  0.08574003  0.17726810  0.10577410  1
  H+  H291  1  0.45182350  0.05298192  0.24922776  1
  H+  H292  1  0.84110726  0.42134514  0.05485678  1
  H+  H293  1  0.63607779  0.27614247  0.98994299  1
  H+  H294  1  0.82256168  0.91701817  0.06752281  1
  H+  H295  1  0.17433150  0.57220989  0.90772996  1
  H+  H296  1  0.08073800  0.66932009  0.05688457  1
  H+  H297  1  0.57745712  0.16796989  0.73306806  1
  H+  H298  1  0.25163164  0.63807061  0.82857457  1
  H+  H299  1  0.29437881  0.11812026  0.48827466  1
  H+  H300  1  0.97010252  0.35938746  0.51188362  1
  H+  H301  1  0.91304545  0.34829247  0.60893460  1
  H+  H302  1  0.91461730  0.33641718  0.89786666  1
  H+  H303  1  0.09288458  0.21321403  0.00642359  1
  H+  H304  1  0.66825045  0.57869135  0.59122864  1
  H+  H305  1  0.41771012  0.07078927  0.61093204  1
  H+  H306  1  0.66738060  0.84815238  0.23553979  1
  H+  H307  1  0.59147862  0.42202963  0.07730046  1
  H+  H308  1  0.17823806  0.33722748  0.23531295  1
  H+  H309  1  0.58510839  0.16689178  0.41089403  1
  H+  H310  1  0.17886630  0.56897974  0.59776887  1
  H+  H311  1  0.44333236  0.55262454  0.60007700  1
  H+  H312  1  0.77333198  0.89593201  0.16576546  1
  H+  H313  1  0.13564572  0.82070794  0.24601104  1
  H+  H314  1  0.42018828  0.82862707  0.55408713  1
  H+  H315  1  0.32101092  0.89673227  0.03699424  1
  H+  H316  1  0.91784954  0.32571619  0.27095051  1
  H+  H317  1  0.32491708  0.44186649  0.77611016  1
  H+  H318  1  0.29084658  0.90815411  0.72974566  1
  H+  H319  1  0.37787997  0.32605583  0.92100839  1
  H+  H320  1  0.89211279  0.12649307  0.67061128  1
  H+  H321  1  0.22929510  0.24556918  0.44331306  1
  H+  H322  1  0.12970669  0.31205268  0.92591730  1
  H+  H323  1  0.45797097  0.77960274  0.63423573  1
  H+  H324  1  0.38945421  0.13079344  0.83227147  1
  H+  H325  1  0.87777540  0.06729914  0.57826509  1
  H+  H326  1  0.71057857  0.08031282  0.33176776  1
  H+  H327  1  0.32318456  0.91319600  0.44083423  1
  H+  H328  1  0.82658337  0.91984459  0.40476229  1
  H+  H329  1  0.91936213  0.56868724  0.56607243  1
  H+  H330  1  0.97369188  0.86523729  0.50164778  1
  H+  H331  1  0.40881886  0.30951562  0.91863649  1
  H+  H332  1  0.76476809  0.38672158  0.00336323  1
  H+  H333  1  0.07776508  0.93039689  0.09710149  1
  H+  H334  1  0.64235789  0.36788015  0.33152951  1
  H+  H335  1  0.64978292  0.31953063  0.59053804  1
  H+  H336  1  0.58437299  0.16860538  0.05900682  1
  H+  H337  1  0.92531284  0.84720963  0.59323757  1
  H+  H338  1  0.08476083  0.92711274  0.40251205  1
  H+  H339  1  0.88594139  0.77353949  0.50675121  1
  H+  H340  1  0.83548497  0.41384553  0.43216599  1
  H+  H341  1  0.28967859  0.69208868  0.76208788  1
  H+  H342  1  0.53976530  0.27240812  0.21882492  1
  H+  H343  1  0.92266573  0.57828785  0.88188913  1
  H+  H344  1  0.16531217  0.33044640  0.56822584  1
  H+  H345  1  0.33484807  0.67360491  0.06848575  1
  H+  H346  1  0.68082591  0.60510819  0.27038372  1
  H+  H347  1  0.16267814  0.08771847  0.26448611  1
  H+  H348  1  0.08147118  0.40926517  0.39984572  1
  H+  H349  1  0.16978720  0.09489189  0.91154682  1
  H+  H350  1  0.59408036  0.91424029  0.75257034  1
  H+  H351  1  0.83402215  0.16891173  0.06994281  1
  H+  H352  1  0.37303550  0.24566896  0.17952158  1
  H+  H353  1  0.57893372  0.91361228  0.09530535  1
  H+  H354  1  0.65755683  0.07051482  0.22921036  1
  H+  H355  1  0.90816896  0.84966148  0.92656870  1
  H+  H356  1  0.85239882  0.40422020  0.75145213  1
  H+  H357  1  0.53085754  0.65412381  0.33780123  1
  H+  H358  1  0.10244156  0.17973800  0.39365335  1
  H+  H359  1  0.10346226  0.37498556  0.49516865  1
  H+  H360  1  0.34443853  0.12932933  0.05968079  1
  H+  H361  1  0.93626813  0.89764174  0.92725339  1
  H+  H362  1  0.97392864  0.11395867  0.33095576  1
  H+  H363  1  0.83658032  0.66518906  0.44290400  1
  H+  H364  1  0.42317335  0.59345269  0.26436977  1
  H+  H365  1  0.67860949  0.35042349  0.89150203  1
  H+  H366  1  0.88051907  0.72905129  0.11423949  1
  H+  H367  1  0.58438753  0.94521588  0.41850959  1
  H+  H368  1  0.48522670  0.86188034  -0.00682935  1
  H+  H369  1  0.58908189  0.67220501  0.07353100  1
  H+  H370  1  0.42365442  0.01327228  0.23094483  1
  H+  H371  1  0.79192251  0.87215641  0.82893288  1
  H+  H372  1  0.09083535  0.16469621  0.76663472  1
  H+  H373  1  0.40286174  0.30405910  0.58915628  1
  H+  H374  1  0.58476046  0.66876459  0.43487693  1
  H+  H375  1  0.35570197  0.37332281  0.72385083  1
  H+  H376  1  0.91899969  0.08802996  0.23620179  1
  H+  H377  1  0.13836690  0.51385810  0.84553514  1
  H+  H378  1  0.79384994  0.59965696  0.03925080  1
  H+  H379  1  0.43718917  0.36398731  0.24195455  1
  H+  H380  1  0.19950574  0.88761288  0.66390581  1
  H+  H381  1  0.67629727  0.07272030  0.90516317  1
  H+  H382  1  0.78092252  0.89837062  0.67077934  1
  H+  H383  1  0.08478506  0.41698334  0.77005290  1
  O2-  O384  1  0.08790168  0.18174976  0.15173621  1
  O2-  O385  1  0.17205009  0.21017404  0.46037358  1
  O2-  O386  1  0.09611264  0.17406038  0.81157037  1
  O2-  O387  1  0.09379346  0.40896639  0.16210594  1
  O2-  O388  1  0.07254503  0.40338287  0.47729554  1
  O2-  O389  1  0.08506173  0.41631393  0.81569420  1
  O2-  O390  1  0.07611695  0.65952429  0.14337509  1
  O2-  O391  1  0.08033688  0.66246011  0.48313425  1
  O2-  O392  1  0.12066480  0.69092974  0.85051577  1
  O2-  O393  1  0.08121279  0.93726541  0.14393522  1
  O2-  O394  1  0.08057243  0.92054394  0.47750675  1
  O2-  O395  1  0.09766490  0.91468935  0.86378271  1
  O2-  O396  1  0.33887667  0.19531384  0.15283562  1
  O2-  O397  1  0.35578636  0.14400555  0.47563865  1
  O2-  O398  1  0.32487755  0.17620894  0.80565707  1
  O2-  O399  1  0.34208138  0.42690050  0.14233483  1
  O2-  O400  1  0.31565555  0.43359962  0.47587368  1
  O2-  O401  1  0.33239243  0.44925365  0.82082568  1
  O2-  O402  1  0.33365645  0.67117663  0.14729377  1
  O2-  O403  1  0.29485518  0.69024444  0.45156630  1
  O2-  O404  1  0.30616950  0.68159258  0.80513554  1
  O2-  O405  1  0.32375146  0.90666876  0.11934267  1
  O2-  O406  1  0.32362319  0.90987499  0.48505964  1
  O2-  O407  1  0.32276498  0.88387574  0.81025326  1
  O2-  O408  1  0.57576298  0.15952446  0.13837851  1
  O2-  O409  1  0.58201188  0.16546641  0.48027933  1
  O2-  O410  1  0.58511183  0.18310500  0.80264147  1
  O2-  O411  1  0.60173596  0.43854046  0.15484332  1
  O2-  O412  1  0.60307540  0.43020526  0.46240916  1
  O2-  O413  1  0.57042390  0.40935615  0.80855252  1
  O2-  O414  1  0.59007982  0.67731044  0.15212768  1
  O2-  O415  1  0.58268727  0.65816488  0.47942370  1
  O2-  O416  1  0.57014868  0.67135995  0.81091989  1
  O2-  O417  1  0.57985264  0.91708265  0.14083821  1
  O2-  O418  1  0.58260085  0.93611493  0.46257469  1
  O2-  O419  1  0.59440846  0.90919491  0.82028691  1
  O2-  O420  1  0.83426644  0.16924214  0.15050548  1
  O2-  O421  1  0.82790153  0.16913784  0.48213244  1
  O2-  O422  1  0.84410674  0.17121651  0.81983865  1
  O2-  O423  1  0.93517446  0.44988826  0.11499548  1
  O2-  O424  1  0.83194646  0.41081453  0.47734729  1
  O2-  O425  1  0.84699503  0.41548487  0.79551168  1
  O2-  O426  1  0.85912458  0.70374029  0.15667543  1
  O2-  O427  1  0.83552912  0.66404098  0.48827442  1
  O2-  O428  1  0.94341437  0.69652950  0.75755736  1
  O2-  O429  1  0.83380384  0.92359074  0.15059103  1
  O2-  O430  1  0.81944160  0.90977463  0.47816418  1
  O2-  O431  1  0.84940896  0.89983877  0.80955176  1
  O2-  O432  1  0.16954157  0.09854652  0.18733677  1
  O2-  O433  1  0.18931935  0.08179662  0.51503942  1
  O2-  O434  1  0.16946040  0.09004897  0.86626650  1
  O2-  O435  1  0.17836499  0.34006007  0.18899325  1
  O2-  O436  1  0.16432778  0.33265819  0.52287362  1
  O2-  O437  1  0.17095624  0.33823069  0.85337489  1
  O2-  O438  1  0.16076349  0.57338433  0.18794110  1
  O2-  O439  1  0.15414393  0.56850220  0.51832518  1
  O2-  O440  1  0.17291500  0.57398218  0.86219124  1
  O2-  O441  1  0.11018862  0.80929225  0.20388065  1
  O2-  O442  1  0.15492649  0.83080943  0.52280749  1
  O2-  O443  1  0.06882766  0.85764332  0.91652390  1
  O2-  O444  1  0.40052690  0.09065068  0.12435036  1
  O2-  O445  1  0.43007223  0.07229873  0.53275151  1
  O2-  O446  1  0.42227106  0.10129880  0.84094566  1
  O2-  O447  1  0.43829308  0.36022804  0.19572535  1
  O2-  O448  1  0.44406827  0.30633935  0.51883241  1
  O2-  O449  1  0.39831690  0.34278460  0.78564181  1
  O2-  O450  1  0.42348198  0.59546197  0.18493386  1
  O2-  O451  1  0.43225979  0.58758949  0.52869633  1
  O2-  O452  1  0.40226331  0.62318784  0.82720948  1
  O2-  O453  1  0.40980561  0.83983331  0.17816452  1
  O2-  O454  1  0.41406439  0.83542075  0.50966242  1
  O2-  O455  1  0.38377706  0.87096124  0.81816037  1
  O2-  O456  1  0.66270813  0.07968049  0.18470293  1
  O2-  O457  1  0.65974277  0.09098390  0.51733500  1
  O2-  O458  1  0.67683400  0.06737094  0.86064007  1
  O2-  O459  1  0.59998274  0.29783546  0.20707847  1
  O2-  O460  1  0.65602884  0.33257343  0.50814513  1
  O2-  O461  1  0.68261766  0.35503448  0.84677189  1
  O2-  O462  1  0.68741576  0.60757481  0.18974259  1
  O2-  O463  1  0.66947478  0.57490611  0.51603549  1
  O2-  O464  1  0.55314665  0.53408954  0.87354191  1
  O2-  O465  1  0.66746305  0.84268905  0.19021239  1
  O2-  O466  1  0.65803150  0.80823029  0.52781643  1
  O2-  O467  1  0.68426106  0.82907713  0.86018245  1
  O2-  O468  1  0.91876397  0.09069124  0.19067993  1
  O2-  O469  1  0.84744201  0.04494311  0.53907045  1
  O2-  O470  1  0.96414363  0.15931445  0.88203255  1
  O2-  O471  1  0.93280690  0.32752000  0.19113808  1
  O2-  O472  1  0.91143507  0.33292207  0.53002470  1
  O2-  O473  1  0.92135200  0.33832853  0.85271305  1
  O2-  O474  1  0.91214152  0.60000032  0.18785548  1
  O2-  O475  1  0.91664558  0.57581999  0.52113121  1
  O2-  O476  1  0.93509349  0.58277672  0.83765750  1
  O2-  O477  1  0.92535617  0.86051154  0.20147359  1
  O2-  O478  1  0.91405659  0.83564310  0.51839317  1
  O2-  O479  1  0.97111327  0.85850485  0.79333303  1
  O2-  O480  1  0.16545556  0.09106118  0.30994419  1
  O2-  O481  1  0.16688584  0.07664517  0.63596567  1
  O2-  O482  1  0.16025919  0.08017902  0.99121657  1
  O2-  O483  1  0.17206981  0.33556731  0.30847898  1
  O2-  O484  1  0.16225889  0.32508470  0.64863123  1
  O2-  O485  1  0.08778021  0.28733832  0.96038450  1
  O2-  O486  1  0.16527213  0.58204847  0.30969990  1
  O2-  O487  1  0.19981621  0.56909681  0.63936679  1
  O2-  O488  1  0.17244827  0.58030282  0.98437805  1
  O2-  O489  1  0.15774450  0.82974238  0.32132986  1
  O2-  O490  1  0.13638436  0.85734854  0.64398686  1
  O2-  O491  1  0.17379109  0.79740748  0.94378167  1
  O2-  O492  1  0.40439920  0.09677586  0.37228289  1
  O2-  O493  1  0.41028835  0.07102000  0.65570129  1
  O2-  O494  1  0.42668044  0.08001018  0.96724405  1
  O2-  O495  1  0.43266229  0.35819090  0.31464978  1
  O2-  O496  1  0.38752304  0.29921724  0.63308189  1
  O2-  O497  1  0.40115940  0.31467689  1.05223935  1
  O2-  O498  1  0.42224001  0.59626701  0.30968658  1
  O2-  O499  1  0.45363365  0.53170699  0.63938254  1
  O2-  O500  1  0.41755599  0.57348871  1.00523105  1
  O2-  O501  1  0.42948810  0.85455495  0.30351106  1
  O2-  O502  1  0.43247100  0.81660466  0.63252019  1
  O2-  O503  1  0.42163561  0.82568426  0.97677061  1
  O2-  O504  1  0.65123218  0.05162448  0.31220071  1
  O2-  O505  1  0.68207294  0.09339634  0.67374434  1
  O2-  O506  1  0.66454340  0.07416793  0.98777942  1
  O2-  O507  1  0.66889855  0.33255568  0.31629044  1
  O2-  O508  1  0.64845563  0.30737297  0.63439165  1
  O2-  O509  1  0.66615799  0.33859777  0.97877309  1
  O2-  O510  1  0.67340845  0.60082657  0.31531387  1
  O2-  O511  1  0.67605493  0.58584048  0.63687461  1
  O2-  O512  1  0.63257464  0.56387076  0.97880026  1
  O2-  O513  1  0.67014910  0.85806380  0.31377361  1
  O2-  O514  1  0.67369317  0.84397024  0.65127523  1
  O2-  O515  1  0.65804017  0.83281639  0.98330252  1
  O2-  O516  1  0.91405932  0.08356755  0.31474030  1
  O2-  O517  1  0.92052962  0.09523250  0.65330908  1
  O2-  O518  1  0.91191836  0.08256006  0.98866510  1
  O2-  O519  1  0.91257558  0.32426076  0.31595926  1
  O2-  O520  1  0.92206371  0.35300764  0.65436898  1
  O2-  O521  1  0.90614749  0.32783441  0.97507054  1
  O2-  O522  1  0.92081749  0.58686449  0.31678613  1
  O2-  O523  1  0.93704547  0.55601682  0.64200815  1
  O2-  O524  1  0.91635378  0.57626117  0.96207554  1
  O2-  O525  1  0.91595168  0.83850020  0.32333291  1
  O2-  O526  1  0.93238788  0.85013622  0.63880668  1
  O2-  O527  1  0.91767702  0.78057790  1.05365439  1
  O2-  O528  1  0.07809149  0.16174132  0.03227021  1
  O2-  O529  1  0.08441397  0.17152686  0.35030769  1
  O2-  O530  1  0.08478175  0.16032819  0.68726563  1
  O2-  O531  1  0.06819033  0.41796304  0.01857140  1
  O2-  O532  1  0.08285621  0.41004517  0.35406772  1
  O2-  O533  1  0.08748624  0.41545604  0.69319938  1
  O2-  O534  1  0.07821502  0.65959804  0.01257140  1
  O2-  O535  1  0.08556222  0.66504296  0.35951045  1
  O2-  O536  1  0.08209018  0.70168115  0.69871256  1
  O2-  O537  1  0.07985879  0.91503792  0.02631246  1
  O2-  O538  1  0.08436937  0.92697851  0.35661632  1
  O2-  O539  1  0.09910585  0.90765727  0.66874346  1
  O2-  O540  1  0.33265848  0.14416465  0.01908828  1
  O2-  O541  1  0.34502660  0.18792594  0.30599660  1
  O2-  O542  1  0.32065813  0.14758125  0.68566450  1
  O2-  O543  1  0.33432848  0.41857728  0.07555994  1
  O2-  O544  1  0.34068763  0.43225856  0.35138456  1
  O2-  O545  1  0.32772649  0.39983304  0.69974699  1
  O2-  O546  1  0.33704297  0.67335749  0.02302854  1
  O2-  O547  1  0.33771458  0.67787384  0.33852343  1
  O2-  O548  1  0.26052429  0.70908233  0.70071880  1
  O2-  O549  1  0.33146824  0.89776335  -0.00741932  1
  O2-  O550  1  0.33476686  0.93724473  0.33746684  1
  O2-  O551  1  0.28536058  0.91705148  0.68642383  1
  O2-  O552  1  0.58854387  0.17048234  0.01379773  1
  O2-  O553  1  0.57879419  0.16749963  0.36417246  1
  O2-  O554  1  0.56995221  0.15324207  0.68767596  1
  O2-  O555  1  0.57426994  0.40832273  0.03363176  1
  O2-  O556  1  0.59674591  0.42282554  0.34954307  1
  O2-  O557  1  0.66152960  0.44311505  0.69919216  1
  O2-  O558  1  0.58430222  0.66738130  0.02826972  1
  O2-  O559  1  0.59047450  0.68776130  0.35387096  1
  O2-  O560  1  0.65681495  0.69586959  0.70401344  1
  O2-  O561  1  0.57341521  0.90881458  0.01749321  1
  O2-  O562  1  0.60399052  0.96214317  0.33484095  1
  O2-  O563  1  0.59623364  0.91913518  0.70505355  1
  O2-  O564  1  0.83219450  0.16748118  0.02471802  1
  O2-  O565  1  0.81571239  0.15002006  0.35371120  1
  O2-  O566  1  0.84148617  0.17837432  0.69830083  1
  O2-  O567  1  0.82903954  0.41655340  0.01109954  1
  O2-  O568  1  0.83847108  0.41952860  0.35107921  1
  O2-  O569  1  0.88095366  0.40218416  0.67477799  1
  O2-  O570  1  0.80289602  0.62109927  -0.00232535  1
  O2-  O571  1  0.83736407  0.67172303  0.36271685  1
  O2-  O572  1  0.85087384  0.67618705  0.66223107  1
  O2-  O573  1  0.81453251  0.91366349  0.02294251  1
  O2-  O574  1  0.82995131  0.92240425  0.35859768  1
  O2-  O575  1  0.84117823  0.92836337  0.68675721  1
