# generated using pymatgen
data_H2O
_symmetry_space_group_name_H-M   'P 1'
_cell_length_a   17.99045532
_cell_length_b   17.99426403
_cell_length_c   22.00519819
_cell_angle_alpha   90.01197662
_cell_angle_beta   89.99305142
_cell_angle_gamma   120.00431804
_symmetry_Int_Tables_number   1
_chemical_formula_structural   H2O
_chemical_formula_sum   'H384 O192'
_cell_volume   6168.97842908
_cell_formula_units_Z   192
loop_
 _symmetry_equiv_pos_site_id
 _symmetry_equiv_pos_as_xyz
  1  'x, y, z'
loop_
 _atom_type_symbol
 _atom_type_oxidation_number
  H+  1.0
  O2-  -2.0
loop_
 _atom_site_type_symbol
 _atom_site_label
 _atom_site_symmetry_multiplicity
 _atom_site_fract_x
 _atom_site_fract_y
 _atom_site_fract_z
 _atom_site_occupancy
  H+  H0  1  0.39685296  0.43458492  0.73226793  1
  H+  H1  1  -0.02812401  0.62089508  0.82863423  1
  H+  H2  1  0.39495525  0.36650213  1.04209887  1
  H+  H3  1  0.08688140  0.46277213  0.83717683  1
  H+  H4  1  -0.00498603  0.36361224  0.49008659  1
  H+  H5  1  0.61586449  0.01743997  0.17227638  1
  H+  H6  1  0.04837838  0.41849755  0.00316427  1
  H+  H7  1  0.36447844  0.82319724  0.66297454  1
  H+  H8  1  0.86960518  0.73653744  0.83046110  1
  H+  H9  1  0.36307725  0.26310128  0.32276760  1
  H+  H10  1  0.52249483  0.12496913  0.69114846  1
  H+  H11  1  0.96546168  0.35967564  0.32741428  1
  H+  H12  1  0.15473933  0.08357856  0.56189639  1
  H+  H13  1  0.10886070  0.13590568  0.82987818  1
  H+  H14  1  0.15350826  0.28942149  0.00459971  1
  H+  H15  1  0.67428407  0.09111620  0.93332085  1
  H+  H16  1  0.54595313  0.19090075  0.07208804  1
  H+  H17  1  0.66466359  0.61622626  0.49686098  1
  H+  H18  1  0.07498621  0.45572001  0.49487238  1
  H+  H19  1  0.85657557  0.21851995  0.16240368  1
  H+  H20  1  0.62866088  0.52607829  0.17897022  1
  H+  H21  1  0.76755662  0.64965158  0.66898355  1
  H+  H22  1  0.58434229  0.08651550  0.70472949  1
  H+  H23  1  0.78916365  0.40902105  0.66153223  1
  H+  H24  1  0.68209462  0.24698715  0.68581164  1
  H+  H25  1  0.74364085  0.88130684  0.65768140  1
  H+  H26  1  0.84538888  0.87987280  0.01867042  1
  H+  H27  1  0.53885281  0.88603387  0.34427618  1
  H+  H28  1  0.65954833  0.60715645  1.00803590  1
  H+  H29  1  0.22871401  0.39421654  0.82709472  1
  H+  H30  1  0.48500937  0.11631893  0.42318182  1
  H+  H31  1  0.85528482  0.12581851  0.48349942  1
  H+  H32  1  0.39217615  0.52529247  0.29795318  1
  H+  H33  1  0.58187472  0.91572002  0.60205810  1
  H+  H34  1  0.38966425  0.77264074  0.33342547  1
  H+  H35  1  0.64511670  0.37124351  0.16653067  1
  H+  H36  1  0.40685189  0.10662130  -0.08418763  1
  H+  H37  1  0.64405739  0.27391370  0.83985684  1
  H+  H38  1  0.65694482  0.75593540  0.69121278  1
  H+  H39  1  0.12910782  0.40206870  1.00996194  1
  H+  H40  1  0.33563717  0.09025965  0.79367936  1
  H+  H41  1  0.15619572  0.62988967  0.99731018  1
  H+  H42  1  0.87458580  0.10204427  -0.01444837  1
  H+  H43  1  0.89244372  0.78018064  0.01892372  1
  H+  H44  1  0.50367630  0.42199354  0.78837220  1
  H+  H45  1  0.16862537  0.93527585  0.01884695  1
  H+  H46  1  0.64402443  0.86920645  0.51588189  1
  H+  H47  1  0.28215748  0.39685717  -0.00088543  1
  H+  H48  1  0.76662830  0.12773704  0.82705243  1
  H+  H49  1  0.91891832  0.62928506  0.16946560  1
  H+  H50  1  0.13464910  0.87248756  0.83789672  1
  H+  H51  1  0.93990593  0.59437400  0.23252753  1
  H+  H52  1  0.11087256  0.22528556  0.48876652  1
  H+  H53  1  0.08375973  0.17023442  0.77071996  1
  H+  H54  1  0.30101458  -0.00704673  0.26660655  1
  H+  H55  1  0.13376540  0.78456638  0.84639635  1
  H+  H56  1  0.38153336  0.71673767  0.16904603  1
  H+  H57  1  0.11901826  0.11582322  0.49775953  1
  H+  H58  1  0.05287492  0.65394410  -0.00150471  1
  H+  H59  1  0.71817338  0.64559578  0.55558394  1
  H+  H60  1  0.84782268  0.22600465  0.67838516  1
  H+  H61  1  0.86651803  0.64760866  0.82159016  1
  H+  H62  1  0.86496045  0.25618685  0.50379661  1
  H+  H63  1  0.08475834  0.88013199  0.34112335  1
  H+  H64  1  0.33210602  0.95289091  0.34763096  1
  H+  H65  1  0.37669712  0.00657398  0.11170145  1
  H+  H66  1  0.11567539  1.01951397  0.32849925  1
  H+  H67  1  0.89719129  0.36555937  0.17308364  1
  H+  H68  1  0.03173969  0.38871175  0.16157855  1
  H+  H69  1  0.19954894  0.93588119  0.20240776  1
  H+  H70  1  0.05549474  0.62202878  0.49334820  1
  H+  H71  1  0.63532583  0.27837971  0.17056731  1
  H+  H72  1  0.53191195  0.63159525  0.00318950  1
  H+  H73  1  0.09284337  0.42446598  0.10223453  1
  H+  H74  1  0.65404069  0.12095592  0.63488276  1
  H+  H75  1  0.12853440  0.26769238  0.84311381  1
  H+  H76  1  0.91771303  0.77021093  0.16893455  1
  H+  H77  1  0.95233358  0.08842718  0.17785527  1
  H+  H78  1  0.15092800  0.52728186  0.17514699  1
  H+  H79  1  0.01923428  0.63823129  0.66774158  1
  H+  H80  1  0.89001708  0.75881750  0.67600202  1
  H+  H81  1  0.75796414  0.88614432  0.01290227  1
  H+  H82  1  0.88114204  0.53271136  0.33301230  1
  H+  H83  1  0.40283185  0.28565209  0.49408241  1
  H+  H84  1  0.36347087  0.87932185  0.83330733  1
  H+  H85  1  0.60906340  0.72763809  0.34217875  1
  H+  H86  1  0.92946726  0.91006138  0.88156698  1
  H+  H87  1  0.52223271  0.13613232  0.49045587  1
  H+  H88  1  0.29907217  0.80853208  0.17725044  1
  H+  H89  1  0.60111571  0.63676470  0.34332048  1
  H+  H90  1  0.22185479  0.36658084  0.31876334  1
  H+  H91  1  0.10756764  0.38426641  0.67391558  1
  H+  H92  1  0.39177672  0.53914642  -0.01323193  1
  H+  H93  1  0.71135700  0.85656053  0.83674017  1
  H+  H94  1  0.26959661  0.62829416  0.33985590  1
  H+  H95  1  0.46379453  0.84607495  0.65203962  1
  H+  H96  1  0.39831825  0.63901605  0.47607008  1
  H+  H97  1  0.34606019  0.25413673  0.81653712  1
  H+  H98  1  0.61859642  0.51192289  0.85005794  1
  H+  H99  1  0.77522545  0.14216704  0.00536356  1
  H+  H100  1  0.35325662  0.60415961  0.19141164  1
  H+  H101  1  0.85403971  0.22898580  0.82703328  1
  H+  H102  1  0.38509400  0.17304201  0.64929603  1
  H+  H103  1  0.06936261  0.40940230  0.39767295  1
  H+  H104  1  0.11793980  0.01234687  0.83450079  1
  H+  H105  1  0.64317361  0.42974917  0.64702039  1
  H+  H106  1  0.22661836  0.36132744  0.65231648  1
  H+  H107  1  0.36615730  0.48098315  0.68150981  1
  H+  H108  1  0.39425756  0.85606491  0.50451019  1
  H+  H109  1  0.47625550  0.47970027  0.82149417  1
  H+  H110  1  0.20669498  0.09873763  0.83744195  1
  H+  H111  1  0.28603625  0.39118630  0.15613473  1
  H+  H112  1  0.85758555  0.88103044  0.49207644  1
  H+  H113  1  0.70596924  0.83902628  0.17149740  1
  H+  H114  1  0.65819670  0.12974789  0.32123907  1
  H+  H115  1  0.21318871  0.12042222  0.99276977  1
  H+  H116  1  0.63221259  0.14793601  0.53285308  1
  H+  H117  1  0.24827354  0.83165648  0.67936993  1
  H+  H118  1  0.39144703  0.40100931  0.32946331  1
  H+  H119  1  0.25202793  0.62305199  0.67028769  1
  H+  H120  1  0.61185364  0.98287923  0.65573927  1
  H+  H121  1  0.79156223  0.40035804  0.16790070  1
  H+  H122  1  0.11389307  0.14153682  0.67103521  1
  H+  H123  1  0.52698219  0.88110215  0.51110185  1
  H+  H124  1  0.13867379  0.02188819  0.18099880  1
  H+  H125  1  0.10633169  0.73174975  0.33716870  1
  H+  H126  1  0.91954555  0.32946033  0.23131327  1
  H+  H127  1  0.61690136  0.97499078  0.51356355  1
  H+  H128  1  0.60569579  0.37528022  -0.00438841  1
  H+  H129  1  0.85490767  -0.04191480  0.82583570  1
  H+  H130  1  0.26625689  0.64813352  0.82682585  1
  H+  H131  1  0.82226430  0.64327679  0.16131365  1
  H+  H132  1  0.77251554  0.40145033  0.33369428  1
  H+  H133  1  0.43467549  0.08919743  0.61317723  1
  H+  H134  1  0.96854699  0.10829147  0.33018660  1
  H+  H135  1  0.67421437  0.26621427  0.71379338  1
  H+  H136  1  0.04127387  0.51484370  0.90248738  1
  H+  H137  1  0.16015379  0.59222056  0.50531732  1
  H+  H138  1  0.39560550  0.62993549  0.98743582  1
  H+  H139  1  0.39225848  0.78978696  0.84613853  1
  H+  H140  1  0.61242926  0.46588654  -0.01438044  1
  H+  H141  1  -0.10362955  0.63056184  0.66143481  1
  H+  H142  1  0.38785752  0.25412748  0.81586176  1
  H+  H143  1  0.18070096  0.86652024  0.28020298  1
  H+  H144  1  0.67832690  0.65864082  0.68377661  1
  H+  H145  1  0.10992558  0.22831393  0.33569452  1
  H+  H146  1  0.55456556  0.68925297  0.17387299  1
  H+  H147  1  0.35522871  0.62568707  0.32047077  1
  H+  H148  1  0.40323441  0.73739021  0.47468105  1
  H+  H149  1  0.66037954  0.32143153  0.63046347  1
  H+  H150  1  0.87537311  0.35690155  0.83356116  1
  H+  H151  1  0.73497811  0.86172569  0.49923915  1
  H+  H152  1  0.11143727  0.93823786  0.73152825  1
  H+  H153  1  0.11942597  0.15656387  0.00697634  1
  H+  H154  1  0.11214574  0.93114858  0.11519003  1
  H+  H155  1  0.68692505  0.62783009  0.18292003  1
  H+  H156  1  0.72119451  0.24531810  0.38719387  1
  H+  H157  1  0.10920995  0.72485285  0.66780878  1
  H+  H158  1  0.33187192  0.11544858  0.33563245  1
  H+  H159  1  0.40167736  0.36251005  0.17047339  1
  H+  H160  1  0.21769764  0.36174769  0.49356234  1
  H+  H161  1  0.63129767  0.88318864  -0.00762185  1
  H+  H162  1  0.11428360  0.35019454  0.84787291  1
  H+  H163  1  0.12604918  0.35785022  0.49980589  1
  H+  H164  1  0.82684883  0.60133703  0.51184632  1
  H+  H165  1  0.40366792  0.58530523  0.89597670  1
  H+  H166  1  0.10399282  0.38700327  0.33702434  1
  H+  H167  1  0.64392706  0.10482934  0.84438969  1
  H+  H168  1  0.86876992  0.09781474  0.17944674  1
  H+  H169  1  0.15272654  0.03680359  0.65306437  1
  H+  H170  1  0.30917281  0.86928328  0.08671616  1
  H+  H171  1  0.37485391  0.61976019  0.83715874  1
  H+  H172  1  0.50935037  0.17863896  0.33995211  1
  H+  H173  1  0.15143503  0.72652820  0.15394541  1
  H+  H174  1  0.83834570  -0.04925591  0.16996645  1
  H+  H175  1  0.40729415  0.29946167  0.64996525  1
  H+  H176  1  0.28489997  0.64862768  0.00484002  1
  H+  H177  1  0.10832168  0.13762358  0.33737187  1
  H+  H178  1  0.88477115  0.52995693  0.83247283  1
  H+  H179  1  0.12190661  0.60704941  0.66133282  1
  H+  H180  1  0.02034684  0.05652791  0.11382268  1
  H+  H181  1  0.14363370  0.28154206  0.16519054  1
  H+  H182  1  0.31788641  0.16016487  0.10138836  1
  H+  H183  1  0.11430971  0.22963571  0.67140642  1
  H+  H184  1  0.35451396  0.59652443  0.65634487  1
  H+  H185  1  0.39452426  0.78974167  0.98832713  1
  H+  H186  1  0.64192376  0.38292748  0.31913422  1
  H+  H187  1  0.62488043  0.39108906  0.81522092  1
  H+  H188  1  0.59388196  0.13168954  0.15621689  1
  H+  H189  1  0.27819247  0.63712194  0.17038397  1
  H+  H190  1  0.22309534  0.11687743  0.17953200  1
  H+  H191  1  0.15009040  0.61675810  0.17226981  1
  H+  H192  1  0.44794570  0.07760763  0.78270053  1
  H+  H193  1  0.34699564  0.70634359  0.66938945  1
  H+  H194  1  0.66818968  0.55844298  0.66148033  1
  H+  H195  1  0.63781255  1.01244020  0.83992591  1
  H+  H196  1  0.49035960  0.16606928  0.01113725  1
  H+  H197  1  0.53292486  0.39130601  0.15683129  1
  H+  H198  1  0.64866466  0.87273700  0.65065728  1
  H+  H199  1  0.73425194  0.11080945  0.50548641  1
  H+  H200  1  0.38487202  0.85642631  0.34543572  1
  H+  H201  1  0.13059945  0.52490354  0.32892191  1
  H+  H202  1  0.05054162  0.64757342  0.16431669  1
  H+  H203  1  -0.03104453  0.08595175  0.84243555  1
  H+  H204  1  0.50326515  0.88534689  0.83623897  1
  H+  H205  1  0.09384522  0.63374195  0.83038303  1
  H+  H206  1  0.24278214  0.57524971  0.46539318  1
  H+  H207  1  0.75305939  0.13396403  0.68286628  1
  H+  H208  1  0.88448664  0.48748569  0.16705636  1
  H+  H209  1  0.96105671  0.35037840  0.83552616  1
  H+  H210  1  0.97234691  0.12139789  0.67058954  1
  H+  H211  1  0.14235270  0.86933794  0.65436198  1
  H+  H212  1  -0.06318097  0.86480621  0.60997549  1
  H+  H213  1  0.36639578  0.50704933  0.49386306  1
  H+  H214  1  0.61800483  0.84107458  0.17383388  1
  H+  H215  1  0.37730943  1.00104544  0.82014294  1
  H+  H216  1  0.37157605  0.41630637  -0.02867028  1
  H+  H217  1  0.60525689  0.59209485  0.86023944  1
  H+  H218  1  0.78350428  0.35962172  1.01602416  1
  H+  H219  1  0.51442734  0.63794362  0.82638996  1
  H+  H220  1  0.55884521  0.64597044  0.60790739  1
  H+  H221  1  0.56260823  0.92787536  0.06213372  1
  H+  H222  1  0.92462871  0.63936898  0.99203985  1
  H+  H223  1  0.30433847  0.85550261  0.74095882  1
  H+  H224  1  0.20423360  0.85890598  0.34660977  1
  H+  H225  1  0.09518990  0.10504900  0.16052557  1
  H+  H226  1  0.62337082  0.70886713  0.01254793  1
  H+  H227  1  0.63235800  0.05307377  0.99638496  1
  H+  H228  1  0.94030126  0.60842289  0.92805591  1
  H+  H229  1  0.97366379  0.87252516  0.50962121  1
  H+  H230  1  0.40668403  0.38596694  0.64954747  1
  H+  H231  1  0.36384574  0.38530784  0.48007252  1
  H+  H232  1  0.90652461  0.89362521  0.66853520  1
  H+  H233  1  0.88222558  0.11936876  0.67248266  1
  H+  H234  1  0.51479973  0.90760842  0.99946629  1
  H+  H235  1  0.90752524  0.05138739  0.90279856  1
  H+  H236  1  0.36779484  -0.02106897  0.65311152  1
  H+  H237  1  0.99388899  0.88081997  0.86182305  1
  H+  H238  1  0.86708003  0.99320889  0.67531274  1
  H+  H239  1  0.86361240  0.64409105  0.34517342  1
  H+  H240  1  0.96655057  0.10621796  0.48831888  1
  H+  H241  1  0.54649218  0.37842871  0.47752773  1
  H+  H242  1  0.85250135  0.33812100  0.50566623  1
  H+  H243  1  0.09732403  0.75718863  0.49703632  1
  H+  H244  1  0.77457907  0.38935265  0.82294148  1
  H+  H245  1  0.32681182  0.49904499  0.82560116  1
  H+  H246  1  0.34574227  0.99228467  0.67624433  1
  H+  H247  1  0.87932193  0.01783328  0.48147264  1
  H+  H248  1  0.55023115  0.60285699  0.18327068  1
  H+  H249  1  0.43463038  0.35282556  0.54891408  1
  H+  H250  1  0.85728924  0.21473582  0.33618459  1
  H+  H251  1  0.80885644  0.64595238  0.01812525  1
  H+  H252  1  0.55266021  0.42468406  0.65691827  1
  H+  H253  1  0.35090351  0.12273624  0.15162150  1
  H+  H254  1  0.47693778  0.35760610  0.02992300  1
  H+  H255  1  0.34635316  0.14407392  0.00019796  1
  H+  H256  1  0.35411754  0.23054460  1.02713169  1
  H+  H257  1  0.11645271  0.01676990  0.50030860  1
  H+  H258  1  0.92129921  0.41305636  0.98905467  1
  H+  H259  1  0.09795316  0.88680682  0.48921532  1
  H+  H260  1  0.23539805  0.12978476  0.64076794  1
  H+  H261  1  0.52280854  0.16189230  0.31309196  1
  H+  H262  1  0.53799226  0.13534048  0.84905941  1
  H+  H263  1  0.88750605  0.36773253  0.65854695  1
  H+  H264  1  0.04164916  0.89171326  0.16963821  1
  H+  H265  1  0.14277407  0.36986480  0.16622223  1
  H+  H266  1  0.85740445  0.69638477  0.73568269  1
  H+  H267  1  0.70844493  0.59871363  0.34257094  1
  H+  H268  1  0.90483475  0.32462933  0.60088912  1
  H+  H269  1  0.62226152  0.85766099  0.83935279  1
  H+  H270  1  0.65527490  0.08180484  0.22762179  1
  H+  H271  1  0.13849579  0.57223472  0.91299532  1
  H+  H272  1  0.15533717  0.08099510  0.26980273  1
  H+  H273  1  0.39801409  0.27287913  0.16850671  1
  H+  H274  1  0.37889875  0.52132993  0.19477351  1
  H+  H275  1  0.76439679  0.13273467  0.15963024  1
  H+  H276  1  0.50165923  0.12218763  0.15659221  1
  H+  H277  1  0.39978278  0.16054661  0.47826573  1
  H+  H278  1  0.55132200  0.60452307  0.62179722  1
  H+  H279  1  0.69183758  0.07884649  0.57192959  1
  H+  H280  1  0.37181371  0.88885145  1.02871649  1
  H+  H281  1  0.52162857  0.60757064  0.48897199  1
  H+  H282  1  0.23751977  0.60883438  0.44853181  1
  H+  H283  1  0.12184291  -0.01188765  1.02152935  1
  H+  H284  1  0.62829407  0.25646866  0.99559749  1
  H+  H285  1  0.27898286  0.91712836  0.00043173  1
  H+  H286  1  0.37321496  0.67550163  0.40887729  1
  H+  H287  1  0.22562921  0.90021749  0.93695908  1
  H+  H288  1  0.34408323  0.42233285  0.42068710  1
  H+  H289  1  0.92058592  0.61743561  0.49905068  1
  H+  H290  1  0.68216476  0.58693047  0.94479411  1
  H+  H291  1  0.15969760  0.54058401  1.00052151  1
  H+  H292  1  0.66663317  0.26512626  0.34196249  1
  H+  H293  1  0.84263342  0.40992906  0.07339573  1
  H+  H294  1  0.11970809  0.51551868  0.66223450  1
  H+  H295  1  0.61979699  0.43571314  0.75255704  1
  H+  H296  1  0.11856422  0.56485025  0.57004951  1
  H+  H297  1  0.11018305  0.64374134  0.33902630  1
  H+  H298  1  0.40905748  0.00083361  0.48357799  1
  H+  H299  1  0.08373554  0.67067980  0.76571049  1
  H+  H300  1  0.82947586  0.92167645  0.72988756  1
  H+  H301  1  0.07477611  0.41281531  0.77288871  1
  H+  H302  1  0.58005408  0.14695224  0.78567339  1
  H+  H303  1  0.15025886  0.08203402  0.93532005  1
  H+  H304  1  0.93826964  0.36886975  0.93244988  1
  H+  H305  1  0.18994072  0.83679379  0.48671609  1
  H+  H306  1  0.24531938  0.04261893  0.76234908  1
  H+  H307  1  0.25331961  0.86531529  0.18532517  1
  H+  H308  1  0.82563867  0.87961092  0.42564055  1
  H+  H309  1  0.81960557  0.15515109  0.42689867  1
  H+  H310  1  0.64318684  0.24178930  0.51995942  1
  H+  H311  1  0.34765470  0.67506785  0.06265943  1
  H+  H312  1  0.40560464  0.80935896  0.56288853  1
  H+  H313  1  0.42702706  0.35701418  0.91590583  1
  H+  H314  1  0.29718211  0.43266287  0.76364398  1
  H+  H315  1  0.87674489  0.49284284  0.67026063  1
  H+  H316  1  0.60377726  0.72407011  0.83817904  1
  H+  H317  1  0.34412181  0.03553719  0.96163077  1
  H+  H318  1  0.04984367  0.91468766  0.67415993  1
  H+  H319  1  0.86003090  0.12528529  0.33833498  1
  H+  H320  1  0.90129140  0.85003220  0.17136573  1
  H+  H321  1  -0.00378689  0.88415495  0.34821335  1
  H+  H322  1  0.92101113  0.83992998  0.96192004  1
  H+  H323  1  0.26939692  0.87951264  0.83178363  1
  H+  H324  1  0.32816918  0.93702719  0.52256609  1
  H+  H325  1  0.70500111  0.37741078  0.57292984  1
  H+  H326  1  0.16712335  0.33504432  0.59363081  1
  H+  H327  1  0.67207942  0.34846752  0.26071555  1
  H+  H328  1  0.65542314  0.86787834  0.32591910  1
  H+  H329  1  0.62164266  0.69088453  0.75160936  1
  H+  H330  1  0.90342404  0.06855249  0.27476508  1
  H+  H331  1  0.84985663  0.78338072  0.35686170  1
  H+  H332  1  0.17347765  0.34049075  0.94082002  1
  H+  H333  1  0.62160985  -0.02551535  0.33242592  1
  H+  H334  1  0.90252004  0.59295163  0.59777239  1
  H+  H335  1  0.31575206  0.66203457  0.76437769  1
  H+  H336  1  0.87282708  0.67468549  0.07745449  1
  H+  H337  1  0.34090744  0.17262390  0.43217364  1
  H+  H338  1  0.06554199  0.91778648  0.43111514  1
  H+  H339  1  0.08860396  0.17789992  0.06875345  1
  H+  H340  1  0.66426047  0.82316173  0.26601685  1
  H+  H341  1  0.68663374  0.83941445  0.57118729  1
  H+  H342  1  0.01616423  0.37887734  0.67432041  1
  H+  H343  1  0.87694974  0.35907565  0.32600858  1
  H+  H344  1  0.51890117  0.17012636  0.59227771  1
  H+  H345  1  0.25439199  0.13037403  0.34449853  1
  H+  H346  1  0.59775031  0.40874455  0.41436032  1
  H+  H347  1  0.32701398  0.91279731  0.41367188  1
  H+  H348  1  0.02767993  0.89592740  0.78812104  1
  H+  H349  1  0.40268690  0.32084690  0.26271912  1
  H+  H350  1  0.83425619  0.42104587  0.76267591  1
  H+  H351  1  0.78403517  0.85606093  0.31234620  1
  H+  H352  1  0.83739762  0.86279727  0.81402704  1
  H+  H353  1  0.16831538  0.58546330  0.27049164  1
  H+  H354  1  0.41654470  0.85007748  0.92801004  1
  H+  H355  1  0.67919954  0.32575104  0.89896674  1
  H+  H356  1  0.59322797  0.43078397  0.09865243  1
  H+  H357  1  0.66629866  0.36811412  0.47797003  1
  H+  H358  1  0.44560647  0.60559880  0.64170408  1
  H+  H359  1  0.81374289  0.90121904  0.10719928  1
  H+  H360  1  0.81497818  0.41312956  0.39858679  1
  H+  H361  1  0.05145439  0.66153217  0.42917337  1
  H+  H362  1  0.88798350  0.78531414  0.52295199  1
  H+  H363  1  0.16574864  0.33726870  0.25928198  1
  H+  H364  1  0.97043274  0.62090682  0.33252596  1
  H+  H365  1  0.15544460  0.82842411  0.59321019  1
  H+  H366  1  0.33180811  0.16435600  0.70875535  1
  H+  H367  1  0.35563689  0.43682013  0.10467818  1
  H+  H368  1  0.82305936  0.16941358  0.75973865  1
  H+  H369  1  0.72923056  0.10621757  0.31452088  1
  H+  H370  1  0.08586340  0.16919859  0.42639632  1
  H+  H371  1  0.45907896  0.49078888  0.35871572  1
  H+  H372  1  0.38818701  0.31510879  0.92495196  1
  H+  H373  1  0.10315582  0.67064178  0.06173101  1
  H+  H374  1  0.38284227  0.56326473  0.55554773  1
  H+  H375  1  0.65255407  0.57366693  0.28139616  1
  H+  H376  1  0.40118404  0.06216193  0.28261530  1
  H+  H377  1  0.68922424  0.22774459  0.96841005  1
  H+  H378  1  0.83306569  0.15831910  0.06308739  1
  H+  H379  1  0.56557794  0.91011844  0.77426461  1
  H+  H380  1  0.86967409  0.01163811  0.99378819  1
  H+  H381  1  0.65819300  0.84623940  0.93611591  1
  H+  H382  1  0.57790922  0.65467850  0.43167362  1
  H+  H383  1  0.33627852  -0.00134794  0.17630805  1
  O2-  O384  1  0.04885023  0.10978027  0.13712953  1
  O2-  O385  1  0.08402783  0.16518340  0.47282658  1
  O2-  O386  1  0.08225620  0.17078308  0.81596235  1
  O2-  O387  1  0.09329753  0.42056125  0.14794544  1
  O2-  O388  1  0.05684284  0.39814079  0.47739797  1
  O2-  O389  1  0.06865138  0.40558193  0.81788247  1
  O2-  O390  1  0.10819107  0.66588287  0.14497229  1
  O2-  O391  1  0.03935678  0.66151456  0.47370826  1
  O2-  O392  1  0.07937266  0.67438640  0.81067190  1
  O2-  O393  1  0.10546619  0.93138924  0.16069169  1
  O2-  O394  1  0.07071115  0.92143328  0.47731110  1
  O2-  O395  1  0.08648063  0.92525528  0.80322220  1
  O2-  O396  1  0.32709687  0.16162065  0.14640459  1
  O2-  O397  1  0.35946246  0.18223582  0.47561365  1
  O2-  O398  1  0.29030035  0.09981243  0.77437749  1
  O2-  O399  1  0.34892680  0.42529878  0.14841183  1
  O2-  O400  1  0.32802123  0.41020450  0.46439221  1
  O2-  O401  1  0.27574309  0.44782827  0.80185853  1
  O2-  O402  1  0.34103975  0.65504326  0.15953655  1
  O2-  O403  1  0.40728487  0.69195782  0.45009057  1
  O2-  O404  1  0.32314402  0.66871781  0.80962687  1
  O2-  O405  1  0.25758781  0.81998966  0.15723439  1
  O2-  O406  1  0.36688808  0.93793570  0.49124765  1
  O2-  O407  1  0.32676684  0.90282075  0.81184897  1
  O2-  O408  1  0.56247475  0.16295766  0.14682410  1
  O2-  O409  1  0.60233103  0.18225951  0.53571290  1
  O2-  O410  1  0.59505487  0.16357931  0.82995338  1
  O2-  O411  1  0.59424366  0.42868314  0.14335176  1
  O2-  O412  1  0.59975338  0.38908975  0.45722516  1
  O2-  O413  1  0.60494020  0.42806668  0.79626918  1
  O2-  O414  1  0.51446175  0.62712417  0.17055741  1
  O2-  O415  1  0.58121126  0.64189086  0.47577914  1
  O2-  O416  1  0.57708217  0.66401776  0.82089845  1
  O2-  O417  1  0.52921587  0.87674544  0.15115261  1
  O2-  O418  1  0.58981331  0.91152051  0.51973528  1
  O2-  O419  1  0.56988715  0.91222293  0.81844904  1
  O2-  O420  1  0.82591101  0.15747610  0.14910624  1
  O2-  O421  1  0.82136410  0.15553014  0.47279583  1
  O2-  O422  1  0.82671246  0.16763480  0.80888712  1
  O2-  O423  1  0.85173178  0.42537504  0.15413590  1
  O2-  O424  1  0.78463167  0.37200878  0.47420193  1
  O2-  O425  1  0.83534618  0.41913660  0.80804583  1
  O2-  O426  1  0.88060879  0.67434972  0.14593852  1
  O2-  O427  1  0.85316220  0.68670274  0.42385026  1
  O2-  O428  1  0.84351342  0.68460300  0.80554198  1
  O2-  O429  1  0.81191988  0.89224640  0.15242340  1
  O2-  O430  1  0.82166236  0.89810692  0.46741518  1
  O2-  O431  1  0.81393411  0.90007311  0.80434270  1
  O2-  O432  1  0.16291739  0.08533804  0.19514758  1
  O2-  O433  1  0.14585542  0.07906820  0.51552176  1
  O2-  O434  1  0.14818124  0.07336809  0.85397345  1
  O2-  O435  1  0.17505744  0.33995548  0.18106134  1
  O2-  O436  1  0.16053185  0.33136385  0.51384152  1
  O2-  O437  1  0.15496843  0.32928671  0.85891080  1
  O2-  O438  1  0.18190263  0.58763593  0.19066470  1
  O2-  O439  1  0.10424118  0.56062410  0.52533043  1
  O2-  O440  1  0.09490255  0.54802921  0.87885365  1
  O2-  O441  1  0.24534384  0.92965541  0.22233668  1
  O2-  O442  1  0.13750632  0.81987606  0.50963573  1
  O2-  O443  1  0.16613211  0.84599883  0.85769628  1
  O2-  O444  1  0.38323765  0.04037663  0.14878294  1
  O2-  O445  1  0.46746591  0.10353811  0.46569369  1
  O2-  O446  1  0.41187522  0.06743763  0.81890065  1
  O2-  O447  1  0.43155456  0.33225814  0.18516853  1
  O2-  O448  1  0.42993873  0.34874326  0.50418713  1
  O2-  O449  1  0.45788620  0.43754812  0.78877793  1
  O2-  O450  1  0.34883553  0.54571511  0.21978688  1
  O2-  O451  1  0.39382079  0.56717478  0.51115116  1
  O2-  O452  1  0.39660311  0.58024572  0.84975854  1
  O2-  O453  1  0.45222812  0.83278068  0.17233623  1
  O2-  O454  1  0.41618639  0.81780011  0.51760368  1
  O2-  O455  1  0.42077564  0.85006283  0.85876035  1
  O2-  O456  1  0.64938418  0.07880691  0.18160548  1
  O2-  O457  1  0.67700049  0.08268366  0.52944103  1
  O2-  O458  1  0.67589471  0.07396955  0.85363460  1
  O2-  O459  1  0.67255953  0.33898947  0.18281997  1
  O2-  O460  1  0.70102777  0.34512294  0.50281002  1
  O2-  O461  1  0.67303655  0.33431648  0.85476443  1
  O2-  O462  1  0.64086339  0.57810234  0.20323924  1
  O2-  O463  1  0.71089508  0.61241583  0.51896446  1
  O2-  O464  1  0.60764753  0.54476374  0.88124207  1
  O2-  O465  1  0.64564911  0.80933389  0.18829941  1
  O2-  O466  1  0.67886190  0.83868881  0.52443338  1
  O2-  O467  1  0.65277982  0.82776492  0.85506788  1
  O2-  O468  1  0.89445487  0.06390065  0.19609123  1
  O2-  O469  1  0.90508911  0.07586420  0.49903179  1
  O2-  O470  1  0.91703026  0.03646003  0.85927361  1
  O2-  O471  1  0.92469135  0.33129415  0.18613620  1
  O2-  O472  1  0.89126290  0.31616496  0.52013177  1
  O2-  O473  1  0.89996136  0.32123105  0.84948354  1
  O2-  O474  1  0.94813194  0.59362862  0.18827832  1
  O2-  O475  1  0.87219713  0.59136423  0.52766131  1
  O2-  O476  1  0.91185207  0.59121859  0.84471932  1
  O2-  O477  1  0.94210333  0.83192390  0.18401919  1
  O2-  O478  1  0.91661146  0.84699051  0.53112969  1
  O2-  O479  1  0.93330042  0.85825213  0.87434579  1
  O2-  O480  1  0.15058362  0.08050331  0.31562552  1
  O2-  O481  1  0.17270127  0.09385945  0.63206224  1
  O2-  O482  1  0.15150229  0.08971117  0.98013762  1
  O2-  O483  1  0.16239639  0.33679424  0.30485153  1
  O2-  O484  1  0.16676119  0.33472078  0.63923011  1
  O2-  O485  1  0.18404146  0.35023492  0.98512205  1
  O2-  O486  1  0.16558090  0.58618791  0.31590382  1
  O2-  O487  1  0.14879278  0.57410304  0.64361942  1
  O2-  O488  1  0.18790917  0.59834065  0.98077055  1
  O2-  O489  1  0.15237619  0.83984328  0.32056897  1
  O2-  O490  1  0.16014453  0.82873693  0.63798236  1
  O2-  O491  1  0.25300945  0.94056032  0.97090735  1
  O2-  O492  1  0.34437060  0.03346867  0.30107232  1
  O2-  O493  1  0.47329640  0.14921134  0.62378961  1
  O2-  O494  1  0.39501730  0.09543303  0.95916196  1
  O2-  O495  1  0.37421860  0.31675727  0.30226621  1
  O2-  O496  1  0.44013943  0.35985951  0.63494420  1
  O2-  O497  1  0.41920509  0.32919308  1.04929113  1
  O2-  O498  1  0.39790170  0.57828934  0.27585987  1
  O2-  O499  1  0.38395642  0.56578937  0.63782146  1
  O2-  O500  1  0.42141084  0.59713759  0.96805000  1
  O2-  O501  1  0.42457182  0.83551197  0.33504338  1
  O2-  O502  1  0.40350265  0.80696890  0.63934613  1
  O2-  O503  1  0.41696340  0.84994945  0.97552728  1
  O2-  O504  1  0.66899940  0.08647321  0.30078066  1
  O2-  O505  1  0.66127186  0.08503803  0.66466293  1
  O2-  O506  1  0.67075832  0.10838585  0.97554728  1
  O2-  O507  1  0.67492259  0.35343118  0.30590445  1
  O2-  O508  1  0.69581023  0.38117672  0.61812835  1
  O2-  O509  1  0.68361443  0.27941218  0.97170915  1
  O2-  O510  1  0.64980232  0.57555326  0.32653300  1
  O2-  O511  1  0.70314355  0.62352509  0.65677935  1
  O2-  O512  1  0.69795538  0.58935794  0.98824139  1
  O2-  O513  1  0.67972678  0.83181177  0.31015565  1
  O2-  O514  1  0.68240865  0.84330756  0.64168519  1
  O2-  O515  1  0.65791064  0.84835034  0.98115249  1
  O2-  O516  1  0.90694650  0.07581421  0.31978134  1
  O2-  O517  1  0.91162313  0.08890522  0.65753816  1
  O2-  O518  1  0.89842308  0.06599936  0.97002466  1
  O2-  O519  1  0.90562917  0.32716812  0.31162341  1
  O2-  O520  1  0.91084930  0.32977220  0.64615038  1
  O2-  O521  1  0.96841892  0.41549830  0.96199334  1
  O2-  O522  1  0.90999075  0.59335004  0.31787855  1
  O2-  O523  1  0.91770436  0.59457309  0.64231849  1
  O2-  O524  1  0.95714912  0.61515978  0.97109949  1
  O2-  O525  1  0.87183073  0.84607015  0.36103910  1
  O2-  O526  1  0.94192143  0.86721700  0.65503546  1
  O2-  O527  1  0.90607193  0.83890760  1.00476977  1
  O2-  O528  1  0.10673135  0.19902070  0.02703582  1
  O2-  O529  1  0.08094573  0.17048497  0.35449742  1
  O2-  O530  1  0.08591058  0.17134485  0.68981211  1
  O2-  O531  1  0.10262909  0.43498664  0.02664117  1
  O2-  O532  1  0.07358886  0.41644901  0.35249440  1
  O2-  O533  1  0.07590062  0.41132749  0.69127513  1
  O2-  O534  1  0.11174238  0.67637339  0.01724085  1
  O2-  O535  1  0.07790830  0.67182811  0.35368258  1
  O2-  O536  1  0.07924182  0.66522937  0.68448430  1
  O2-  O537  1  0.12203699  0.93841846  0.04040491  1
  O2-  O538  1  0.05814111  0.91334289  0.35792003  1
  O2-  O539  1  0.11210032  0.94044103  0.68468763  1
  O2-  O540  1  0.31442371  0.16665032  0.02345459  1
  O2-  O541  1  0.31640300  0.15592327  0.35504312  1
  O2-  O542  1  0.34477684  0.18935489  0.66676136  1
  O2-  O543  1  0.34754527  0.42966104  0.00672932  1
  O2-  O544  1  0.39851604  0.45779045  0.34706335  1
  O2-  O545  1  0.34818543  0.42653698  0.70470831  1
  O2-  O546  1  0.34764421  0.67916913  0.01826573  1
  O2-  O547  1  0.33280059  0.65418222  0.34808381  1
  O2-  O548  1  0.31193698  0.64694789  0.68669050  1
  O2-  O549  1  0.34052869  0.91101021  0.05354852  1
  O2-  O550  1  0.31136123  0.89773833  0.37067238  1
  O2-  O551  1  0.29144781  0.82357428  0.70154605  1
  O2-  O552  1  0.53818850  0.21378686  0.03297332  1
  O2-  O553  1  0.66786341  0.21723039  0.36419938  1
  O2-  O554  1  0.53881068  0.09780434  0.72341188  1
  O2-  O555  1  0.57939387  0.40950137  0.00608041  1
  O2-  O556  1  0.59141820  0.43184064  0.34328343  1
  O2-  O557  1  0.61383990  0.45568929  0.67023179  1
  O2-  O558  1  0.58799813  0.64768105  0.02155836  1
  O2-  O559  1  0.57152751  0.66787236  0.35687678  1
  O2-  O560  1  0.65983685  0.71037921  0.71487446  1
  O2-  O561  1  0.57389176  0.94057341  0.01873194  1
  O2-  O562  1  0.60182512  0.91780905  0.35124038  1
  O2-  O563  1  0.58272372  0.91815717  0.64713603  1
  O2-  O564  1  0.83520725  0.16228440  0.01833186  1
  O2-  O565  1  0.82608421  0.15472829  0.35119691  1
  O2-  O566  1  0.81823594  0.16747260  0.69690295  1
  O2-  O567  1  0.84140411  0.40423865  0.02856567  1
  O2-  O568  1  0.83006838  0.42474413  0.35450985  1
  O2-  O569  1  0.84478787  0.43101327  0.68321538  1
  O2-  O570  1  0.86967223  0.67995178  0.03052670  1
  O2-  O571  1  0.82964822  0.67099073  0.36325752  1
  O2-  O572  1  0.85899540  0.69720388  0.68900411  1
  O2-  O573  1  0.81639445  0.91318769  0.03151073  1
  O2-  O574  1  0.84415170  0.86687573  0.30395715  1
  O2-  O575  1  0.83778148  0.92851632  0.68469672  1
