# generated using pymatgen
data_H2O
_symmetry_space_group_name_H-M   'P 1'
_cell_length_a   17.99804941
_cell_length_b   18.00049705
_cell_length_c   22.01484283
_cell_angle_alpha   90.00117148
_cell_angle_beta   89.98470562
_cell_angle_gamma   120.00297838
_symmetry_Int_Tables_number   1
_chemical_formula_structural   H2O
_chemical_formula_sum   'H384 O192'
_cell_volume   6176.50936252
_cell_formula_units_Z   192
loop_
 _symmetry_equiv_pos_site_id
 _symmetry_equiv_pos_as_xyz
  1  'x, y, z'
loop_
 _atom_type_symbol
 _atom_type_oxidation_number
  H+  1.0
  O2-  -2.0
loop_
 _atom_site_type_symbol
 _atom_site_label
 _atom_site_symmetry_multiplicity
 _atom_site_fract_x
 _atom_site_fract_y
 _atom_site_fract_z
 _atom_site_occupancy
  H+  H0  1  0.89098858  0.53308323  0.49678394  1
  H+  H1  1  0.11640452  0.38647021  0.16855068  1
  H+  H2  1  0.11541586  0.63823430  0.16210489  1
  H+  H3  1  0.64160856  0.51950403  0.84264103  1
  H+  H4  1  0.52841066  0.64889972  0.33092973  1
  H+  H5  1  0.13503590  0.26756025  0.17261438  1
  H+  H6  1  0.88134880  0.37319257  0.81847016  1
  H+  H7  1  0.91610751  0.33970744  0.56343901  1
  H+  H8  1  0.61590967  0.13798234  0.67599602  1
  H+  H9  1  0.11255573  0.13386324  0.15669001  1
  H+  H10  1  0.98169265  0.60844909  0.83635355  1
  H+  H11  1  0.25778387  0.87184327  1.00402643  1
  H+  H12  1  0.09027940  0.42039294  0.11028455  1
  H+  H13  1  0.86459215  0.22860459  0.01827419  1
  H+  H14  1  1.03867901  0.62845652  0.67340026  1
  H+  H15  1  0.83127971  0.16599364  0.07555372  1
  H+  H16  1  0.35954896  0.38557141  0.16263574  1
  H+  H17  1  0.63052581  0.61348684  0.65674821  1
  H+  H18  1  0.13319417  -0.00563225  0.83053238  1
  H+  H19  1  0.82353343  0.86514708  0.14200041  1
  H+  H20  1  0.40036612  0.50172010  0.48138621  1
  H+  H21  1  0.62760935  1.01945350  0.66014186  1
  H+  H22  1  0.22649315  0.11630858  0.16278098  1
  H+  H23  1  0.12177660  0.24753696  0.65797786  1
  H+  H24  1  0.62884726  0.15105108  0.02664065  1
  H+  H25  1  0.39920434  0.06410311  0.57048171  1
  H+  H26  1  0.86084890  0.47492798  0.17039134  1
  H+  H27  1  0.60841403  0.46842943  0.34424214  1
  H+  H28  1  0.98374380  0.85820789  0.47210978  1
  H+  H29  1  0.76371913  0.12868704  0.66988567  1
  H+  H30  1  0.12917397  0.85663389  0.99373414  1
  H+  H31  1  0.13270641  0.60958300  0.84318874  1
  H+  H32  1  0.12870639  0.76612846  -0.00317830  1
  H+  H33  1  0.86399638  0.63115462  0.33447547  1
  H+  H34  1  -0.05109649  0.10795922  0.49727081  1
  H+  H35  1  0.33503573  0.91685095  0.08663427  1
  H+  H36  1  0.59654274  0.66891861  0.73757639  1
  H+  H37  1  0.52821876  0.63982364  0.68375222  1
  H+  H38  1  0.26835387  0.13266897  0.64034378  1
  H+  H39  1  0.35988581  0.13767955  0.82216641  1
  H+  H40  1  0.16907420  0.21189654  0.45653264  1
  H+  H41  1  0.35261677  0.63616101  0.83256080  1
  H+  H42  1  0.13459706  0.77084463  0.32023066  1
  H+  H43  1  0.97845890  0.62411972  0.49606244  1
  H+  H44  1  0.36014524  0.71952383  0.16018407  1
  H+  H45  1  0.34890889  0.88348480  0.66471183  1
  H+  H46  1  0.31722201  0.91391256  0.39420481  1
  H+  H47  1  -0.02932621  0.12085733  0.66051385  1
  H+  H48  1  0.63478017  0.35907705  0.33048679  1
  H+  H49  1  0.63092154  0.78523299  0.31449607  1
  H+  H50  1  -0.03845494  0.35105499  0.66139474  1
  H+  H51  1  0.86069497  0.63082569  0.83317354  1
  H+  H52  1  0.14740979  0.54462878  0.50332981  1
  H+  H53  1  0.88872208  0.13221576  0.32498299  1
  H+  H54  1  0.25543246  0.09004994  0.65535426  1
  H+  H55  1  0.63046764  0.52143087  0.17723500  1
  H+  H56  1  0.72818624  0.61900401  0.99045172  1
  H+  H57  1  0.72757253  0.87563968  0.16496789  1
  H+  H58  1  0.10877802  0.43324036  0.41892786  1
  H+  H59  1  0.47025037  0.85823081  0.99183598  1
  H+  H60  1  0.37257882  0.88674163  0.83403802  1
  H+  H61  1  0.86502733  0.64051019  0.48740085  1
  H+  H62  1  0.50186960  0.69481974  0.54053407  1
  H+  H63  1  0.12111598  0.48028473  0.01505155  1
  H+  H64  1  0.09645713  0.38463366  0.67391592  1
  H+  H65  1  0.90911767  0.51519907  0.64831280  1
  H+  H66  1  0.26966326  0.13107547  0.00055275  1
  H+  H67  1  0.64472958  0.27435070  0.84176872  1
  H+  H68  1  0.36019723  0.47476733  0.15913547  1
  H+  H69  1  0.37681949  0.77472992  0.32865698  1
  H+  H70  1  0.63040612  0.86028292  0.66121687  1
  H+  H71  1  0.23447517  0.86993843  0.17014084  1
  H+  H72  1  0.43487552  0.83663384  0.89694725  1
  H+  H73  1  0.39681588  0.35645816  0.66707670  1
  H+  H74  1  0.10994268  0.47496615  0.33103927  1
  H+  H75  1  0.51485796  0.13396829  0.34141180  1
  H+  H76  1  0.37058525  0.64784539  0.68751524  1
  H+  H77  1  0.85950259  0.97525938  0.67102323  1
  H+  H78  1  0.37704337  0.86508841  0.32726565  1
  H+  H79  1  0.63697556  0.03398398  1.00387281  1
  H+  H80  1  0.36735485  0.10555729  -0.01190802  1
  H+  H81  1  0.79399180  0.39216353  -0.00978440  1
  H+  H82  1  0.82608087  0.92708056  0.38702292  1
  H+  H83  1  0.84958751  0.21441484  0.35649187  1
  H+  H84  1  0.09095249  0.94283581  0.67751776  1
  H+  H85  1  0.36191608  0.64344909  0.33942447  1
  H+  H86  1  0.38466930  0.11775580  0.33659032  1
  H+  H87  1  0.85580738  0.37891277  0.33992140  1
  H+  H88  1  0.37951876  0.51688466  0.99886092  1
  H+  H89  1  0.88601496  0.11579471  0.00512938  1
  H+  H90  1  0.22120229  0.09204910  0.50137082  1
  H+  H91  1  0.13962486  0.10702067  0.98484126  1
  H+  H92  1  0.78318138  0.13138546  0.17138707  1
  H+  H93  1  0.18769175  0.88552569  0.48355026  1
  H+  H94  1  0.10338159  0.34669117  0.49886215  1
  H+  H95  1  0.91845976  0.83337887  0.38378275  1
  H+  H96  1  0.85941856  0.71910051  0.33657306  1
  H+  H97  1  0.65884762  0.08120505  0.60088798  1
  H+  H98  1  0.59085613  0.41660950  0.76492741  1
  H+  H99  1  0.62360436  0.85040471  0.84478842  1
  H+  H100  1  0.94279599  0.12793341  0.56643918  1
  H+  H101  1  0.28292621  0.37122655  0.68712577  1
  H+  H102  1  0.72578525  0.02249185  0.22971623  1
  H+  H103  1  0.11973510  0.72928684  0.15858316  1
  H+  H104  1  0.35865095  0.72185367  0.00674711  1
  H+  H105  1  0.77057034  0.88793797  0.67247532  1
  H+  H106  1  0.61374320  0.71585360  0.82726682  1
  H+  H107  1  0.39799599  0.31938970  0.57744379  1
  H+  H108  1  0.87640578  0.86030607  0.00120872  1
  H+  H109  1  0.63206991  0.76453114  0.99501659  1
  H+  H110  1  0.60759157  0.62710558  -0.00214005  1
  H+  H111  1  0.47655306  0.35872754  0.32642430  1
  H+  H112  1  0.51892649  0.89213444  0.67695260  1
  H+  H113  1  0.41170080  0.96787615  0.13194279  1
  H+  H114  1  0.63194373  0.52406684  0.65343516  1
  H+  H115  1  0.88781945  0.61646559  0.98928263  1
  H+  H116  1  0.37920833  0.85541105  0.99045703  1
  H+  H117  1  0.89005901  0.77614423  0.47221210  1
  H+  H118  1  0.26885645  0.13451265  0.82293320  1
  H+  H119  1  0.22606882  0.61193075  0.17295569  1
  H+  H120  1  0.44834810  0.09109439  0.98111718  1
  H+  H121  1  0.91324735  0.07421435  0.22237024  1
  H+  H122  1  0.02478106  0.38967503  0.82848709  1
  H+  H123  1  -0.03513357  0.85966489  -0.00483495  1
  H+  H124  1  0.53535157  0.38907409  0.66893465  1
  H+  H125  1  0.22002974  0.40363453  0.62717835  1
  H+  H126  1  0.87598293  1.00676173  0.16570126  1
  H+  H127  1  0.36225613  0.75193611  0.49103922  1
  H+  H128  1  0.73240119  0.60980584  0.84849998  1
  H+  H129  1  0.33865004  -0.02769302  0.49392038  1
  H+  H130  1  0.64590253  0.00947224  0.19192549  1
  H+  H131  1  0.85953545  0.72803548  1.00672671  1
  H+  H132  1  0.13938470  1.02416952  0.16353696  1
  H+  H133  1  0.55493645  0.17554729  0.02924653  1
  H+  H134  1  0.85325884  0.22885710  0.81617798  1
  H+  H135  1  0.47837021  0.11627745  0.83728547  1
  H+  H136  1  0.66726163  0.38282356  0.99876192  1
  H+  H137  1  0.60549709  0.25445403  0.18537811  1
  H+  H138  1  0.34741351  -0.02428679  0.65432351  1
  H+  H139  1  0.13001041  0.63737659  0.68028447  1
  H+  H140  1  0.38637592  0.35572633  0.33076421  1
  H+  H141  1  0.86746370  0.48270251  0.81833849  1
  H+  H142  1  0.60194180  0.21748162  0.49536888  1
  H+  H143  1  0.08866819  0.67413962  0.39666929  1
  H+  H144  1  0.53640016  0.15415893  0.68584822  1
  H+  H145  1  0.96593849  0.35300188  0.33413395  1
  H+  H146  1  0.96454593  0.84239293  0.67377370  1
  H+  H147  1  0.13983601  0.27645760  0.84371946  1
  H+  H148  1  0.14248713  0.10621082  0.84478591  1
  H+  H149  1  0.63108652  0.78642267  0.17009926  1
  H+  H150  1  0.97435451  0.11319436  0.99939018  1
  H+  H151  1  0.36539351  0.73088334  0.83033971  1
  H+  H152  1  0.33007367  0.66166456  0.09926858  1
  H+  H153  1  0.60966853  0.35490862  0.18244964  1
  H+  H154  1  0.60381593  0.88044252  0.32263635  1
  H+  H155  1  0.11234398  0.97304576  -0.00117118  1
  H+  H156  1  0.85894401  0.72497054  0.16500461  1
  H+  H157  1  0.05378711  0.24520135  0.52047806  1
  H+  H158  1  0.22756379  0.85320256  0.84438203  1
  H+  H159  1  0.72143096  0.85737554  -0.00380682  1
  H+  H160  1  0.46841550  0.60607531  -0.00492417  1
  H+  H161  1  0.22585636  0.36157216  0.32582442  1
  H+  H162  1  0.47348516  0.87484380  0.50879174  1
  H+  H163  1  0.37797632  0.52618857  0.84459842  1
  H+  H164  1  0.11686566  0.22432216  0.32933460  1
  H+  H165  1  0.20481589  0.31436234  0.49590841  1
  H+  H166  1  0.47716793  0.61666459  0.16651410  1
  H+  H167  1  0.11106615  0.38573024  0.33207786  1
  H+  H168  1  0.63801090  0.02028997  0.83909578  1
  H+  H169  1  0.22324391  0.61129445  -0.00472042  1
  H+  H170  1  0.43344304  0.60015769  0.52351798  1
  H+  H171  1  0.65216855  0.49961798  0.01648328  1
  H+  H172  1  0.13690604  0.52330437  0.17709382  1
  H+  H173  1  0.62290495  0.63200078  0.82603099  1
  H+  H174  1  0.14220434  0.36670473  0.84150575  1
  H+  H175  1  0.64682481  0.27961207  0.65963415  1
  H+  H176  1  0.10950063  0.63154954  0.00734254  1
  H+  H177  1  0.67082628  0.59280199  0.56192146  1
  H+  H178  1  0.77635936  0.38701904  0.49135999  1
  H+  H179  1  0.27363722  0.38122038  1.00579644  1
  H+  H180  1  0.40420023  0.14600685  0.67436979  1
  H+  H181  1  0.63492813  0.60750084  0.33086894  1
  H+  H182  1  0.37425052  0.84952965  0.17038933  1
  H+  H183  1  0.03436328  0.39059262  0.02284069  1
  H+  H184  1  0.35793926  0.14358388  0.15844190  1
  H+  H185  1  0.62286696  0.10464032  0.33821671  1
  H+  H186  1  0.72712047  0.12148583  1.00725872  1
  H+  H187  1  0.13816512  0.76117423  0.66974087  1
  H+  H188  1  -0.01294922  0.86359643  0.83019577  1
  H+  H189  1  0.67796393  0.33993539  0.89758447  1
  H+  H190  1  0.38724809  0.52243503  0.67319223  1
  H+  H191  1  0.22478299  0.35782293  0.17263311  1
  H+  H192  1  0.88350733  0.85357959  0.66797559  1
  H+  H193  1  0.86468056  0.64002631  0.16310807  1
  H+  H194  1  0.88708509  0.51939766  0.32664562  1
  H+  H195  1  0.38617181  0.78133605  0.66456475  1
  H+  H196  1  0.61666091  0.13562071  0.83589724  1
  H+  H197  1  0.49831684  0.87020397  0.83884918  1
  H+  H198  1  0.36156320  0.22130430  1.00043124  1
  H+  H199  1  0.90472926  0.87884715  0.20231418  1
  H+  H200  1  0.86126367  0.89962399  0.47384232  1
  H+  H201  1  0.77390637  0.89727478  0.48578753  1
  H+  H202  1  0.50641958  0.13473847  0.17457430  1
  H+  H203  1  1.02781482  0.88941238  0.33702826  1
  H+  H204  1  0.97825023  0.61860390  0.99169629  1
  H+  H205  1  0.37867760  0.27341771  0.16981830  1
  H+  H206  1  0.45875271  0.05911619  0.63472745  1
  H+  H207  1  0.87951695  0.11385230  0.65649645  1
  H+  H208  1  0.38763866  0.61606127  0.16674114  1
  H+  H209  1  0.36902113  0.22702465  0.34829111  1
  H+  H210  1  0.12263266  -0.04149680  0.48022822  1
  H+  H211  1  0.22268689  0.61136705  0.32697476  1
  H+  H212  1  0.12861067  0.84636134  0.67291810  1
  H+  H213  1  0.41493429  0.27508719  0.66459020  1
  H+  H214  1  0.53591594  0.61212802  0.46515780  1
  H+  H215  1  0.66412772  0.94431125  0.80134912  1
  H+  H216  1  0.73494053  0.36834059  0.65305628  1
  H+  H217  1  0.58833442  -0.07171920  0.94616424  1
  H+  H218  1  0.72050539  0.60268229  0.33931755  1
  H+  H219  1  0.63077674  0.63847054  0.15603779  1
  H+  H220  1  0.97683107  0.60939900  0.32908317  1
  H+  H221  1  0.47850356  0.35853598  0.83655946  1
  H+  H222  1  0.88118882  0.48337825  -0.00957234  1
  H+  H223  1  0.13624104  0.74690850  0.48433811  1
  H+  H224  1  0.61171924  0.88037483  -0.00622031  1
  H+  H225  1  0.51721626  0.89541734  0.16901494  1
  H+  H226  1  0.11419977  0.72077854  0.82882468  1
  H+  H227  1  0.42819800  0.34251546  0.50714228  1
  H+  H228  1  0.72506801  0.35952745  0.32672838  1
  H+  H229  1  0.62965395  0.63673107  0.48481966  1
  H+  H230  1  0.22376969  0.61447718  0.84418459  1
  H+  H231  1  0.08509367  0.09732045  0.62780048  1
  H+  H232  1  0.24213166  0.62674467  0.66292674  1
  H+  H233  1  0.63345820  0.77221046  0.66419723  1
  H+  H234  1  0.13131175  0.10131025  0.31372200  1
  H+  H235  1  0.76761697  0.13807253  0.82610222  1
  H+  H236  1  0.86065393  0.38883142  0.17700930  1
  H+  H237  1  0.19329640  0.46823582  0.45794740  1
  H+  H238  1  0.03117122  0.88891868  0.16333829  1
  H+  H239  1  0.58111175  0.16718320  0.12340325  1
  H+  H240  1  0.83345600  0.41912990  0.72180467  1
  H+  H241  1  0.90148999  0.37164355  0.99639929  1
  H+  H242  1  0.51077790  0.38222548  0.16084784  1
  H+  H243  1  0.89614085  0.85777340  0.83664156  1
  H+  H244  1  0.14997735  0.06748345  0.64035578  1
  H+  H245  1  0.87286189  0.26332691  0.65384676  1
  H+  H246  1  0.38089033  0.02588255  0.32937994  1
  H+  H247  1  0.89018427  0.13260761  0.84768730  1
  H+  H248  1  -0.01497910  0.39145914  0.51338551  1
  H+  H249  1  0.66145450  0.29173776  1.00196091  1
  H+  H250  1  0.14237051  0.36538955  0.99801976  1
  H+  H251  1  0.63692342  0.76783661  0.50541645  1
  H+  H252  1  0.56075013  0.41602230  0.50639756  1
  H+  H253  1  0.62797827  0.11566452  0.50283476  1
  H+  H254  1  0.77626376  0.39362862  0.81826966  1
  H+  H255  1  -0.02005401  0.62126557  0.17419512  1
  H+  H256  1  0.74046423  0.62876723  0.50442762  1
  H+  H257  1  0.89224555  0.26990347  0.17955692  1
  H+  H258  1  0.61753214  0.38418755  0.82426058  1
  H+  H259  1  0.85827111  0.37930722  0.66475186  1
  H+  H260  1  0.35592236  0.49693949  0.48323903  1
  H+  H261  1  0.29168259  0.30591465  0.50115912  1
  H+  H262  1  0.60362712  0.89455034  0.15911692  1
  H+  H263  1  0.11262643  0.63637723  0.33824825  1
  H+  H264  1  0.60023119  0.87973369  0.49999602  1
  H+  H265  1  0.26574415  0.88545829  0.33164834  1
  H+  H266  1  0.12137053  0.65351873  0.49229490  1
  H+  H267  1  0.72243315  0.60699898  0.17572463  1
  H+  H268  1  0.45593722  0.09421404  0.50533598  1
  H+  H269  1  0.34365989  0.96284654  -0.00282733  1
  H+  H270  1  0.86050882  0.70931291  0.66198829  1
  H+  H271  1  0.86935039  0.13122377  0.15853738  1
  H+  H272  1  0.02185359  0.13027112  0.15480271  1
  H+  H273  1  0.38863082  0.53273409  0.31605321  1
  H+  H274  1  0.36919279  0.66973565  0.49923948  1
  H+  H275  1  0.64533273  0.36097617  0.50484680  1
  H+  H276  1  0.38634277  0.35219140  0.99225874  1
  H+  H277  1  0.35113697  0.11463569  0.50139481  1
  H+  H278  1  0.77035311  0.86991389  0.83020501  1
  H+  H279  1  0.60687376  0.22064729  0.34159027  1
  H+  H280  1  0.85341694  0.97653482  0.00705600  1
  H+  H281  1  0.11358866  0.22415458  0.00318349  1
  H+  H282  1  0.34411986  0.20120276  0.50909593  1
  H+  H283  1  0.11454775  0.47754411  0.83136728  1
  H+  H284  1  0.02274412  0.14265743  0.32714318  1
  H+  H285  1  0.23258290  0.63527028  0.50456693  1
  H+  H286  1  0.02087417  0.14821957  0.84680645  1
  H+  H287  1  0.62536313  0.39246216  0.66780326  1
  H+  H288  1  0.82399658  0.15957271  0.72891015  1
  H+  H289  1  0.34379198  0.41244789  0.74388653  1
  H+  H290  1  0.14197019  0.33472086  0.58749576  1
  H+  H291  1  0.92086428  0.59142458  0.23392937  1
  H+  H292  1  0.17314368  0.07851789  0.92364926  1
  H+  H293  1  0.18102252  0.59970008  0.60464648  1
  H+  H294  1  0.37014701  0.38545563  0.83137351  1
  H+  H295  1  0.35791455  0.63182714  0.00943522  1
  H+  H296  1  0.41716507  0.32394955  0.93376543  1
  H+  H297  1  0.08090659  0.66187495  0.06740719  1
  H+  H298  1  0.82817832  0.65988143  0.42667755  1
  H+  H299  1  0.33745895  0.16682211  0.40847834  1
  H+  H300  1  0.90875208  0.31994979  0.27494865  1
  H+  H301  1  0.83025508  0.41469656  0.39792888  1
  H+  H302  1  0.95566915  0.19190680  0.27676777  1
  H+  H303  1  0.36259299  0.02789985  0.18630118  1
  H+  H304  1  0.65783965  0.84547535  0.25349925  1
  H+  H305  1  0.11878822  0.97700572  0.32713523  1
  H+  H306  1  0.16228932  0.57820755  0.93640544  1
  H+  H307  1  0.09744128  0.14951251  0.40473479  1
  H+  H308  1  0.06877123  0.40469198  0.73774686  1
  H+  H309  1  0.38298594  0.87565680  0.50658778  1
  H+  H310  1  0.29619678  0.36075913  0.41033853  1
  H+  H311  1  0.91537241  0.10271968  0.91069288  1
  H+  H312  1  0.41936093  0.59371560  0.25929406  1
  H+  H313  1  0.77211074  0.62685329  0.66132130  1
  H+  H314  1  0.60915390  0.97196202  0.49713673  1
  H+  H315  1  0.16944450  0.33125178  0.26425632  1
  H+  H316  1  0.16548464  0.07435907  0.25670404  1
  H+  H317  1  0.08636330  0.16521647  0.06208790  1
  H+  H318  1  0.58097996  0.40549231  0.39962743  1
  H+  H319  1  0.67536514  0.72459455  0.11918365  1
  H+  H320  1  0.11961151  0.88957674  0.15778976  1
  H+  H321  1  0.08717616  0.66007521  0.76927788  1
  H+  H322  1  0.08210527  0.91642776  0.05960587  1
  H+  H323  1  0.59472581  0.17064725  0.77573478  1
  H+  H324  1  0.98009208  0.35983298  0.18293679  1
  H+  H325  1  0.92026606  0.57817227  0.89484023  1
  H+  H326  1  0.58196053  0.65643185  0.05862637  1
  H+  H327  1  0.77103865  0.89451286  0.32656163  1
  H+  H328  1  0.50540761  0.87973969  0.32977909  1
  H+  H329  1  0.06437070  0.15163503  0.78493529  1
  H+  H330  1  0.41842256  0.59658255  0.62205244  1
  H+  H331  1  0.13452337  0.86072668  0.31745928  1
  H+  H332  1  0.40698625  0.08106290  0.88969663  1
  H+  H333  1  0.12850194  0.10700382  0.46990063  1
  H+  H334  1  0.66864420  0.32609723  0.56403673  1
  H+  H335  1  0.66579243  0.07441256  0.28479775  1
  H+  H336  1  0.37522144  0.17904653  0.73394170  1
  H+  H337  1  0.86537641  0.72223071  0.83515717  1
  H+  H338  1  0.88964514  0.33629472  0.88014141  1
  H+  H339  1  0.12854216  0.18769568  0.70656136  1
  H+  H340  1  0.16906375  0.33694909  0.93572998  1
  H+  H341  1  0.66713626  0.08318891  0.90228637  1
  H+  H342  1  0.60011885  0.97418304  0.33909953  1
  H+  H343  1  0.08757379  0.91121706  0.74633879  1
  H+  H344  1  0.64390584  0.49889434  0.48974353  1
  H+  H345  1  0.37066751  0.45062231  0.39242151  1
  H+  H346  1  0.57091944  0.15861049  0.43601059  1
  H+  H347  1  0.12732009  0.89945394  0.83033469  1
  H+  H348  1  0.24281414  0.86983415  0.66263586  1
  H+  H349  1  0.65713616  0.82335615  0.56776849  1
  H+  H350  1  0.13566094  0.05811638  0.54683815  1
  H+  H351  1  0.66574050  0.57658045  0.93205725  1
  H+  H352  1  0.39586148  0.57932643  0.90585301  1
  H+  H353  1  0.58396540  0.92634877  0.73497932  1
  H+  H354  1  0.33511029  0.68002526  0.74138192  1
  H+  H355  1  0.17417187  0.83605593  0.22914814  1
  H+  H356  1  0.71066558  0.48484131  0.06232041  1
  H+  H357  1  0.82817126  0.90763760  0.77214820  1
  H+  H358  1  0.93841574  0.58500960  0.59655699  1
  H+  H359  1  0.33177160  0.40964819  0.06540265  1
  H+  H360  1  0.40969894  0.32889170  0.23205591  1
  H+  H361  1  0.36413009  0.97062458  0.82980958  1
  H+  H362  1  0.10416737  0.90723768  0.41856308  1
  H+  H363  1  0.93032873  0.83443840  0.25165580  1
  H+  H364  1  0.28021390  0.38542423  0.82997149  1
  H+  H365  1  0.81599960  0.91897196  0.06719409  1
  H+  H366  1  0.76453900  0.12407411  0.35551612  1
  H+  H367  1  0.16199205  0.82292383  0.89980931  1
  H+  H368  1  0.76280317  0.13038776  0.46507094  1
  H+  H369  1  0.33366926  0.67539237  0.39945430  1
  H+  H370  1  0.64998129  0.32718485  0.24472422  1
  H+  H371  1  0.86934736  0.39681682  0.49231336  1
  H+  H372  1  0.65558665  0.82175783  0.90307283  1
  H+  H373  1  0.38681802  0.27096452  0.83551497  1
  H+  H374  1  0.40112966  0.82506669  0.23347474  1
  H+  H375  1  0.83084684  0.66493637  0.06398122  1
  H+  H376  1  0.40133662  0.08904350  0.24448017  1
  H+  H377  1  0.87884739  0.86656010  0.33507276  1
  H+  H378  1  0.94792217  0.33039733  0.95543056  1
  H+  H379  1  0.41187157  0.83915009  0.60352715  1
  H+  H380  1  0.58799016  0.41810674  0.10958232  1
  H+  H381  1  0.33335375  0.16996949  0.09410837  1
  H+  H382  1  0.16616889  0.58474985  0.26597626  1
  H+  H383  1  0.59563377  0.68214199  0.38581618  1
  O2-  O384  1  0.08333808  0.16612793  0.14289550  1
  O2-  O385  1  0.11504227  0.15410745  0.45034095  1
  O2-  O386  1  0.08035828  0.16976189  0.82673407  1
  O2-  O387  1  0.08721588  0.41876407  0.15591789  1
  O2-  O388  1  0.13151043  0.44395690  0.46255878  1
  O2-  O389  1  0.08601779  0.41635120  0.81695174  1
  O2-  O390  1  0.08580661  0.66832068  0.14542051  1
  O2-  O391  1  0.09576312  0.68643891  0.47361606  1
  O2-  O392  1  0.08422243  0.65913089  0.81528210  1
  O2-  O393  1  0.08765903  0.91816141  0.14287986  1
  O2-  O394  1  0.10614747  0.90077317  0.46379869  1
  O2-  O395  1  0.10012283  0.93072070  0.81291452  1
  O2-  O396  1  0.33043467  0.17420987  0.13956849  1
  O2-  O397  1  0.31831267  0.14504950  0.48809374  1
  O2-  O398  1  0.33103759  0.16864801  0.80618568  1
  O2-  O399  1  0.32775406  0.41390074  0.14614862  1
  O2-  O400  1  0.24709262  0.30416164  0.47285555  1
  O2-  O401  1  0.34036851  0.41578431  0.81419177  1
  O2-  O402  1  0.33123184  0.65886024  0.14519200  1
  O2-  O403  1  0.33555020  0.69004910  0.47638628  1
  O2-  O404  1  0.32665586  0.67112900  0.81605094  1
  O2-  O405  1  0.35023107  0.92659629  0.13220422  1
  O2-  O406  1  0.30963075  0.91238432  0.47292687  1
  O2-  O407  1  0.33183554  0.90736224  0.82648133  1
  O2-  O408  1  0.56957824  0.16615594  0.16764352  1
  O2-  O409  1  0.56949104  0.15617161  0.48145866  1
  O2-  O410  1  0.58909685  0.16929836  0.82073009  1
  O2-  O411  1  0.57453730  0.41054974  0.15381205  1
  O2-  O412  1  0.61043536  0.43503180  0.48016278  1
  O2-  O413  1  0.58570782  0.41312113  0.81012852  1
  O2-  O414  1  0.61842989  0.68231786  0.13389592  1
  O2-  O415  1  0.59379312  0.66140539  0.46619919  1
  O2-  O416  1  0.59340485  0.66008197  0.80652416  1
  O2-  O417  1  0.57683733  0.93127740  0.15438647  1
  O2-  O418  1  0.57058614  0.91117353  0.48700685  1
  O2-  O419  1  0.60817926  0.93842044  0.81010119  1
  O2-  O420  1  0.83954320  0.16494817  0.15053588  1
  O2-  O421  1  0.75095880  0.15182683  0.50294533  1
  O2-  O422  1  0.82582568  0.16676596  0.80658638  1
  O2-  O423  1  0.82421304  0.41263761  0.16502468  1
  O2-  O424  1  0.83544877  0.42288841  0.47497547  1
  O2-  O425  1  0.83482967  0.42298007  0.79964304  1
  O2-  O426  1  0.82995202  0.66653947  0.14814918  1
  O2-  O427  1  0.83242226  0.66904261  0.47174957  1
  O2-  O428  1  0.82551108  0.65859881  0.83087346  1
  O2-  O429  1  0.80972189  0.91084896  0.14338210  1
  O2-  O430  1  0.83042772  0.93118157  0.46625002  1
  O2-  O431  1  0.83045634  0.90390283  0.81687584  1
  O2-  O432  1  0.16649417  0.08442051  0.17902795  1
  O2-  O433  1  0.15509864  0.05998004  0.50357272  1
  O2-  O434  1  0.17827240  0.08148809  0.85628877  1
  O2-  O435  1  0.16534190  0.32720085  0.19018969  1
  O2-  O436  1  0.10999903  0.30238705  0.52145964  1
  O2-  O437  1  0.17378645  0.33794604  0.85698630  1
  O2-  O438  1  0.16670432  0.58527390  0.18998344  1
  O2-  O439  1  0.17223118  0.60298280  0.52014411  1
  O2-  O440  1  0.16333743  0.57946970  0.85944623  1
  O2-  O441  1  0.17437001  0.83836676  0.18315677  1
  O2-  O442  1  0.22389608  0.86168323  0.50059556  1
  O2-  O443  1  0.16464954  0.82364070  0.85472501  1
  O2-  O444  1  0.39860100  0.08820965  0.19793153  1
  O2-  O445  1  0.39565067  0.06376378  0.52012823  1
  O2-  O446  1  0.41525703  0.08506830  0.84509889  1
  O2-  O447  1  0.40968051  0.33337465  0.18672524  1
  O2-  O448  1  0.37820547  0.30782648  0.53236103  1
  O2-  O449  1  0.41862841  0.33082159  0.85273759  1
  O2-  O450  1  0.41946051  0.58716799  0.18398432  1
  O2-  O451  1  0.44178461  0.65033094  0.54654286  1
  O2-  O452  1  0.39149134  0.58247533  0.86111052  1
  O2-  O453  1  0.40457691  0.82161800  0.18828477  1
  O2-  O454  1  0.41107294  0.84462071  0.52283992  1
  O2-  O455  1  0.43737998  0.83800811  0.85189401  1
  O2-  O456  1  0.69760965  0.05422214  0.21675393  1
  O2-  O457  1  0.66182930  0.08727694  0.51767338  1
  O2-  O458  1  0.66620916  0.08448611  0.85761971  1
  O2-  O459  1  0.63587228  0.31974633  0.19887416  1
  O2-  O460  1  0.66653339  0.32241711  0.51823197  1
  O2-  O461  1  0.67591557  0.33701945  0.85241962  1
  O2-  O462  1  0.66130913  0.58331234  0.18753439  1
  O2-  O463  1  0.67736947  0.59560257  0.51584974  1
  O2-  O464  1  0.66846436  0.57730218  0.86150046  1
  O2-  O465  1  0.66114959  0.84686193  0.18309947  1
  O2-  O466  1  0.65333192  0.82473271  0.52213705  1
  O2-  O467  1  0.65263451  0.81871244  0.85783118  1
  O2-  O468  1  0.91338317  0.06982369  0.17768722  1
  O2-  O469  1  0.96525837  0.15495051  0.52581161  1
  O2-  O470  1  0.93056337  0.11789700  0.86733159  1
  O2-  O471  1  0.92081020  0.32708116  0.19970880  1
  O2-  O472  1  0.92401333  0.35242434  0.51876246  1
  O2-  O473  1  0.90735192  0.33932902  0.83802506  1
  O2-  O474  1  0.91969832  0.59565267  0.18878197  1
  O2-  O475  1  0.91786759  0.59445757  0.50931448  1
  O2-  O476  1  0.91994027  0.57496011  0.84960898  1
  O2-  O477  1  0.92807330  0.84040427  0.20723094  1
  O2-  O478  1  0.92362592  0.83855820  0.46063684  1
  O2-  O479  1  0.92720547  0.82594367  0.84358071  1
  O2-  O480  1  0.15983782  0.06899526  0.30172814  1
  O2-  O481  1  0.09887655  0.05245531  0.61601552  1
  O2-  O482  1  0.17059509  0.07696136  0.97230500  1
  O2-  O483  1  0.16656277  0.33112111  0.31039786  1
  O2-  O484  1  0.16533251  0.35052331  0.63076910  1
  O2-  O485  1  0.16910357  0.33280959  0.98113055  1
  O2-  O486  1  0.16255529  0.57995311  0.31164291  1
  O2-  O487  1  0.18149646  0.59391218  0.64912151  1
  O2-  O488  1  0.16182002  0.57884490  0.98219941  1
  O2-  O489  1  0.16627079  0.83071024  0.30347166  1
  O2-  O490  1  0.16224069  0.82176753  0.65333612  1
  O2-  O491  1  0.16109390  0.82644566  0.98117789  1
  O2-  O492  1  0.41298372  0.08689246  0.31578048  1
  O2-  O493  1  0.40649583  0.06264463  0.63234279  1
  O2-  O494  1  0.38863055  0.06662091  0.96956514  1
  O2-  O495  1  0.41589365  0.32855817  0.31076389  1
  O2-  O496  1  0.42611552  0.33115613  0.64373523  1
  O2-  O497  1  0.41319366  0.31846487  0.97880958  1
  O2-  O498  1  0.41827282  0.59339065  0.30526011  1
  O2-  O499  1  0.41611987  0.58528371  0.66598145  1
  O2-  O500  1  0.40586965  0.57827349  0.98560293  1
  O2-  O501  1  0.40754853  0.83454205  0.31170734  1
  O2-  O502  1  0.41209089  0.84170436  0.64875473  1
  O2-  O503  1  0.40964792  0.82438161  0.97782551  1
  O2-  O504  1  0.65252004  0.07078833  0.32928924  1
  O2-  O505  1  0.65742488  0.08123850  0.64594591  1
  O2-  O506  1  0.66554442  0.09584989  0.99375446  1
  O2-  O507  1  0.66314482  0.32771350  0.31321467  1
  O2-  O508  1  0.67233163  0.33656851  0.63953783  1
  O2-  O509  1  0.68469170  0.34479711  0.97748999  1
  O2-  O510  1  0.65681495  0.56843884  0.33979674  1
  O2-  O511  1  0.65355545  0.58115173  0.63383391  1
  O2-  O512  1  0.66633759  0.58170754  0.97869278  1
  O2-  O513  1  0.65449142  0.84591750  0.30024422  1
  O2-  O514  1  0.66023126  0.83065410  0.64465886  1
  O2-  O515  1  0.65990389  0.82567164  0.98154869  1
  O2-  O516  1  0.93386842  0.13572888  0.29567347  1
  O2-  O517  1  0.91494767  0.08910414  0.64004422  1
  O2-  O518  1  0.91223468  0.08324723  0.98759503  1
  O2-  O519  1  0.90536750  0.31919084  0.32075363  1
  O2-  O520  1  0.90399435  0.32422609  0.64000147  1
  O2-  O521  1  0.93145220  0.33422515  0.99688306  1
  O2-  O522  1  0.91698803  0.58053869  0.31278599  1
  O2-  O523  1  0.95993142  0.56509087  0.63010343  1
  O2-  O524  1  0.91953371  0.58805553  0.97351969  1
  O2-  O525  1  0.91280203  0.83486311  0.33799411  1
  O2-  O526  1  0.91179124  0.82390537  0.64982737  1
  O2-  O527  1  0.90206634  0.82476403  0.98981323  1
  O2-  O528  1  0.08279723  0.16312128  0.01689406  1
  O2-  O529  1  0.08317642  0.16191201  0.34041778  1
  O2-  O530  1  0.09396047  0.18695996  0.67228027  1
  O2-  O531  1  0.09667059  0.42158841  0.03366084  1
  O2-  O532  1  0.08192297  0.41573680  0.34932205  1
  O2-  O533  1  0.05260257  0.39259517  0.69431681  1
  O2-  O534  1  0.07993457  0.66285780  0.02196260  1
  O2-  O535  1  0.08396441  0.66907340  0.35117418  1
  O2-  O536  1  0.09523913  0.66394422  0.69543239  1
  O2-  O537  1  0.08028659  0.91245115  0.01470045  1
  O2-  O538  1  0.09049066  0.91529744  0.34386715  1
  O2-  O539  1  0.07600427  0.89173788  0.70120474  1
  O2-  O540  1  0.33064723  0.15958693  0.01672564  1
  O2-  O541  1  0.34334889  0.16758999  0.36378596  1
  O2-  O542  1  0.41296343  0.19759380  0.69724167  1
  O2-  O543  1  0.33465216  0.41168482  0.02025481  1
  O2-  O544  1  0.32678397  0.39725716  0.37396917  1
  O2-  O545  1  0.34307516  0.41018161  0.69689373  1
  O2-  O546  1  0.32719628  0.66244892  0.02409031  1
  O2-  O547  1  0.32962793  0.67140248  0.35395079  1
  O2-  O548  1  0.34306493  0.68276070  0.69577900  1
  O2-  O549  1  0.32107668  0.90507833  0.01613718  1
  O2-  O550  1  0.32545687  0.91636189  0.34925870  1
  O2-  O551  1  0.31449094  0.91259914  0.67245965  1
  O2-  O552  1  0.61076874  0.19112562  0.04605454  1
  O2-  O553  1  0.57522693  0.16073417  0.35753756  1
  O2-  O554  1  0.59691001  0.17654951  0.69564042  1
  O2-  O555  1  0.65391997  0.45417350  0.04357613  1
  O2-  O556  1  0.57771427  0.40446934  0.35471035  1
  O2-  O557  1  0.59505122  0.42208726  0.68444360  1
  O2-  O558  1  0.57613589  0.65639746  0.01372709  1
  O2-  O559  1  0.59037691  0.68340548  0.34090810  1
  O2-  O560  1  0.59099421  0.67137879  0.69086372  1
  O2-  O561  1  0.58372182  0.91723111  -0.01019180  1
  O2-  O562  1  0.56856586  0.90781385  0.34250540  1
  O2-  O563  1  0.58063795  0.92117898  0.68888996  1
  O2-  O564  1  0.82950346  0.16688573  0.02987009  1
  O2-  O565  1  0.82487838  0.15357303  0.36970112  1
  O2-  O566  1  0.82487480  0.15894246  0.68334980  1
  O2-  O567  1  0.85663480  0.42068611  -0.00165068  1
  O2-  O568  1  0.82767707  0.41248389  0.35220483  1
  O2-  O569  1  0.83110131  0.41437530  0.67664113  1
  O2-  O570  1  0.83039196  0.66448329  0.01895759  1
  O2-  O571  1  0.82996676  0.65802559  0.34931929  1
  O2-  O572  1  0.83323905  0.64609776  0.66597850  1
  O2-  O573  1  0.82005718  0.91577609  0.02155438  1
  O2-  O574  1  0.83006762  0.92022424  0.34216995  1
  O2-  O575  1  0.82989005  0.91710539  0.68892847  1
