# generated using pymatgen
data_H2O
_symmetry_space_group_name_H-M   'P 1'
_cell_length_a   17.98462693
_cell_length_b   17.99010159
_cell_length_c   22.00208170
_cell_angle_alpha   89.99951206
_cell_angle_beta   89.98504001
_cell_angle_gamma   120.00650193
_symmetry_Int_Tables_number   1
_chemical_formula_structural   H2O
_chemical_formula_sum   'H384 O192'
_cell_volume   6164.54426589
_cell_formula_units_Z   192
loop_
 _symmetry_equiv_pos_site_id
 _symmetry_equiv_pos_as_xyz
  1  'x, y, z'
loop_
 _atom_type_symbol
 _atom_type_oxidation_number
  H+  1.0
  O2-  -2.0
loop_
 _atom_site_type_symbol
 _atom_site_label
 _atom_site_symmetry_multiplicity
 _atom_site_fract_x
 _atom_site_fract_y
 _atom_site_fract_z
 _atom_site_occupancy
  H+  H0  1  -0.02288765  0.12681572  0.52057860  1
  H+  H1  1  0.32687032  0.15921496  0.58718018  1
  H+  H2  1  0.90589973  0.88100050  0.51039544  1
  H+  H3  1  0.52715521  0.39154998  0.34126962  1
  H+  H4  1  0.12379469  0.77595063  0.80120236  1
  H+  H5  1  0.22848075  0.35938597  0.16921309  1
  H+  H6  1  0.88473055  0.86199623  0.38856993  1
  H+  H7  1  0.11733746  0.89510265  0.67280670  1
  H+  H8  1  0.70757278  0.09844086  0.32989812  1
  H+  H9  1  0.97789511  0.11298334  0.17349523  1
  H+  H10  1  0.63917231  0.60181043  0.50693410  1
  H+  H11  1  0.61047918  0.97980745  0.87489222  1
  H+  H12  1  0.36064664  0.12935458  0.87219013  1
  H+  H13  1  0.64153994  0.36423731  -0.01401547  1
  H+  H14  1  0.76714244  0.80366514  0.63160971  1
  H+  H15  1  0.48350706  0.93706836  -0.01700088  1
  H+  H16  1  0.64298512  0.87833493  0.50605967  1
  H+  H17  1  0.17274880  0.37006484  0.31259745  1
  H+  H18  1  0.89346369  0.53447885  0.65784971  1
  H+  H19  1  0.09647739  -0.03444902  0.82768548  1
  H+  H20  1  0.53910252  0.89484204  0.64598354  1
  H+  H21  1  0.43003612  0.08532233  0.59870372  1
  H+  H22  1  0.14788441  0.78441986  -0.00210778  1
  H+  H23  1  0.38994993  1.02216320  0.01369430  1
  H+  H24  1  0.37584167  0.64023395  0.01361477  1
  H+  H25  1  0.35707571  0.97347227  0.38068748  1
  H+  H26  1  0.61094397  0.99951330  0.15388626  1
  H+  H27  1  0.86198137  0.38049538  0.99938654  1
  H+  H28  1  0.13934961  0.10831479  0.82039908  1
  H+  H29  1  0.64985622  0.28464509  0.50894073  1
  H+  H30  1  0.46760819  0.61838555  0.66702426  1
  H+  H31  1  0.39857516  0.28034057  1.01056746  1
  H+  H32  1  0.12314967  0.10363956  0.17363088  1
  H+  H33  1  0.70707663  0.60258268  0.17015495  1
  H+  H34  1  0.09146218  0.41648974  0.06832165  1
  H+  H35  1  0.12881684  0.40464982  0.85029252  1
  H+  H36  1  0.73299791  0.11505270  0.17350722  1
  H+  H37  1  0.28516579  0.89936965  0.67369616  1
  H+  H38  1  0.23275632  0.62941150  0.32716992  1
  H+  H39  1  0.13381745  0.74898125  0.17046659  1
  H+  H40  1  0.62590302  0.34599360  0.84030174  1
  H+  H41  1  0.09391031  0.50267249  0.78966543  1
  H+  H42  1  0.13846145  0.55208815  0.33474909  1
  H+  H43  1  0.42339216  0.07631973  0.91700709  1
  H+  H44  1  0.36337777  0.38818811  0.82338124  1
  H+  H45  1  0.59528518  0.21379842  0.33415582  1
  H+  H46  1  0.89092621  0.27248107  0.99481894  1
  H+  H47  1  0.40153810  0.52186727  0.84499759  1
  H+  H48  1  0.26961693  0.38936994  0.67238262  1
  H+  H49  1  0.37630687  0.53186876  0.66499639  1
  H+  H50  1  0.71409903  0.35130572  0.32367917  1
  H+  H51  1  0.38388705  0.60888285  0.17808671  1
  H+  H52  1  0.27533401  0.91132272  0.47394729  1
  H+  H53  1  0.53527343  0.39163884  0.50366526  1
  H+  H54  1  0.72387116  0.11502065  0.85200839  1
  H+  H55  1  0.60977874  0.71138296  0.33756518  1
  H+  H56  1  0.14906517  0.88205518  0.32626887  1
  H+  H57  1  0.83246880  0.77159785  0.64984707  1
  H+  H58  1  0.11036621  0.98263743  0.34112660  1
  H+  H59  1  0.27011419  0.13204918  0.85201373  1
  H+  H60  1  0.85863212  0.39603483  0.83465923  1
  H+  H61  1  0.33045743  0.16696884  0.40989344  1
  H+  H62  1  0.38677490  0.78105913  0.85091741  1
  H+  H63  1  0.12093250  0.20713384  0.83486024  1
  H+  H64  1  0.82778966  0.17130684  0.73904131  1
  H+  H65  1  0.12382407  0.38808885  0.51357744  1
  H+  H66  1  0.73379658  0.88290189  0.51031341  1
  H+  H67  1  0.17654112  0.62344646  0.84905902  1
  H+  H68  1  0.57824116  0.64279603  0.43584611  1
  H+  H69  1  0.61686209  0.14056207  0.67366752  1
  H+  H70  1  0.39992901  0.88176969  0.65722846  1
  H+  H71  1  0.24108841  0.62188121  1.00386139  1
  H+  H72  1  0.34716736  0.88542001  0.83198497  1
  H+  H73  1  0.12999138  0.77666009  0.50737482  1
  H+  H74  1  0.87201938  0.61985901  0.33516059  1
  H+  H75  1  0.13291513  0.12438134  0.33041567  1
  H+  H76  1  0.63597043  0.84178300  0.99883422  1
  H+  H77  1  0.61447824  0.62580886  -0.00415525  1
  H+  H78  1  0.07147709  0.91209815  0.72845896  1
  H+  H79  1  0.35800312  0.90521631  0.47506634  1
  H+  H80  1  0.03544415  0.64773891  0.44445546  1
  H+  H81  1  0.88945249  0.12211235  0.67465250  1
  H+  H82  1  0.73394035  0.36637865  0.66388561  1
  H+  H83  1  0.63693520  0.35823227  0.16454906  1
  H+  H84  1  0.13286614  0.36219637  0.66248650  1
  H+  H85  1  0.88587012  -0.00552441  0.69982414  1
  H+  H86  1  0.14124543  0.25513369  0.33298137  1
  H+  H87  1  -0.02144098  0.60837461  0.32607428  1
  H+  H88  1  0.03581996  0.64170167  0.02200210  1
  H+  H89  1  0.37676948  0.22946642  0.12842621  1
  H+  H90  1  0.88375639  0.12586327  0.52165221  1
  H+  H91  1  0.12876347  0.65271818  0.69341944  1
  H+  H92  1  0.53178643  0.37973699  0.66784319  1
  H+  H93  1  0.11497498  0.86041292  0.82661139  1
  H+  H94  1  0.60300166  0.91876920  0.69986500  1
  H+  H95  1  0.26783886  0.89178902  1.01165604  1
  H+  H96  1  0.24144863  0.89211181  0.31818362  1
  H+  H97  1  0.37939861  0.61222814  0.50924591  1
  H+  H98  1  0.85650479  0.78861095  0.82040703  1
  H+  H99  1  0.16066197  0.42324704  0.82456225  1
  H+  H100  1  0.98611640  0.36876332  0.15497269  1
  H+  H101  1  0.86919385  0.22380136  0.14906277  1
  H+  H102  1  0.77222799  0.89149086  0.15336760  1
  H+  H103  1  0.59669122  0.12608933  0.33625147  1
  H+  H104  1  0.24651673  0.12273204  1.01587602  1
  H+  H105  1  0.90827765  0.58887340  1.05887478  1
  H+  H106  1  0.11677611  0.65541276  0.34268516  1
  H+  H107  1  0.12000308  0.47809914  0.16446028  1
  H+  H108  1  0.60423647  0.72708252  0.14820195  1
  H+  H109  1  0.49541822  0.88055332  0.34502100  1
  H+  H110  1  0.18951766  0.07501908  0.77853381  1
  H+  H111  1  0.11052102  0.22627603  0.16060641  1
  H+  H112  1  0.77107462  0.63133440  0.66728132  1
  H+  H113  1  0.10967509  0.59854060  0.51135271  1
  H+  H114  1  0.85853357  0.91219386  0.77602258  1
  H+  H115  1  0.39674030  1.03982430  0.49952049  1
  H+  H116  1  0.54209784  0.97140676  0.10302508  1
  H+  H117  1  0.88269776  0.65517998  0.50253613  1
  H+  H118  1  0.60870369  0.46975704  0.14712060  1
  H+  H119  1  -0.02463173  0.34859339  0.52007994  1
  H+  H120  1  0.96911504  0.29430081  0.33153395  1
  H+  H121  1  0.62087153  0.38140808  0.67683266  1
  H+  H122  1  0.74719690  0.13048740  0.51120700  1
  H+  H123  1  0.37557085  0.10348189  0.16697244  1
  H+  H124  1  0.83839674  0.16340622  0.06194510  1
  H+  H125  1  0.58413573  0.88021699  0.34958591  1
  H+  H126  1  0.88026689  0.89429365  0.00619189  1
  H+  H127  1  0.88484296  0.25788428  0.51550916  1
  H+  H128  1  0.88777143  1.02214382  0.17253355  1
  H+  H129  1  0.78748784  0.65082178  0.24189334  1
  H+  H130  1  0.60331827  0.45330851  0.82611287  1
  H+  H131  1  0.89448962  0.02510110  0.99289121  1
  H+  H132  1  0.40449135  0.61081212  0.85413798  1
  H+  H133  1  0.85938816  0.38837174  0.14111072  1
  H+  H134  1  0.57725311  0.66267798  0.09231895  1
  H+  H135  1  0.37792515  0.76806293  0.33273630  1
  H+  H136  1  0.86126088  0.13880058  0.83149414  1
  H+  H137  1  0.36403929  0.72951606  0.16923330  1
  H+  H138  1  0.61967557  0.60256236  0.15600583  1
  H+  H139  1  0.34880003  0.12172797  0.35352265  1
  H+  H140  1  0.98949820  0.87475678  0.99296820  1
  H+  H141  1  0.12851565  0.02222663  0.65985742  1
  H+  H142  1  0.30414938  0.61114974  0.80063687  1
  H+  H143  1  0.10828972  0.73792803  0.34528559  1
  H+  H144  1  0.48425369  0.11941890  0.66088581  1
  H+  H145  1  0.78903665  0.64378526  0.50477863  1
  H+  H146  1  0.13165748  0.64766335  0.16713521  1
  H+  H147  1  0.12483872  0.98199386  0.01399405  1
  H+  H148  1  0.90395997  0.79389803  -0.03275517  1
  H+  H149  1  0.38871183  0.52020771  0.00440296  1
  H+  H150  1  0.84939636  0.63800231  -0.08251326  1
  H+  H151  1  0.39258258  0.36655794  0.00424063  1
  H+  H152  1  0.70912265  0.86133228  0.31661415  1
  H+  H153  1  0.12727466  0.64521490  0.01883949  1
  H+  H154  1  0.65993779  0.81047638  0.58172019  1
  H+  H155  1  0.22739468  0.34401973  0.84616908  1
  H+  H156  1  0.52652301  0.62948517  1.00205178  1
  H+  H157  1  0.47260266  0.61033009  0.17179075  1
  H+  H158  1  0.84885822  0.12473798  0.34379667  1
  H+  H159  1  0.62347451  0.64869301  0.82458282  1
  H+  H160  1  0.32635966  0.65734244  0.40140124  1
  H+  H161  1  0.86685681  0.64542786  0.66509538  1
  H+  H162  1  0.62772492  0.35295673  0.32272491  1
  H+  H163  1  0.48417510  0.35682193  0.15698916  1
  H+  H164  1  0.62342080  0.47905063  0.49539332  1
  H+  H165  1  0.86103869  0.64344581  -0.01361335  1
  H+  H166  1  0.10053482  0.46979789  0.66323872  1
  H+  H167  1  0.52281699  0.62298769  0.33771140  1
  H+  H168  1  0.72704668  0.60758927  0.95939433  1
  H+  H169  1  0.14016260  0.26997404  1.00156457  1
  H+  H170  1  0.63316699  0.51397228  0.66587407  1
  H+  H171  1  0.45889330  0.09452487  0.33104831  1
  H+  H172  1  0.64848550  0.04651723  0.50855385  1
  H+  H173  1  0.46935977  0.34454081  0.84901289  1
  H+  H174  1  0.75201267  0.85695851  0.85382294  1
  H+  H175  1  0.37871229  0.02146190  0.85595301  1
  H+  H176  1  0.61808076  0.22982849  0.67712695  1
  H+  H177  1  0.64784182  0.03607475  0.64733319  1
  H+  H178  1  0.82335521  0.40807007  0.05611629  1
  H+  H179  1  0.13744872  0.27525053  0.66853865  1
  H+  H180  1  0.46747748  0.87129869  0.17703181  1
  H+  H181  1  0.61563919  1.01443563  0.32534281  1
  H+  H182  1  0.86716994  0.39101320  0.67337679  1
  H+  H183  1  0.61291122  0.89365797  0.86619843  1
  H+  H184  1  0.77413752  0.14446253  0.67617404  1
  H+  H185  1  0.42028447  0.57678767  0.94391833  1
  H+  H186  1  0.36140760  0.63106247  0.34213681  1
  H+  H187  1  0.82159624  0.98814241  0.34137851  1
  H+  H188  1  0.84837644  0.38129762  0.36177457  1
  H+  H189  1  0.23044625  0.61737736  0.17680755  1
  H+  H190  1  0.13745714  0.11852050  0.50267437  1
  H+  H191  1  0.52753422  0.90631604  0.50257483  1
  H+  H192  1  0.32983773  0.41721885  0.44017758  1
  H+  H193  1  0.64438570  0.36984604  0.51095989  1
  H+  H194  1  0.04024217  0.17955824  0.34080679  1
  H+  H195  1  0.61059372  0.21941509  0.13430142  1
  H+  H196  1  0.12189145  0.43273145  0.36780744  1
  H+  H197  1  0.73666799  0.36366148  -0.01464974  1
  H+  H198  1  0.87261889  0.51779733  0.17370050  1
  H+  H199  1  -0.02041329  0.36335331  -0.00308414  1
  H+  H200  1  0.10699836  0.88465150  0.16298846  1
  H+  H201  1  0.39780793  0.28641184  0.53983918  1
  H+  H202  1  0.84700080  0.72126473  0.19347255  1
  H+  H203  1  0.02671212  0.13377393  0.00419311  1
  H+  H204  1  0.13958414  0.86914774  0.50424000  1
  H+  H205  1  0.12114042  0.47674627  1.01043121  1
  H+  H206  1  0.63418673  0.11278573  0.84806565  1
  H+  H207  1  0.53542398  0.64597090  0.83664132  1
  H+  H208  1  0.11875627  0.23237035  0.49772392  1
  H+  H209  1  0.76711096  0.38733938  0.82899127  1
  H+  H210  1  0.42080453  0.31340158  0.21360017  1
  H+  H211  1  0.48832721  0.12667397  0.50503181  1
  H+  H212  1  0.25565191  0.62866736  0.49539863  1
  H+  H213  1  0.90266044  0.79031620  0.50709094  1
  H+  H214  1  0.89344233  0.52276727  1.00798245  1
  H+  H215  1  0.89337156  0.01380919  0.84361744  1
  H+  H216  1  0.86170342  0.52588912  0.84586505  1
  H+  H217  1  0.02980246  0.41972854  0.37088020  1
  H+  H218  1  0.38877770  0.52080148  0.33037375  1
  H+  H219  1  0.39416646  0.79117510  0.64837378  1
  H+  H220  1  0.35742311  0.64863981  0.66563272  1
  H+  H221  1  0.86754804  0.13765948  1.00119389  1
  H+  H222  1  0.21521367  0.86530551  0.82401869  1
  H+  H223  1  0.51975843  0.61813657  0.49492955  1
  H+  H224  1  0.14464190  0.87087913  0.99722725  1
  H+  H225  1  0.36781962  0.47305335  0.16336499  1
  H+  H226  1  0.12095067  0.38812199  0.16490527  1
  H+  H227  1  0.65359998  0.61440811  0.33133170  1
  H+  H228  1  0.63394105  0.56042998  0.77828637  1
  H+  H229  1  0.36537913  0.13487905  0.64257169  1
  H+  H230  1  0.21617019  0.11459825  0.33300227  1
  H+  H231  1  0.65360171  0.84579420  0.64530621  1
  H+  H232  1  0.35069007  0.97260683  0.16783086  1
  H+  H233  1  0.61813617  0.13717581  0.14009791  1
  H+  H234  1  0.97748693  0.10402194  0.83836081  1
  H+  H235  1  0.88394276  0.27670508  0.66386371  1
  H+  H236  1  0.22790636  0.86491911  0.17545046  1
  H+  H237  1  0.27394214  0.14183457  0.50431220  1
  H+  H238  1  0.87385291  1.00156908  0.51735970  1
  H+  H239  1  0.28383774  0.38371666  0.33742086  1
  H+  H240  1  0.91651709  0.54599482  0.49942123  1
  H+  H241  1  0.36129990  0.39676757  0.66283892  1
  H+  H242  1  0.63117086  0.25909424  0.84039429  1
  H+  H243  1  0.66330807  0.32396657  0.22297968  1
  H+  H244  1  0.60558312  0.71302983  0.66361727  1
  H+  H245  1  0.85950610  0.47104711  0.33950447  1
  H+  H246  1  0.51866085  0.13133497  0.82987621  1
  H+  H247  1  0.34050432  0.71812032  0.49346315  1
  H+  H248  1  0.64379049  0.75520842  0.99049582  1
  H+  H249  1  0.23251937  0.36583454  0.51139867  1
  H+  H250  1  0.85001211  0.64797622  0.81575321  1
  H+  H251  1  0.39170997  0.14826752  0.03659769  1
  H+  H252  1  0.62677590  0.15106590  0.49376813  1
  H+  H253  1  0.67866573  0.10646245  0.59557570  1
  H+  H254  1  0.21155757  0.61183286  0.65481653  1
  H+  H255  1  -0.03709316  0.37612212  0.83651024  1
  H+  H256  1  0.08964173  0.65298343  0.79308958  1
  H+  H257  1  0.88994095  0.72198060  0.32938700  1
  H+  H258  1  0.12268224  0.98186896  0.49098448  1
  H+  H259  1  0.39687915  0.27340318  0.63077718  1
  H+  H260  1  0.71227567  0.10215044  0.00937471  1
  H+  H261  1  0.64976271  1.07917605  -0.04371137  1
  H+  H262  1  0.95202427  0.06134603  0.32163443  1
  H+  H263  1  0.99924096  0.84674253  0.32269068  1
  H+  H264  1  0.65298125  0.77739797  0.84844364  1
  H+  H265  1  0.81347793  0.90409454  0.36854712  1
  H+  H266  1  0.11006813  0.13893716  0.67549174  1
  H+  H267  1  0.86774955  0.60168190  0.19148827  1
  H+  H268  1  0.36456335  0.23037272  0.86912734  1
  H+  H269  1  0.21798335  0.11058936  0.64850749  1
  H+  H270  1  0.78813471  0.88742048  0.00860518  1
  H+  H271  1  0.62722321  0.60077979  0.66372811  1
  H+  H272  1  0.42411655  0.85785430  0.94195148  1
  H+  H273  1  0.15859280  0.79184392  0.66413083  1
  H+  H274  1  0.53169716  0.38423673  0.99959832  1
  H+  H275  1  0.11825966  0.13757103  0.01122862  1
  H+  H276  1  0.83458716  0.15508131  0.45288676  1
  H+  H277  1  0.62657585  0.86734603  0.15776836  1
  H+  H278  1  0.78841244  0.41903191  0.50320928  1
  H+  H279  1  0.84797566  0.82802513  0.37002751  1
  H+  H280  1  0.93755783  0.59788822  0.60255616  1
  H+  H281  1  0.27810112  0.38389712  0.01075080  1
  H+  H282  1  0.78414387  0.63271506  0.34133872  1
  H+  H283  1  0.37010926  0.38423962  0.15757253  1
  H+  H284  1  0.37548962  0.39214940  0.34913013  1
  H+  H285  1  0.83953940  0.20581992  0.35681247  1
  H+  H286  1  0.88384452  0.86285085  0.17528290  1
  H+  H287  1  0.47356692  0.86908336  0.86227698  1
  H+  H288  1  0.33876572  0.67053460  0.10978069  1
  H+  H289  1  0.67313969  0.33658476  0.60475996  1
  H+  H290  1  0.09086988  0.92254224  0.40055603  1
  H+  H291  1  0.62127390  0.47220770  -0.00838831  1
  H+  H292  1  0.38571687  0.83632279  0.56374743  1
  H+  H293  1  0.16779053  0.83570241  0.23631823  1
  H+  H294  1  0.18122522  0.30911354  0.91015771  1
  H+  H295  1  0.37310097  0.25241785  0.32459499  1
  H+  H296  1  0.00113409  0.88216458  0.82809118  1
  H+  H297  1  0.20446288  0.10091346  0.95140640  1
  H+  H298  1  0.58317781  0.41379514  0.40158844  1
  H+  H299  1  0.84078537  0.95454788  0.45491349  1
  H+  H300  1  0.92499766  0.33875028  0.30098478  1
  H+  H301  1  0.91588370  0.57078321  0.26591855  1
  H+  H302  1  0.14358714  0.58560637  0.60324326  1
  H+  H303  1  0.57115268  0.92708484  0.43774105  1
  H+  H304  1  0.29509594  0.79902084  0.53356048  1
  H+  H305  1  0.86110243  0.22804361  0.83387400  1
  H+  H306  1  0.93618256  0.81844497  0.26287921  1
  H+  H307  1  0.03176552  0.89336254  0.49045013  1
  H+  H308  1  0.37450708  0.98691549  0.67629801  1
  H+  H309  1  0.53850850  0.11855201  0.04846168  1
  H+  H310  1  0.91790131  0.33955921  0.90199408  1
  H+  H311  1  0.94486972  0.61400303  0.86260611  1
  H+  H312  1  0.12710351  0.51978092  0.52171409  1
  H+  H313  1  0.86749513  0.13422947  0.15939928  1
  H+  H314  1  0.85606688  0.89319932  0.68464668  1
  H+  H315  1  0.41660540  0.57929857  0.27010739  1
  H+  H316  1  0.33764355  0.41550232  0.07068979  1
  H+  H317  1  0.08606141  0.91777847  0.07005113  1
  H+  H318  1  0.58898520  0.40747808  0.09039847  1
  H+  H319  1  0.17806839  0.32880139  0.23177635  1
  H+  H320  1  0.08397390  0.16056575  0.76925677  1
  H+  H321  1  0.84136120  0.92052463  0.10005274  1
  H+  H322  1  0.32267271  0.91319523  0.10785112  1
  H+  H323  1  0.68195688  0.82677700  0.92731875  1
  H+  H324  1  0.15682395  0.08312888  0.56366696  1
  H+  H325  1  0.91368624  0.07880628  0.26087098  1
  H+  H326  1  0.34047208  0.42455293  0.76421440  1
  H+  H327  1  0.02271068  0.14299683  0.68152650  1
  H+  H328  1  0.41057513  0.58850735  0.56979191  1
  H+  H329  1  0.39695723  0.67187744  0.77575301  1
  H+  H330  1  0.38971833  0.07448647  0.23291766  1
  H+  H331  1  0.52907725  0.85862050  0.00936282  1
  H+  H332  1  0.14243424  0.36017399  0.99661525  1
  H+  H333  1  0.04548106  0.42706828  0.74609988  1
  H+  H334  1  0.17568034  0.59994367  0.94869597  1
  H+  H335  1  0.35953556  0.89451132  0.01702202  1
  H+  H336  1  0.79757317  0.62079787  0.07949263  1
  H+  H337  1  0.58731726  0.17215955  0.43461455  1
  H+  H338  1  0.92032119  0.09253238  0.61606966  1
  H+  H339  1  0.35736690  0.47614325  0.49903983  1
  H+  H340  1  0.84410503  0.65325476  0.08514323  1
  H+  H341  1  0.66940938  0.57485263  0.56728750  1
  H+  H342  1  0.09166116  0.42754224  0.46099719  1
  H+  H343  1  0.33055056  0.92251982  0.77048013  1
  H+  H344  1  0.65554567  0.83424657  0.21540425  1
  H+  H345  1  0.33497395  0.29627565  0.28493156  1
  H+  H346  1  0.91104018  0.33792527  0.20260106  1
  H+  H347  1  0.16879757  0.59144846  0.23524365  1
  H+  H348  1  0.31944383  0.68933089  0.71335697  1
  H+  H349  1  0.37546866  0.86183368  0.17945004  1
  H+  H350  1  0.08253756  0.55504427  0.86660504  1
  H+  H351  1  0.35159995  0.23327901  0.74936587  1
  H+  H352  1  0.17303095  0.33176569  0.57252634  1
  H+  H353  1  0.72489626  0.61299154  0.81041593  1
  H+  H354  1  0.66736113  0.08483232  0.23133408  1
  H+  H355  1  0.08879815  0.17987502  0.43591513  1
  H+  H356  1  0.58880168  0.89649869  0.06616405  1
  H+  H357  1  0.82814960  0.67455792  0.75047179  1
  H+  H358  1  0.57027325  0.39246444  0.76871473  1
  H+  H359  1  0.07844188  0.16546302  0.10147157  1
  H+  H360  1  0.64756126  0.56765430  0.91509309  1
  H+  H361  1  0.90935050  0.32749231  0.59891020  1
  H+  H362  1  0.65621777  0.52780225  0.33040716  1
  H+  H363  1  0.66765421  0.32592377  0.92357865  1
  H+  H364  1  0.17494041  0.84176905  0.60034330  1
  H+  H365  1  0.97109150  0.85880761  0.16978342  1
  H+  H366  1  0.41912817  0.33309175  0.91329543  1
  H+  H367  1  0.36737600  0.14443612  0.50414277  1
  H+  H368  1  0.01150448  0.37912321  0.66152476  1
  H+  H369  1  0.71353859  0.79084206  0.27803763  1
  H+  H370  1  0.92191170  0.08168133  0.93201711  1
  H+  H371  1  0.39845419  0.24832538  0.74481675  1
  H+  H372  1  0.76656050  0.38083177  0.14979329  1
  H+  H373  1  0.10411249  0.68283195  0.10489214  1
  H+  H374  1  0.57748999  0.16028131  0.76882229  1
  H+  H375  1  0.40483745  0.83095772  0.27581563  1
  H+  H376  1  0.54200302  0.90634750  0.76769936  1
  H+  H377  1  0.15134572  0.07555957  0.23360725  1
  H+  H378  1  0.55822641  0.95408875  0.76774323  1
  H+  H379  1  0.10384917  0.97281523  0.16405723  1
  H+  H380  1  0.38011314  0.73122845  0.01591415  1
  H+  H381  1  0.83905015  0.42391161  0.73243755  1
  H+  H382  1  0.82933633  0.44360320  0.43774009  1
  H+  H383  1  0.58175272  0.67208938  0.73090441  1
  O2-  O384  1  0.07593491  0.16503108  0.14694597  1
  O2-  O385  1  0.08636812  0.17256798  0.48081512  1
  O2-  O386  1  0.08452219  0.14933401  0.81435464  1
  O2-  O387  1  0.09095398  0.41847085  0.14801921  1
  O2-  O388  1  0.09079477  0.41933097  0.50521321  1
  O2-  O389  1  0.03763900  0.45192767  0.78519871  1
  O2-  O390  1  0.10586949  0.68359746  0.15146196  1
  O2-  O391  1  0.04238788  0.64405315  0.48898904  1
  O2-  O392  1  0.08220816  0.68996176  0.76307715  1
  O2-  O393  1  0.07504366  0.91186015  0.14666648  1
  O2-  O394  1  0.09515560  0.92166459  0.47582007  1
  O2-  O395  1  0.06275669  0.90383890  0.81690687  1
  O2-  O396  1  0.34768344  0.16868087  0.11249192  1
  O2-  O397  1  0.33813080  0.17914029  0.49932859  1
  O2-  O398  1  0.32644499  0.16137884  0.87603092  1
  O2-  O399  1  0.33771385  0.41374090  0.14576037  1
  O2-  O400  1  0.32575043  0.41547229  0.48513236  1
  O2-  O401  1  0.34296356  0.42705466  0.80975340  1
  O2-  O402  1  0.33429213  0.66820670  0.15483657  1
  O2-  O403  1  0.31606355  0.65775802  0.48011815  1
  O2-  O404  1  0.35730449  0.66502513  0.80853860  1
  O2-  O405  1  0.32168469  0.91012297  0.15344872  1
  O2-  O406  1  0.33583224  0.94235214  0.45996656  1
  O2-  O407  1  0.31819177  0.91617566  0.81553508  1
  O2-  O408  1  0.58951799  0.16214536  0.11634982  1
  O2-  O409  1  0.59161180  0.17771956  0.47957890  1
  O2-  O410  1  0.57838140  0.16102121  0.81461487  1
  O2-  O411  1  0.58360550  0.40659924  0.13520723  1
  O2-  O412  1  0.58932455  0.41735575  0.48015282  1
  O2-  O413  1  0.56915417  0.39197532  0.81477479  1
  O2-  O414  1  0.57247302  0.66522780  0.13721606  1
  O2-  O415  1  0.57831854  0.63634487  0.48033430  1
  O2-  O416  1  0.59341655  0.68188636  0.81793205  1
  O2-  O417  1  0.56659562  0.94641892  0.13045959  1
  O2-  O418  1  0.58321087  0.93415379  0.48251624  1
  O2-  O419  1  0.57622447  0.91576233  0.88048144  1
  O2-  O420  1  0.83510634  0.16104503  0.14182198  1
  O2-  O421  1  0.83479652  0.16117451  0.49700240  1
  O2-  O422  1  0.82892462  0.16750911  0.81902961  1
  O2-  O423  1  0.82550107  0.41623537  0.13060961  1
  O2-  O424  1  0.84273987  0.45661097  0.48123702  1
  O2-  O425  1  0.82859623  0.42637156  0.81896208  1
  O2-  O426  1  0.81072014  0.65794915  0.20080340  1
  O2-  O427  1  0.84909232  0.68271500  0.49194551  1
  O2-  O428  1  0.81951314  0.67541211  0.79680081  1
  O2-  O429  1  0.83489824  0.91974360  0.14567438  1
  O2-  O430  1  0.84413215  0.94202616  0.49760371  1
  O2-  O431  1  0.84927846  0.89623958  0.82593915  1
  O2-  O432  1  0.14800163  0.06884456  0.18888613  1
  O2-  O433  1  0.16786969  0.08839270  0.51887467  1
  O2-  O434  1  0.17707352  0.07866800  0.82132464  1
  O2-  O435  1  0.16897444  0.33133906  0.18597858  1
  O2-  O436  1  0.17053390  0.33328919  0.52729331  1
  O2-  O437  1  0.19045126  0.29155205  0.86911577  1
  O2-  O438  1  0.16826832  0.58814316  0.18958466  1
  O2-  O439  1  0.15167724  0.58365074  0.52813701  1
  O2-  O440  1  0.12384443  0.61675802  0.86697488  1
  O2-  O441  1  0.16516598  0.83014529  0.19038647  1
  O2-  O442  1  0.16948912  0.83688805  0.51867387  1
  O2-  O443  1  0.14973745  0.82830830  0.82972240  1
  O2-  O444  1  0.39464807  0.06833857  0.18886906  1
  O2-  O445  1  0.42747656  0.09612241  0.52091154  1
  O2-  O446  1  0.41237516  0.08066386  0.87285501  1
  O2-  O447  1  0.42131944  0.32327702  0.16944514  1
  O2-  O448  1  0.44039811  0.34383651  0.55643158  1
  O2-  O449  1  0.41112238  0.32021739  0.86819233  1
  O2-  O450  1  0.41421624  0.57761491  0.19050112  1
  O2-  O451  1  0.41076421  0.58392481  0.52496478  1
  O2-  O452  1  0.43385044  0.57929592  0.86627360  1
  O2-  O453  1  0.40911058  0.83401817  0.19355819  1
  O2-  O454  1  0.35524338  0.82014161  0.52316301  1
  O2-  O455  1  0.40851202  0.84014568  0.86464547  1
  O2-  O456  1  0.67154158  0.08738046  0.18604588  1
  O2-  O457  1  0.68030039  0.10675788  0.52266146  1
  O2-  O458  1  0.66472030  0.08711712  0.86915725  1
  O2-  O459  1  0.66837377  0.32818814  0.17793744  1
  O2-  O460  1  0.67716571  0.34297013  0.52763399  1
  O2-  O461  1  0.66050092  0.32039306  0.85607507  1
  O2-  O462  1  0.64478352  0.56528796  0.16279529  1
  O2-  O463  1  0.67432657  0.57570998  0.52242879  1
  O2-  O464  1  0.65943107  0.57407498  0.81892954  1
  O2-  O465  1  0.65724363  0.83766959  0.17012210  1
  O2-  O466  1  0.67079069  0.84448434  0.51570420  1
  O2-  O467  1  0.69073626  0.83451741  0.86898414  1
  O2-  O468  1  0.91690439  0.08187807  0.18988957  1
  O2-  O469  1  0.91990967  0.09782886  0.54005239  1
  O2-  O470  1  0.91699934  0.07528342  0.85338172  1
  O2-  O471  1  0.92111993  0.33721872  0.15927028  1
  O2-  O472  1  0.91387157  0.32026731  0.53044093  1
  O2-  O473  1  0.90761356  0.33741126  0.85721428  1
  O2-  O474  1  0.90330278  0.57373971  0.19494127  1
  O2-  O475  1  0.95558609  0.60859309  0.51546589  1
  O2-  O476  1  0.88267755  0.58689780  0.85966789  1
  O2-  O477  1  0.91244525  0.83053184  0.18899374  1
  O2-  O478  1  0.94100899  0.85320462  0.51388924  1
  O2-  O479  1  0.89224832  0.84587404  0.84002638  1
  O2-  O480  1  0.15702724  0.08763999  0.31655515  1
  O2-  O481  1  0.15491260  0.08301749  0.64350903  1
  O2-  O482  1  0.19039220  0.09541060  0.99450940  1
  O2-  O483  1  0.19599848  0.33281238  0.30378482  1
  O2-  O484  1  0.16843724  0.33520919  0.65188913  1
  O2-  O485  1  0.17456374  0.33026540  0.98565837  1
  O2-  O486  1  0.17206226  0.60648743  0.31202770  1
  O2-  O487  1  0.14873282  0.58393041  0.64881674  1
  O2-  O488  1  0.17868960  0.59198349  0.99252495  1
  O2-  O489  1  0.17971561  0.85201922  0.31033075  1
  O2-  O490  1  0.18146545  0.84925080  0.64538224  1
  O2-  O491  1  0.17819662  0.84385488  0.98225787  1
  O2-  O492  1  0.39546715  0.06756024  0.32025030  1
  O2-  O493  1  0.42437949  0.08566715  0.64403699  1
  O2-  O494  1  0.43199250  0.08321344  0.99905993  1
  O2-  O495  1  0.39025080  0.30553723  0.29969057  1
  O2-  O496  1  0.42923837  0.33753674  0.62343566  1
  O2-  O497  1  0.42382018  0.33641593  0.98896076  1
  O2-  O498  1  0.41837358  0.58188426  0.31548736  1
  O2-  O499  1  0.40629313  0.59393822  0.65356919  1
  O2-  O500  1  0.42029428  0.58145724  0.98915707  1
  O2-  O501  1  0.40476135  0.82952430  0.32087547  1
  O2-  O502  1  0.42593305  0.85200045  0.63421517  1
  O2-  O503  1  0.44139720  0.87535416  0.98525613  1
  O2-  O504  1  0.65054379  0.07450793  0.30978239  1
  O2-  O505  1  0.67387930  0.09892885  0.64177313  1
  O2-  O506  1  0.65048943  0.06913465  1.00021231  1
  O2-  O507  1  0.65522963  0.32083306  0.30638576  1
  O2-  O508  1  0.67197707  0.33445267  0.65054814  1
  O2-  O509  1  0.67305124  0.33299548  0.97079361  1
  O2-  O510  1  0.69048647  0.58960102  0.31962122  1
  O2-  O511  1  0.66187624  0.57431720  0.65095858  1
  O2-  O512  1  0.66202203  0.57370649  0.95842659  1
  O2-  O513  1  0.67397032  0.81104136  0.28895566  1
  O2-  O514  1  0.66160326  0.80004922  0.62771945  1
  O2-  O515  1  0.67463352  0.81928230  0.97887888  1
  O2-  O516  1  0.91093160  0.07812775  0.30771670  1
  O2-  O517  1  0.92197595  0.09292923  0.66194055  1
  O2-  O518  1  0.92440563  0.08547494  0.97746742  1
  O2-  O519  1  0.93677145  0.32332541  0.34085158  1
  O2-  O520  1  0.91304898  0.33552119  0.64590042  1
  O2-  O521  1  0.91957166  0.33452132  0.98123136  1
  O2-  O522  1  0.91753681  0.57124552  0.31257404  1
  O2-  O523  1  0.92277953  0.59576296  0.64584590  1
  O2-  O524  1  0.92439712  0.58581503  1.01691731  1
  O2-  O525  1  0.94879234  0.79832428  0.30159866  1
  O2-  O526  1  0.82848490  0.82180993  0.63662406  1
  O2-  O527  1  0.93207935  0.85582709  0.97460307  1
  O2-  O528  1  0.08533741  0.16578728  0.02340278  1
  O2-  O529  1  0.09722719  0.19307006  0.35425502  1
  O2-  O530  1  0.08500536  0.17174608  0.69510894  1
  O2-  O531  1  0.08910840  0.41564750  0.02295253  1
  O2-  O532  1  0.09008787  0.46001953  0.38220018  1
  O2-  O533  1  0.07316503  0.40949088  0.67779993  1
  O2-  O534  1  0.09782776  0.67656855  0.03332001  1
  O2-  O535  1  0.07832989  0.67674239  0.35749537  1
  O2-  O536  1  0.14987613  0.70735640  0.71766035  1
  O2-  O537  1  0.09109905  0.92027453  0.02447101  1
  O2-  O538  1  0.09023806  0.92237563  0.35455045  1
  O2-  O539  1  0.08580641  0.92469341  0.68523120  1
  O2-  O540  1  0.35820924  0.17761440  0.04589584  1
  O2-  O541  1  0.32507662  0.15944414  0.36530909  1
  O2-  O542  1  0.33274966  0.16515227  0.63174950  1
  O2-  O543  1  0.33961029  0.41634659  0.02476271  1
  O2-  O544  1  0.34216565  0.42021888  0.35908707  1
  O2-  O545  1  0.33252212  0.42324842  0.68460741  1
  O2-  O546  1  0.34569745  0.67130316  0.02866963  1
  O2-  O547  1  0.32967803  0.66054742  0.35605961  1
  O2-  O548  1  0.32729736  0.68346596  0.67010363  1
  O2-  O549  1  0.32778967  0.92271405  0.03193657  1
  O2-  O550  1  0.35769401  0.97566693  0.33533714  1
  O2-  O551  1  0.34392705  0.92638698  0.69230326  1
  O2-  O552  1  0.51537553  0.08705264  0.00851200  1
  O2-  O553  1  0.56473660  0.15459682  0.35168562  1
  O2-  O554  1  0.58525810  0.16865521  0.69136703  1
  O2-  O555  1  0.59503496  0.41236760  0.00782828  1
  O2-  O556  1  0.58607946  0.41548611  0.35586467  1
  O2-  O557  1  0.58508130  0.40687309  0.69254188  1
  O2-  O558  1  0.58950905  0.66019763  0.01264318  1
  O2-  O559  1  0.58415814  0.65171414  0.35190118  1
  O2-  O560  1  0.57216448  0.65696900  0.68731820  1
  O2-  O561  1  0.57374005  0.85431489  0.03280958  1
  O2-  O562  1  0.55870665  0.91506457  0.36068607  1
  O2-  O563  1  0.60143748  0.92080777  0.65556034  1
  O2-  O564  1  0.83911848  0.16930775  0.01691987  1
  O2-  O565  1  0.81064443  0.14332861  0.36185216  1
  O2-  O566  1  0.83336475  0.17330614  0.69388239  1
  O2-  O567  1  0.82827793  0.41001973  0.01015848  1
  O2-  O568  1  0.81857344  0.41373154  0.35828443  1
  O2-  O569  1  0.83700577  0.42241497  0.68752816  1
  O2-  O570  1  0.83484609  0.66052822  -0.04605010  1
  O2-  O571  1  0.84926176  0.65951185  0.34921265  1
  O2-  O572  1  0.83138355  0.67086055  0.68026472  1
  O2-  O573  1  0.84716911  0.92196285  0.02398468  1
  O2-  O574  1  0.78130239  0.93467737  0.36359587  1
  O2-  O575  1  0.86712203  0.93712194  0.71816832  1
