# generated using pymatgen
data_H2O
_symmetry_space_group_name_H-M   'P 1'
_cell_length_a   17.98021917
_cell_length_b   17.98331788
_cell_length_c   21.97885511
_cell_angle_alpha   90.01751245
_cell_angle_beta   90.01668743
_cell_angle_gamma   120.00045129
_symmetry_Int_Tables_number   1
_chemical_formula_structural   H2O
_chemical_formula_sum   'H384 O192'
_cell_volume   6154.58037431
_cell_formula_units_Z   192
loop_
 _symmetry_equiv_pos_site_id
 _symmetry_equiv_pos_as_xyz
  1  'x, y, z'
loop_
 _atom_type_symbol
 _atom_type_oxidation_number
  H+  1.0
  O2-  -2.0
loop_
 _atom_site_type_symbol
 _atom_site_label
 _atom_site_symmetry_multiplicity
 _atom_site_fract_x
 _atom_site_fract_y
 _atom_site_fract_z
 _atom_site_occupancy
  H+  H0  1  0.11056243  0.89588356  0.00578194  1
  H+  H1  1  0.46855910  0.85318331  0.66660669  1
  H+  H2  1  0.54738513  0.89123044  0.36395111  1
  H+  H3  1  0.11685588  0.26287883  0.15747086  1
  H+  H4  1  0.40553468  0.64298476  0.85366458  1
  H+  H5  1  0.67107011  0.07451120  0.90414235  1
  H+  H6  1  0.89479606  0.36041810  0.83704008  1
  H+  H7  1  0.65338960  0.80337557  0.96375657  1
  H+  H8  1  0.13998118  0.31818130  0.25430460  1
  H+  H9  1  0.39308079  0.63057329  0.51160710  1
  H+  H10  1  0.97232833  0.86594621  0.50821618  1
  H+  H11  1  0.97080786  0.61336111  0.32941386  1
  H+  H12  1  0.69067324  0.31672065  0.27458716  1
  H+  H13  1  0.26238007  0.11285350  0.83028662  1
  H+  H14  1  0.85771577  -0.02401017  0.15180234  1
  H+  H15  1  0.77183290  0.13465819  1.01061063  1
  H+  H16  1  0.72977962  0.35780567  0.33815181  1
  H+  H17  1  0.78868474  0.39686089  0.49699588  1
  H+  H18  1  0.51773625  0.12979674  0.49245724  1
  H+  H19  1  0.88364020  0.62330866  0.17390097  1
  H+  H20  1  0.10640692  0.72640551  0.33982042  1
  H+  H21  1  0.89185045  0.75318737  1.00020877  1
  H+  H22  1  0.59979313  -0.02729981  0.66634678  1
  H+  H23  1  0.78900713  0.90447664  0.99277621  1
  H+  H24  1  0.36219774  0.14612705  0.16130975  1
  H+  H25  1  0.65370561  0.77659189  0.33036198  1
  H+  H26  1  0.35274581  0.88619036  0.35054657  1
  H+  H27  1  0.89127300  0.53160941  0.99541457  1
  H+  H28  1  0.38097047  0.03139459  0.65665067  1
  H+  H29  1  0.64157052  0.22156237  0.17397298  1
  H+  H30  1  0.49346971  0.41229435  0.14587158  1
  H+  H31  1  0.10399926  0.21658098  0.32647130  1
  H+  H32  1  0.63020830  0.59513196  1.00403029  1
  H+  H33  1  0.64656305  0.52703773  0.32459865  1
  H+  H34  1  0.27387393  0.63649607  0.83415931  1
  H+  H35  1  0.35470953  0.36619289  0.83390590  1
  H+  H36  1  0.89322955  0.51685379  0.50949493  1
  H+  H37  1  0.08000983  0.17331557  0.72229906  1
  H+  H38  1  0.48757847  0.86726061  0.99181828  1
  H+  H39  1  0.60399408  0.69527268  0.02639078  1
  H+  H40  1  0.42455124  0.59743241  0.94431994  1
  H+  H41  1  0.02278076  0.63294346  0.01432637  1
  H+  H42  1  0.36667810  0.76835909  0.15471847  1
  H+  H43  1  0.37567887  0.26723719  0.50305143  1
  H+  H44  1  0.88255649  0.61386408  0.33141436  1
  H+  H45  1  0.48231467  0.33842892  0.82801825  1
  H+  H46  1  0.85482533  0.13945063  0.67204536  1
  H+  H47  1  0.66228606  0.86816337  0.33842342  1
  H+  H48  1  0.74041349  0.60869777  0.17008119  1
  H+  H49  1  0.77920541  0.29843482  0.20837011  1
  H+  H50  1  0.11157105  0.23831415  0.66439874  1
  H+  H51  1  0.06564843  0.30882930  0.29651731  1
  H+  H52  1  0.87831856  -0.02305993  0.34479432  1
  H+  H53  1  0.13669184  0.61513449  1.00890054  1
  H+  H54  1  0.88210453  0.98426497  0.83818433  1
  H+  H55  1  0.61742578  0.89673440  1.00298009  1
  H+  H56  1  0.60564295  -0.02938197  0.16332797  1
  H+  H57  1  0.10853524  0.13169926  0.00508063  1
  H+  H58  1  0.89359269  0.77002841  0.66375801  1
  H+  H59  1  0.11538164  0.51592483  0.17393370  1
  H+  H60  1  0.60053732  0.88407575  0.66946584  1
  H+  H61  1  0.87179647  0.74010619  0.16428274  1
  H+  H62  1  0.62415622  0.73139484  0.82234721  1
  H+  H63  1  0.53486142  0.63840369  0.34094611  1
  H+  H64  1  0.51127655  0.61444888  0.01600886  1
  H+  H65  1  0.62119179  0.23468528  0.85585913  1
  H+  H66  1  0.98524557  0.61901250  0.66142452  1
  H+  H67  1  0.47934329  0.35610778  0.32484326  1
  H+  H68  1  0.11834954  0.97983093  0.82903535  1
  H+  H69  1  0.22278200  0.10949211  0.50751683  1
  H+  H70  1  0.74027325  0.36058102  0.65637865  1
  H+  H71  1  0.64232523  0.53857101  0.65019570  1
  H+  H72  1  0.62337415  0.73674147  0.48667979  1
  H+  H73  1  0.63315256  0.02361178  0.99975694  1
  H+  H74  1  0.84890656  0.21114102  0.16799399  1
  H+  H75  1  1.00056663  0.88270270  0.99381838  1
  H+  H76  1  0.57073461  0.16522658  -0.05637363  1
  H+  H77  1  0.21260731  0.86416206  0.32699391  1
  H+  H78  1  0.22435139  0.86682675  0.16369507  1
  H+  H79  1  0.10507761  0.98019319  0.48981935  1
  H+  H80  1  0.77782815  0.13576801  0.82825650  1
  H+  H81  1  0.47221107  0.86321992  0.84011251  1
  H+  H82  1  0.37911541  0.52495787  0.99959109  1
  H+  H83  1  0.60968295  0.36777486  0.18589126  1
  H+  H84  1  0.10313203  0.45235507  0.81670849  1
  H+  H85  1  0.28624277  0.65131335  0.00332965  1
  H+  H86  1  0.58160330  0.91404382  0.06695723  1
  H+  H87  1  0.36544444  0.08449094  0.85085762  1
  H+  H88  1  0.13354609  0.02049952  0.16707591  1
  H+  H89  1  0.72752596  0.85609363  0.49865526  1
  H+  H90  1  0.35636962  0.23244998  0.16242096  1
  H+  H91  1  0.82527994  0.16815953  0.73105877  1
  H+  H92  1  0.28790269  0.40213063  0.48521097  1
  H+  H93  1  0.37779225  0.39495904  0.66011079  1
  H+  H94  1  0.02380596  0.12494449  0.81873539  1
  H+  H95  1  0.61796392  0.38690701  0.33040994  1
  H+  H96  1  0.97993883  0.12266191  0.99274601  1
  H+  H97  1  0.87507839  0.72616727  0.82722134  1
  H+  H98  1  0.44635748  0.36105128  0.97573466  1
  H+  H99  1  0.15744134  0.38677570  0.49280927  1
  H+  H100  1  0.34787654  -0.01993533  1.03775545  1
  H+  H101  1  0.69256436  0.55786363  1.01737654  1
  H+  H102  1  0.02858321  0.88118794  0.82897007  1
  H+  H103  1  0.90175447  0.62658613  -0.00531044  1
  H+  H104  1  0.12485672  0.73615252  0.16190054  1
  H+  H105  1  0.11379563  0.72246284  0.01373999  1
  H+  H106  1  0.12598431  0.77717733  0.50610851  1
  H+  H107  1  0.90388978  0.87506066  -0.01459060  1
  H+  H108  1  0.52528454  0.14757495  0.63019704  1
  H+  H109  1  0.37750666  0.47572931  0.34146552  1
  H+  H110  1  0.08760488  0.66845008  0.09933423  1
  H+  H111  1  0.11896432  0.39869617  0.66911314  1
  H+  H112  1  0.64162480  0.86000984  0.48946233  1
  H+  H113  1  0.79715263  0.88336970  0.34020016  1
  H+  H114  1  0.11455992  0.73536247  0.67552746  1
  H+  H115  1  0.33239240  -0.05189048  0.83507003  1
  H+  H116  1  0.63417179  0.10156682  0.18174681  1
  H+  H117  1  0.91155479  0.86602071  0.84124957  1
  H+  H118  1  0.15416876  0.06522283  0.26393477  1
  H+  H119  1  0.07988880  0.41448534  0.73280062  1
  H+  H120  1  0.33615923  0.65882419  0.27687297  1
  H+  H121  1  0.08217755  0.46044017  -0.00048012  1
  H+  H122  1  0.98962491  0.61583550  0.50638658  1
  H+  H123  1  0.51467139  0.88414767  0.15369736  1
  H+  H124  1  0.61198231  0.72960813  0.67337923  1
  H+  H125  1  0.52176230  0.39807502  0.64979002  1
  H+  H126  1  0.22341038  0.62215517  0.50909940  1
  H+  H127  1  0.85736698  0.87617686  0.49665474  1
  H+  H128  1  0.61272229  0.12931760  0.48875548  1
  H+  H129  1  0.44964830  0.87410394  0.53073815  1
  H+  H130  1  0.47055650  0.10817607  0.32669583  1
  H+  H131  1  0.64323078  0.52212426  0.84066099  1
  H+  H132  1  0.85693988  0.13332473  0.49956636  1
  H+  H133  1  0.45248288  0.08502174  0.86297576  1
  H+  H134  1  0.60531508  0.97921335  0.82503148  1
  H+  H135  1  0.45775156  0.62000376  0.18338365  1
  H+  H136  1  0.63002633  0.64303590  0.49139157  1
  H+  H137  1  0.12039304  0.48930472  0.49277056  1
  H+  H138  1  0.16526066  0.30127101  0.49360534  1
  H+  H139  1  0.90311130  0.61948045  0.84073792  1
  H+  H140  1  0.62662389  0.48743987  0.48264485  1
  H+  H141  1  0.69289205  0.48631732  0.70416731  1
  H+  H142  1  0.86694352  0.22559702  0.82550730  1
  H+  H143  1  0.80166011  0.66819135  0.99636016  1
  H+  H144  1  1.00492536  0.37767245  0.32696383  1
  H+  H145  1  0.22129375  0.11135813  0.17355552  1
  H+  H146  1  0.63328039  0.11225099  -0.00854713  1
  H+  H147  1  0.12342931  0.01132621  0.99429349  1
  H+  H148  1  -0.00767831  0.37254682  0.00175488  1
  H+  H149  1  0.89270795  0.03328560  0.99022106  1
  H+  H150  1  0.63847062  0.62546280  0.65648456  1
  H+  H151  1  0.65182648  0.28543651  0.50447479  1
  H+  H152  1  0.14224833  0.61855026  0.66497522  1
  H+  H153  1  0.71297624  0.87041063  0.66590749  1
  H+  H154  1  0.12147407  0.11716253  0.65496894  1
  H+  H155  1  0.14704034  0.62081630  0.85045525  1
  H+  H156  1  0.11037997  0.63863548  0.49614344  1
  H+  H157  1  -0.03097851  0.11992924  0.65917162  1
  H+  H158  1  0.25865088  0.89091492  0.49825833  1
  H+  H159  1  0.01452522  0.12501617  0.16323358  1
  H+  H160  1  0.58196640  0.45706599  -0.00993674  1
  H+  H161  1  0.47726153  0.62330920  0.50881797  1
  H+  H162  1  0.61020492  0.14069534  0.63020160  1
  H+  H163  1  0.36791318  0.52885852  0.18737583  1
  H+  H164  1  0.06237714  0.17899566  0.49034455  1
  H+  H165  1  0.39246704  0.77916619  0.33330818  1
  H+  H166  1  0.62337766  0.38617448  0.83254664  1
  H+  H167  1  0.13250276  0.10122307  0.83874804  1
  H+  H168  1  0.59527411  0.66937196  0.42431391  1
  H+  H169  1  0.68020738  0.58440457  0.26571791  1
  H+  H170  1  0.04460846  0.65901502  0.83817618  1
  H+  H171  1  -0.01289188  0.86766821  0.17357455  1
  H+  H172  1  0.77690964  0.63881617  0.67129703  1
  H+  H173  1  0.64130477  0.11283386  0.85214973  1
  H+  H174  1  0.20635210  0.10976958  0.66147244  1
  H+  H175  1  0.71582193  0.88028615  0.80648268  1
  H+  H176  1  0.47596496  0.61948248  0.66668066  1
  H+  H177  1  0.89240381  0.61257549  0.65806866  1
  H+  H178  1  0.20048959  0.80971441  0.83380427  1
  H+  H179  1  0.73009499  0.12136471  0.49742692  1
  H+  H180  1  0.08084350  0.38128851  0.15534111  1
  H+  H181  1  0.06613717  0.91644477  0.43184601  1
  H+  H182  1  0.87373452  0.38693028  0.67485835  1
  H+  H183  1  0.37304742  0.11006358  0.00768343  1
  H+  H184  1  0.58816450  0.49284841  0.14185352  1
  H+  H185  1  0.72050045  0.11020749  0.65567566  1
  H+  H186  1  0.63210777  0.86308835  0.17610680  1
  H+  H187  1  0.14892961  0.33326887  0.10792676  1
  H+  H188  1  0.78194211  0.65072851  0.33841655  1
  H+  H189  1  0.63550682  0.40390521  0.48375110  1
  H+  H190  1  0.62326335  0.64169557  0.82783701  1
  H+  H191  1  0.26825209  0.90036419  0.67017889  1
  H+  H192  1  0.16605147  0.80737524  0.93934037  1
  H+  H193  1  1.01538869  0.88574107  0.67855564  1
  H+  H194  1  0.35168403  0.12696202  0.33761386  1
  H+  H195  1  0.12602974  0.27070681  1.02079493  1
  H+  H196  1  0.62428213  0.63678194  0.33810864  1
  H+  H197  1  0.35959723  0.13416610  0.49040586  1
  H+  H198  1  0.08042690  -0.03968586  0.33077982  1
  H+  H199  1  0.32715695  0.21754544  0.69308812  1
  H+  H200  1  0.35491309  0.73752486  0.49711748  1
  H+  H201  1  0.89019874  0.11314097  0.83681189  1
  H+  H202  1  0.61698824  0.22527784  0.34561559  1
  H+  H203  1  0.12822302  0.86790477  0.66258882  1
  H+  H204  1  0.38635990  1.02535796  0.50448599  1
  H+  H205  1  0.94676317  0.07762909  0.51216239  1
  H+  H206  1  0.83467509  0.65950487  0.73255099  1
  H+  H207  1  0.14354588  0.56607232  0.27477570  1
  H+  H208  1  0.11582483  0.63533857  0.16494806  1
  H+  H209  1  0.93039535  0.27612384  0.33447036  1
  H+  H210  1  0.13451170  0.15254146  0.49170328  1
  H+  H211  1  0.38817222  0.03221817  0.16270335  1
  H+  H212  1  0.82937654  0.49114847  0.15874798  1
  H+  H213  1  0.64970349  0.39771273  0.67022814  1
  H+  H214  1  0.35369412  0.97446618  0.34263582  1
  H+  H215  1  0.88113838  0.10598249  0.17766317  1
  H+  H216  1  0.62701178  0.87213137  0.82332510  1
  H+  H217  1  0.88691327  0.77414425  0.50912220  1
  H+  H218  1  0.83887257  0.41981770  0.77171490  1
  H+  H219  1  0.21926530  0.85170447  1.00102422  1
  H+  H220  1  0.23520215  0.36878558  0.65263785  1
  H+  H221  1  0.34897523  0.63546837  0.16516730  1
  H+  H222  1  0.73799250  0.36937715  0.84946003  1
  H+  H223  1  0.85662714  -0.00233313  0.50906152  1
  H+  H224  1  0.87685400  0.73625537  0.34339577  1
  H+  H225  1  0.34471230  0.22065566  0.00417861  1
  H+  H226  1  0.45289221  0.30217062  0.65131916  1
  H+  H227  1  0.79018889  0.15171378  0.34412401  1
  H+  H228  1  0.87482220  0.48098092  0.83008460  1
  H+  H229  1  0.27067396  0.63448290  0.67406933  1
  H+  H230  1  0.10090784  0.98018845  0.67663266  1
  H+  H231  1  0.20995430  0.60151613  0.17471331  1
  H+  H232  1  0.35328189  0.89236211  0.12768765  1
  H+  H233  1  0.38483864  0.76956765  0.84414283  1
  H+  H234  1  0.36749823  0.36374633  0.18117739  1
  H+  H235  1  0.21287880  0.10462156  0.99222544  1
  H+  H236  1  0.90070041  0.36618730  0.50948492  1
  H+  H237  1  0.10623685  0.12866193  0.16312642  1
  H+  H238  1  0.89072343  0.10951687  0.33374456  1
  H+  H239  1  0.13806269  0.31363609  0.87056240  1
  H+  H240  1  0.25630935  0.38983316  0.16531206  1
  H+  H241  1  0.56867213  0.32595088  0.19014381  1
  H+  H242  1  0.26111591  0.39215448  1.02690410  1
  H+  H243  1  0.10381311  0.63575478  0.34325493  1
  H+  H244  1  0.09247169  0.68107052  0.73673397  1
  H+  H245  1  0.54299055  0.89390745  0.45187041  1
  H+  H246  1  0.42175474  0.58621142  0.27454142  1
  H+  H247  1  0.36380175  0.63481637  0.67500717  1
  H+  H248  1  0.86371337  0.63706473  0.49322257  1
  H+  H249  1  0.93763379  0.35077479  0.17644418  1
  H+  H250  1  0.17556311  0.56087093  1.03657173  1
  H+  H251  1  0.87197100  0.47474056  0.67385289  1
  H+  H252  1  0.35934081  0.86539265  0.51852597  1
  H+  H253  1  0.61466789  0.13395027  0.34564892  1
  H+  H254  1  0.87033904  0.22971827  0.50022663  1
  H+  H255  1  0.74633081  0.35703152  0.17934148  1
  H+  H256  1  0.39479855  0.77267395  -0.00768100  1
  H+  H257  1  0.86361888  0.13980946  0.00827714  1
  H+  H258  1  0.31966780  0.91590413  0.43947634  1
  H+  H259  1  0.49330369  0.64004785  0.85240163  1
  H+  H260  1  0.87184103  0.26629414  0.98966886  1
  H+  H261  1  0.11239305  0.89194897  0.14793865  1
  H+  H262  1  0.12616155  0.09815447  0.32234541  1
  H+  H263  1  0.78440582  0.63797775  0.82900699  1
  H+  H264  1  0.37223914  0.74516186  0.67176645  1
  H+  H265  1  0.93156885  0.88512604  0.33991130  1
  H+  H266  1  0.11421614  0.35535855  0.01931692  1
  H+  H267  1  0.34535364  0.38586592  0.01874521  1
  H+  H268  1  0.98267098  0.35576317  0.82969046  1
  H+  H269  1  0.81270831  0.89121210  0.85981840  1
  H+  H270  1  -0.01471219  0.36715512  0.66143412  1
  H+  H271  1  0.87277994  0.40015003  0.34464537  1
  H+  H272  1  0.38081543  0.11997171  0.65338744  1
  H+  H273  1  0.39733365  0.61038579  0.33662895  1
  H+  H274  1  0.37347449  0.38392039  0.34003117  1
  H+  H275  1  0.73329135  0.62751056  0.50242441  1
  H+  H276  1  0.83868715  0.98961591  0.69053740  1
  H+  H277  1  0.37175570  0.64349932  0.00860706  1
  H+  H278  1  0.38689017  0.26803859  0.32669969  1
  H+  H279  1  0.36863697  0.47695161  0.66821188  1
  H+  H280  1  0.32630085  0.92437578  0.72848023  1
  H+  H281  1  0.65156361  0.03281297  0.33962024  1
  H+  H282  1  0.64609491  0.27662152  0.63716891  1
  H+  H283  1  0.34631638  0.86994509  0.82617916  1
  H+  H284  1  0.58847960  0.66866586  0.73256128  1
  H+  H285  1  0.62929685  0.27956232  0.99593010  1
  H+  H286  1  0.56805936  0.16355566  0.80790266  1
  H+  H287  1  0.89258455  0.27770624  0.66166143  1
  H+  H288  1  0.42360570  0.83248903  0.92533190  1
  H+  H289  1  0.83574728  0.90820727  0.43325656  1
  H+  H290  1  0.37027795  0.38246841  0.48874729  1
  H+  H291  1  0.11544377  0.35085970  0.81151465  1
  H+  H292  1  0.33170630  0.66650552  0.77369193  1
  H+  H293  1  0.32352002  0.17069291  0.06834835  1
  H+  H294  1  0.90322795  0.58266129  0.23205079  1
  H+  H295  1  0.93044873  0.33613404  0.56805045  1
  H+  H296  1  0.82598173  0.15768485  0.10540116  1
  H+  H297  1  0.83795490  0.67051646  0.43342520  1
  H+  H298  1  0.16827228  0.83675987  0.22651724  1
  H+  H299  1  0.91537161  0.31242518  0.24168398  1
  H+  H300  1  0.16954895  0.57709129  0.90412023  1
  H+  H301  1  0.54312140  0.41696738  0.05388321  1
  H+  H302  1  0.16552561  0.59043507  0.56955616  1
  H+  H303  1  0.85122416  0.43049065  0.43901263  1
  H+  H304  1  0.50867392  0.13181990  -0.00129161  1
  H+  H305  1  0.38302813  0.83869095  0.20334016  1
  H+  H306  1  0.34762091  0.41748748  0.41974919  1
  H+  H307  1  0.38957481  0.06172648  0.95302018  1
  H+  H308  1  0.64648924  0.03074549  0.48412075  1
  H+  H309  1  0.41290493  0.07785142  0.26639312  1
  H+  H310  1  0.94005265  0.83766812  0.90212414  1
  H+  H311  1  0.67749918  0.34804280  0.91000096  1
  H+  H312  1  0.80310544  0.43198037  0.09948661  1
  H+  H313  1  0.70589434  0.51373177  0.18905303  1
  H+  H314  1  0.57953561  0.16091576  0.42437431  1
  H+  H315  1  0.91208323  0.07506979  0.23609299  1
  H+  H316  1  0.66920382  0.08127899  0.27583595  1
  H+  H317  1  0.15659176  0.07105664  0.90316056  1
  H+  H318  1  0.90705374  0.32378631  0.92783965  1
  H+  H319  1  0.72128226  0.09849090  0.17911260  1
  H+  H320  1  0.11014142  0.21397862  0.81173878  1
  H+  H321  1  0.60537896  0.20270901  0.73297717  1
  H+  H322  1  0.31175339  0.14277639  0.73751556  1
  H+  H323  1  0.67413037  0.58077337  0.89961557  1
  H+  H324  1  0.66380548  0.83571098  0.60123207  1
  H+  H325  1  0.04850686  0.41434161  0.10091643  1
  H+  H326  1  0.17803041  0.34955732  0.59341018  1
  H+  H327  1  0.76852202  0.88917263  0.14759499  1
  H+  H328  1  0.59481124  0.42169078  0.38998944  1
  H+  H329  1  0.26186299  0.12430646  0.33682900  1
  H+  H330  1  0.44892515  0.86426610  0.29712201  1
  H+  H331  1  0.12002065  0.85610758  0.32109783  1
  H+  H332  1  0.82270294  0.92272462  0.74291891  1
  H+  H333  1  0.94861038  0.83834011  0.23989034  1
  H+  H334  1  0.59290785  0.72625575  0.16777318  1
  H+  H335  1  0.57006401  0.92218564  0.76312387  1
  H+  H336  1  0.68446995  0.34747969  0.56175524  1
  H+  H337  1  0.39252865  0.82333095  0.61408589  1
  H+  H338  1  0.67212607  0.83802022  0.23224344  1
  H+  H339  1  0.67015240  0.60015203  0.56124374  1
  H+  H340  1  0.67822394  0.86981886  0.91248308  1
  H+  H341  1  0.35780661  0.19549318  0.82214446  1
  H+  H342  1  0.03864379  0.39698801  0.48592965  1
  H+  H343  1  0.59775002  0.17390323  0.11217218  1
  H+  H344  1  0.89939566  0.07386290  0.60620822  1
  H+  H345  1  0.55736691  0.18615422  0.73282801  1
  H+  H346  1  0.91955883  0.83248221  0.60692215  1
  H+  H347  1  0.66877211  0.07463110  0.59305365  1
  H+  H348  1  0.12405568  0.86540977  0.50366448  1
  H+  H349  1  0.26394024  0.63251779  0.32514786  1
  H+  H350  1  0.84415525  0.17377212  0.40553144  1
  H+  H351  1  0.09709380  0.17192973  0.39097059  1
  H+  H352  1  0.13821921  0.52663772  0.66343288  1
  H+  H353  1  0.84576060  0.68966663  0.09972374  1
  H+  H354  1  0.07585056  0.66504257  0.43530834  1
  H+  H355  1  0.83831309  0.92631619  0.05663048  1
  H+  H356  1  0.32241912  0.15815579  0.43215855  1
  H+  H357  1  0.33389272  0.68073130  0.43703609  1
  H+  H358  1  0.41068935  0.33496868  0.23286958  1
  H+  H359  1  0.85509523  0.38937768  0.00313025  1
  H+  H360  1  0.11578255  0.48737352  0.38650652  1
  H+  H361  1  0.15802090  0.08314622  0.56529323  1
  H+  H362  1  0.07585345  0.15342732  0.06754137  1
  H+  H363  1  0.08192089  0.92435328  0.08842139  1
  H+  H364  1  0.47843868  0.11646520  0.17425292  1
  H+  H365  1  0.26979413  0.36706609  0.84605925  1
  H+  H366  1  0.42590410  0.33819492  0.55516439  1
  H+  H367  1  0.32732534  0.42860031  0.11465482  1
  H+  H368  1  0.93285490  0.59249276  0.90133602  1
  H+  H369  1  0.61964848  0.36303090  -0.00073770  1
  H+  H370  1  0.92351004  0.09227827  0.89903176  1
  H+  H371  1  0.41710729  0.30049121  0.88318112  1
  H+  H372  1  0.77063209  0.39669321  1.00567379  1
  H+  H373  1  0.15455311  0.83771783  0.60164448  1
  H+  H374  1  -0.02126301  0.10779361  0.32962598  1
  H+  H375  1  0.41798626  0.08900714  0.56182011  1
  H+  H376  1  0.41974686  0.59621166  0.60586485  1
  H+  H377  1  0.92813260  0.58500519  0.57323697  1
  H+  H378  1  0.55940994  0.65110981  0.11772594  1
  H+  H379  1  0.08409418  0.92151630  0.76199494  1
  H+  H380  1  0.36756780  0.35457153  0.93242296  1
  H+  H381  1  0.32468073  0.66178523  0.10086282  1
  H+  H382  1  0.86655181  0.48542554  0.34449429  1
  H+  H383  1  0.59929922  0.41490087  0.77034190  1
  O2-  O384  1  0.07437829  0.15659077  0.14616987  1
  O2-  O385  1  0.11692282  0.19268361  0.47188571  1
  O2-  O386  1  0.08270883  0.15084611  0.80106195  1
  O2-  O387  1  0.05286710  0.41598613  0.14625294  1
  O2-  O388  1  0.09765115  0.43420280  0.46988310  1
  O2-  O389  1  0.07003497  0.39588713  0.79752404  1
  O2-  O390  1  0.09367399  0.67315654  0.14666443  1
  O2-  O391  1  0.07433589  0.66400199  0.48129146  1
  O2-  O392  1  0.10651804  0.68902908  0.82370686  1
  O2-  O393  1  0.08425803  0.92461429  0.13602358  1
  O2-  O394  1  0.07309296  0.91856659  0.47680818  1
  O2-  O395  1  0.08909274  0.91892718  0.80948856  1
  O2-  O396  1  0.32828996  0.17203560  0.14625200  1
  O2-  O397  1  0.32393221  0.15950922  0.47777782  1
  O2-  O398  1  0.32039146  0.13292929  0.81164573  1
  O2-  O399  1  0.31984110  0.42498276  0.15982664  1
  O2-  O400  1  0.34806279  0.42101920  0.46940954  1
  O2-  O401  1  0.32764703  0.38653286  0.86309547  1
  O2-  O402  1  0.31659880  0.66217763  0.14576322  1
  O2-  O403  1  0.33000958  0.67769782  0.48132449  1
  O2-  O404  1  0.33456028  0.67136139  0.81859520  1
  O2-  O405  1  0.32333783  0.92586311  0.11999411  1
  O2-  O406  1  0.32057841  0.91802399  0.48506251  1
  O2-  O407  1  0.30880274  0.89264122  0.81303648  1
  O2-  O408  1  0.59260143  0.16652073  0.15622330  1
  O2-  O409  1  0.57945757  0.15934581  0.47425931  1
  O2-  O410  1  0.58359727  0.17002223  0.85125221  1
  O2-  O411  1  0.53658927  0.45535061  0.11752088  1
  O2-  O412  1  0.60606434  0.43109008  0.46355634  1
  O2-  O413  1  0.59042454  0.41270844  0.81493563  1
  O2-  O414  1  0.55105155  0.66442761  0.15969052  1
  O2-  O415  1  0.59594462  0.67308858  0.47204553  1
  O2-  O416  1  0.59257143  0.67007664  0.81049821  1
  O2-  O417  1  0.57654790  0.91235009  0.14340460  1
  O2-  O418  1  0.60537872  0.92475549  0.44395517  1
  O2-  O419  1  0.57075550  0.91905874  0.80861027  1
  O2-  O420  1  0.82143752  0.15155325  0.15074415  1
  O2-  O421  1  0.83401805  0.16971834  0.48361060  1
  O2-  O422  1  0.83614340  0.16436271  0.81006292  1
  O2-  O423  1  0.78061701  0.43790049  0.13909350  1
  O2-  O424  1  0.85136772  0.43083486  0.48492157  1
  O2-  O425  1  0.83863657  0.42001824  0.81707173  1
  O2-  O426  1  0.83724293  0.68170765  0.14422651  1
  O2-  O427  1  0.83517020  0.66859382  0.47934080  1
  O2-  O428  1  0.84344806  0.66594411  0.81151174  1
  O2-  O429  1  0.82466585  0.92304916  0.12732787  1
  O2-  O430  1  0.82433493  0.90304572  0.47865015  1
  O2-  O431  1  0.85541800  0.92051156  0.82802794  1
  O2-  O432  1  0.16076750  0.07843934  0.18813711  1
  O2-  O433  1  0.16087231  0.08435514  0.51957496  1
  O2-  O434  1  0.15998830  0.06925022  0.85636673  1
  O2-  O435  1  0.14303200  0.32718812  0.15351079  1
  O2-  O436  1  0.19151143  0.36097619  0.50940793  1
  O2-  O437  1  0.14838701  0.31727346  0.82690689  1
  O2-  O438  1  0.15035063  0.57599127  0.19121545  1
  O2-  O439  1  0.16296727  0.59217797  0.52390530  1
  O2-  O440  1  0.17245180  0.58409470  0.85989558  1
  O2-  O441  1  0.16612613  0.83034813  0.18127429  1
  O2-  O442  1  0.15570361  0.83738988  0.52077474  1
  O2-  O443  1  0.14474820  0.77311310  0.85559994  1
  O2-  O444  1  0.41691119  0.08632428  0.18628301  1
  O2-  O445  1  0.42288492  0.08730800  0.51592845  1
  O2-  O446  1  0.39111433  0.05371378  0.87323240  1
  O2-  O447  1  0.40255267  0.33555579  0.18792954  1
  O2-  O448  1  0.40492400  0.32954890  0.51298393  1
  O2-  O449  1  0.42090338  0.29829955  0.83859370  1
  O2-  O450  1  0.39681623  0.59009540  0.20170349  1
  O2-  O451  1  0.42375194  0.60429627  0.53117864  1
  O2-  O452  1  0.44857420  0.63861761  0.87927564  1
  O2-  O453  1  0.39668014  0.83266319  0.16136837  1
  O2-  O454  1  0.38860895  0.83432219  0.53706091  1
  O2-  O455  1  0.41469191  0.83053860  0.86072873  1
  O2-  O456  1  0.66168401  0.06901642  0.19737598  1
  O2-  O457  1  0.66625953  0.08555318  0.50607450  1
  O2-  O458  1  0.66844196  0.07698895  0.85869916  1
  O2-  O459  1  0.72657466  0.30300059  0.20605418  1
  O2-  O460  1  0.68600868  0.34625634  0.51588045  1
  O2-  O461  1  0.67706362  0.33979940  0.86476860  1
  O2-  O462  1  0.68899876  0.55769739  0.18901853  1
  O2-  O463  1  0.67137719  0.60124096  0.51527958  1
  O2-  O464  1  0.67496691  0.58312241  0.85474045  1
  O2-  O465  1  0.66282613  0.83208212  0.18768506  1
  O2-  O466  1  0.66427344  0.82715137  0.51097560  1
  O2-  O467  1  0.66735386  0.85015961  0.83457087  1
  O2-  O468  1  0.91343628  0.07694904  0.19080640  1
  O2-  O469  1  0.88812974  0.05891125  0.52482570  1
  O2-  O470  1  0.92154190  0.08454208  0.85354236  1
  O2-  O471  1  0.88830584  0.30934712  0.20131598  1
  O2-  O472  1  0.92972065  0.33423753  0.52214306  1
  O2-  O473  1  0.92207688  0.32717133  0.85075559  1
  O2-  O474  1  0.90121952  0.58139658  0.18722231  1
  O2-  O475  1  0.92612892  0.58189829  0.52540277  1
  O2-  O476  1  0.93698393  0.59309224  0.85594589  1
  O2-  O477  1  0.93297499  0.83172284  0.19669629  1
  O2-  O478  1  0.91238369  0.83390876  0.52476383  1
  O2-  O479  1  0.93934958  0.83283179  0.85511942  1
  O2-  O480  1  0.14998996  0.06053171  0.30974323  1
  O2-  O481  1  0.14783938  0.08111164  0.64326103  1
  O2-  O482  1  0.15372869  0.07500464  0.97537551  1
  O2-  O483  1  0.11951506  0.30650646  0.29617653  1
  O2-  O484  1  0.17412376  0.34332832  0.63827520  1
  O2-  O485  1  0.15357076  0.33363023  1.03087743  1
  O2-  O486  1  0.15117497  0.57454433  0.32023683  1
  O2-  O487  1  0.17190271  0.58869928  0.64834125  1
  O2-  O488  1  0.16961324  0.58456310  0.99806103  1
  O2-  O489  1  0.15512597  0.83062467  0.30745477  1
  O2-  O490  1  0.15711864  0.83664097  0.64686981  1
  O2-  O491  1  0.16156881  0.81506982  0.98349873  1
  O2-  O492  1  0.41057447  0.07614096  0.31191799  1
  O2-  O493  1  0.41068341  0.09074093  0.63715567  1
  O2-  O494  1  0.40023260  0.07418150  0.99750790  1
  O2-  O495  1  0.41799842  0.32814217  0.31144608  1
  O2-  O496  1  0.46297210  0.35755070  0.63652961  1
  O2-  O497  1  0.38438223  0.32582982  0.96394494  1
  O2-  O498  1  0.43074955  0.58540113  0.31993858  1
  O2-  O499  1  0.41546225  0.59142343  0.65164280  1
  O2-  O500  1  0.41655442  0.58737136  0.99020384  1
  O2-  O501  1  0.42975305  0.84272292  0.33823912  1
  O2-  O502  1  0.40443117  0.81560493  0.65750396  1
  O2-  O503  1  0.42651252  0.83345694  0.97417333  1
  O2-  O504  1  0.67283807  0.09014880  0.32118215  1
  O2-  O505  1  0.66134730  0.07556046  0.63752850  1
  O2-  O506  1  0.66658612  0.08282792  0.98267210  1
  O2-  O507  1  0.67378807  0.32216751  0.31740805  1
  O2-  O508  1  0.68260451  0.34188018  0.63757101  1
  O2-  O509  1  0.65961738  0.34208230  0.98683893  1
  O2-  O510  1  0.67688318  0.58873464  0.31096712  1
  O2-  O511  1  0.67105103  0.59896432  0.63691284  1
  O2-  O512  1  0.66626565  0.57308542  0.98435840  1
  O2-  O513  1  0.68760509  0.83765469  0.31723335  1
  O2-  O514  1  0.65539567  0.83350214  0.64572017  1
  O2-  O515  1  0.67796746  0.86493544  0.95790160  1
  O2-  O516  1  0.91650601  0.07582270  0.31735339  1
  O2-  O517  1  0.90585254  0.08517928  0.65052992  1
  O2-  O518  1  0.91973389  0.09483974  0.97630861  1
  O2-  O519  1  0.97153679  0.32179801  0.30640968  1
  O2-  O520  1  0.92412959  0.33756116  0.64526576  1
  O2-  O521  1  0.89956323  0.32619719  0.97309552  1
  O2-  O522  1  0.90930603  0.58001932  0.31677944  1
  O2-  O523  1  0.92674253  0.58661666  0.64184719  1
  O2-  O524  1  0.92913031  0.59246587  0.98156877  1
  O2-  O525  1  0.96152079  0.85319074  0.32582075  1
  O2-  O526  1  0.92264980  0.83128669  0.65193175  1
  O2-  O527  1  0.93626541  0.84619735  0.97263248  1
  O2-  O528  1  0.07966140  0.16271984  0.02240161  1
  O2-  O529  1  0.08463791  0.15937168  0.34708381  1
  O2-  O530  1  0.07692075  0.17637255  0.67701360  1
  O2-  O531  1  0.05227260  0.40503525  0.02074219  1
  O2-  O532  1  0.10289109  0.48464368  0.34221037  1
  O2-  O533  1  0.08614046  0.42577664  0.68450633  1
  O2-  O534  1  0.08349088  0.66195967  0.03162762  1
  O2-  O535  1  0.07571898  0.66785947  0.35852143  1
  O2-  O536  1  0.08721205  0.67506079  0.69192438  1
  O2-  O537  1  0.08076581  0.92588739  0.01941955  1
  O2-  O538  1  0.05020734  0.90043933  0.35082121  1
  O2-  O539  1  0.07738033  0.92131602  0.69440507  1
  O2-  O540  1  0.32146499  0.16340594  0.02293568  1
  O2-  O541  1  0.32169228  0.15708378  0.35296908  1
  O2-  O542  1  0.31116421  0.15712750  0.69290306  1
  O2-  O543  1  0.32488119  0.42416606  0.03399022  1
  O2-  O544  1  0.34616210  0.41613775  0.35750720  1
  O2-  O545  1  0.33941851  0.41429547  0.67606875  1
  O2-  O546  1  0.34496343  0.67972011  0.02098201  1
  O2-  O547  1  0.32777288  0.66724557  0.31982523  1
  O2-  O548  1  0.33240020  0.66637723  0.68975155  1
  O2-  O549  1  0.31425141  0.91885180  0.05278028  1
  O2-  O550  1  0.31993042  0.91524751  0.36040708  1
  O2-  O551  1  0.32868068  0.93446251  0.68420130  1
  O2-  O552  1  0.57193952  0.16463063  -0.01171743  1
  O2-  O553  1  0.58324482  0.16365388  0.36136850  1
  O2-  O554  1  0.58622134  0.17716407  0.61692036  1
  O2-  O555  1  0.54742363  0.40058849  0.00972758  1
  O2-  O556  1  0.58918729  0.41873153  0.34399251  1
  O2-  O557  1  0.63614984  0.44085102  0.69102800  1
  O2-  O558  1  0.57074045  0.63371720  0.03354490  1
  O2-  O559  1  0.59578084  0.66797271  0.35639306  1
  O2-  O560  1  0.58507154  0.66839431  0.68693750  1
  O2-  O561  1  0.57991775  0.91714222  0.02104536  1
  O2-  O562  1  0.60921804  0.92494207  0.37653719  1
  O2-  O563  1  0.56828876  0.91308801  0.68387199  1
  O2-  O564  1  0.83206649  0.16786087  0.02579755  1
  O2-  O565  1  0.84932972  0.17577587  0.36014789  1
  O2-  O566  1  0.82369277  0.16980879  0.68552600  1
  O2-  O567  1  0.83196318  0.42606378  0.01819636  1
  O2-  O568  1  0.84108082  0.42535062  0.36308453  1
  O2-  O569  1  0.84042321  0.41512462  0.68949523  1
  O2-  O570  1  0.85802157  0.69072513  0.01544483  1
  O2-  O571  1  0.84035715  0.67638671  0.35760084  1
  O2-  O572  1  0.83535747  0.65689455  0.68698435  1
  O2-  O573  1  0.84693118  0.92979470  0.01033852  1
  O2-  O574  1  0.85535672  0.91589001  0.35908167  1
  O2-  O575  1  0.79371118  0.93621544  0.71051499  1
