# generated using pymatgen
data_H2O
_symmetry_space_group_name_H-M   'P 1'
_cell_length_a   17.98931593
_cell_length_b   17.98140626
_cell_length_c   21.99279327
_cell_angle_alpha   89.97126299
_cell_angle_beta   90.02820453
_cell_angle_gamma   120.01550541
_symmetry_Int_Tables_number   1
_chemical_formula_structural   H2O
_chemical_formula_sum   'H384 O192'
_cell_volume   6160.00944102
_cell_formula_units_Z   192
loop_
 _symmetry_equiv_pos_site_id
 _symmetry_equiv_pos_as_xyz
  1  'x, y, z'
loop_
 _atom_type_symbol
 _atom_type_oxidation_number
  H+  1.0
  O2-  -2.0
loop_
 _atom_site_type_symbol
 _atom_site_label
 _atom_site_symmetry_multiplicity
 _atom_site_fract_x
 _atom_site_fract_y
 _atom_site_fract_z
 _atom_site_occupancy
  H+  H0  1  0.46163352  0.84819072  1.00187406  1
  H+  H1  1  0.47636506  0.35425367  0.49945342  1
  H+  H2  1  0.38957756  0.52768934  0.67030866  1
  H+  H3  1  0.33830040  0.71034738  0.67458567  1
  H+  H4  1  0.66724889  0.08408284  0.74057034  1
  H+  H5  1  0.78056925  0.13915748  0.80702963  1
  H+  H6  1  0.83369797  0.91878286  0.10417771  1
  H+  H7  1  0.73751615  0.13335119  0.65961950  1
  H+  H8  1  0.42509288  0.83908033  0.24902220  1
  H+  H9  1  0.96491759  0.84037798  0.19296598  1
  H+  H10  1  0.62376519  0.10085584  0.31906747  1
  H+  H11  1  0.18312013  0.74875636  0.45405195  1
  H+  H12  1  0.39301376  0.90641867  0.35074700  1
  H+  H13  1  0.14003239  0.87413876  0.15482292  1
  H+  H14  1  0.77517032  0.90839187  1.01094164  1
  H+  H15  1  0.64871798  0.86129247  0.64678067  1
  H+  H16  1  0.63334281  0.55174400  0.58548821  1
  H+  H17  1  0.15537287  0.37331443  1.00435527  1
  H+  H18  1  0.54196835  0.39862980  0.82439278  1
  H+  H19  1  0.00920626  0.11531303  0.48665379  1
  H+  H20  1  0.83456274  0.42561614  0.10451838  1
  H+  H21  1  0.38707678  0.11991289  0.65532732  1
  H+  H22  1  0.47792915  0.62264897  0.99828294  1
  H+  H23  1  0.38114329  0.78314877  0.84178717  1
  H+  H24  1  0.77641197  0.87530080  0.49125811  1
  H+  H25  1  0.61337871  -0.02594555  0.17021628  1
  H+  H26  1  0.38344448  0.60286677  0.84390050  1
  H+  H27  1  0.41067105  0.09219767  0.56353051  1
  H+  H28  1  0.03677005  0.58080821  0.37183822  1
  H+  H29  1  0.01728235  0.38078864  0.32645568  1
  H+  H30  1  0.92327345  0.31512379  1.00651747  1
  H+  H31  1  0.12895938  0.38288979  0.69645437  1
  H+  H32  1  0.64318016  0.78163802  0.84051957  1
  H+  H33  1  0.02862524  0.89674850  0.67169385  1
  H+  H34  1  0.61552721  0.63704243  0.66550831  1
  H+  H35  1  0.87761637  0.26825256  0.15022685  1
  H+  H36  1  0.55299908  0.88462481  0.50309399  1
  H+  H37  1  0.85231468  0.39553703  0.49081334  1
  H+  H38  1  0.95902111  0.37615592  0.65450809  1
  H+  H39  1  0.78352331  0.64933184  0.83479300  1
  H+  H40  1  0.38491588  0.61315331  0.66569777  1
  H+  H41  1  0.35424218  0.62530141  1.00037951  1
  H+  H42  1  0.85784725  0.73014492  0.34408910  1
  H+  H43  1  0.10824044  0.11981481  0.16195370  1
  H+  H44  1  0.35428087  0.96279460  0.00910041  1
  H+  H45  1  0.16562047  0.82675089  0.89822357  1
  H+  H46  1  0.91325737  0.08520942  0.56143318  1
  H+  H47  1  0.87612302  0.11959075  0.15676338  1
  H+  H48  1  0.62443010  0.28826180  0.48774686  1
  H+  H49  1  0.40382095  0.82674163  0.62276911  1
  H+  H50  1  0.38424531  0.11029033  0.83624811  1
  H+  H51  1  0.42226172  0.33824350  0.23681873  1
  H+  H52  1  0.72929825  0.61566866  0.15767702  1
  H+  H53  1  0.76777943  0.64009057  0.33698417  1
  H+  H54  1  0.03352501  0.89149602  0.82492553  1
  H+  H55  1  0.26282228  0.61557870  0.15172000  1
  H+  H56  1  0.13332910  0.02266215  0.32062352  1
  H+  H57  1  0.38481110  0.77078725  0.32706904  1
  H+  H58  1  0.41258445  1.03931121  0.18459613  1
  H+  H59  1  0.37948296  0.36476864  0.32246773  1
  H+  H60  1  0.37985122  0.60502781  0.51111961  1
  H+  H61  1  0.53505450  0.40233543  0.67753117  1
  H+  H62  1  0.49278946  0.87087614  0.18480212  1
  H+  H63  1  0.94966518  0.18650120  0.19989194  1
  H+  H64  1  0.63472545  0.11295009  0.79689344  1
  H+  H65  1  0.52124783  0.88215825  0.81409676  1
  H+  H66  1  0.15787763  0.58503792  0.55881295  1
  H+  H67  1  0.24373075  0.64336777  0.82698873  1
  H+  H68  1  0.96247896  0.61759377  0.52223208  1
  H+  H69  1  0.00419190  0.11373841  0.67774292  1
  H+  H70  1  0.10254307  0.38673779  0.78529242  1
  H+  H71  1  0.26994331  0.39982200  0.70218409  1
  H+  H72  1  0.48756607  0.93643440  0.56125297  1
  H+  H73  1  0.35861214  0.48111915  0.33142312  1
  H+  H74  1  0.61869673  0.73130415  0.16248279  1
  H+  H75  1  0.51494450  0.61675010  0.49319053  1
  H+  H76  1  0.90656026  0.77760556  0.66474702  1
  H+  H77  1  0.61314520  0.39772627  0.49014423  1
  H+  H78  1  0.27417849  0.35643400  0.00424689  1
  H+  H79  1  0.56015615  0.17873564  0.93461665  1
  H+  H80  1  0.22055307  0.36369263  0.32793697  1
  H+  H81  1  0.67608839  0.81070627  0.56000017  1
  H+  H82  1  0.87531082  0.40670832  1.00963536  1
  H+  H83  1  0.51192818  0.37664972  0.33718669  1
  H+  H84  1  0.52829111  0.89538553  0.60299796  1
  H+  H85  1  0.62925883  0.98302121  0.66163697  1
  H+  H86  1  0.88415077  0.11349953  0.50077011  1
  H+  H87  1  0.52824508  0.63762680  0.82579911  1
  H+  H88  1  0.56248310  0.42912991  0.10334584  1
  H+  H89  1  0.95806586  0.37043345  0.50040568  1
  H+  H90  1  0.11334701  1.00449650  0.18378781  1
  H+  H91  1  0.64648232  0.77241047  0.65806078  1
  H+  H92  1  0.11534700  0.97111963  0.48729529  1
  H+  H93  1  0.84499203  0.18230790  -0.01064802  1
  H+  H94  1  0.09684419  0.85783774  0.98905302  1
  H+  H95  1  0.55681271  0.46929799  1.00993975  1
  H+  H96  1  0.85528580  0.37126694  0.30740640  1
  H+  H97  1  0.14679252  0.23270628  0.82155924  1
  H+  H98  1  0.33857718  0.93694390  0.43604036  1
  H+  H99  1  0.72942282  0.86236027  0.17904715  1
  H+  H100  1  0.06155458  0.37758083  0.63094169  1
  H+  H101  1  0.14484958  0.63064385  0.49696314  1
  H+  H102  1  0.10346769  0.39431279  0.05585211  1
  H+  H103  1  0.11743466  0.75171561  0.32314125  1
  H+  H104  1  0.72137916  0.36341304  0.64375171  1
  H+  H105  1  0.09098491  0.40455532  0.48048099  1
  H+  H106  1  0.13021846  0.09631956  0.49780477  1
  H+  H107  1  0.71664630  0.09268844  1.06139086  1
  H+  H108  1  0.92801018  0.83515083  0.60511215  1
  H+  H109  1  0.39366408  0.37021629  0.17777243  1
  H+  H110  1  0.85970202  0.38897590  0.16197197  1
  H+  H111  1  0.31611376  0.89544113  0.50257336  1
  H+  H112  1  0.26391233  0.89388650  0.67440430  1
  H+  H113  1  0.97324035  0.85666078  0.50584814  1
  H+  H114  1  0.48139083  0.85646268  0.33029469  1
  H+  H115  1  0.64965837  0.17236466  0.02959237  1
  H+  H116  1  1.01181105  0.13230601  0.33011660  1
  H+  H117  1  0.27001868  0.13910935  0.49466556  1
  H+  H118  1  0.86886323  0.63727041  0.33817528  1
  H+  H119  1  0.65766634  1.01108012  0.50782526  1
  H+  H120  1  0.75812505  0.39158205  -0.00398699  1
  H+  H121  1  0.98913458  0.12509309  0.84535276  1
  H+  H122  1  0.19666853  0.07163469  0.99532396  1
  H+  H123  1  0.14237497  0.01786649  0.83605077  1
  H+  H124  1  0.64655881  0.53130512  0.83860662  1
  H+  H125  1  0.38480153  0.02135224  0.83544646  1
  H+  H126  1  0.07109160  0.90687117  0.27439856  1
  H+  H127  1  0.10407881  0.45718461  0.14605440  1
  H+  H128  1  0.87974512  0.60964410  0.17695877  1
  H+  H129  1  0.12044522  0.88639756  0.82426375  1
  H+  H130  1  0.86992147  0.14413014  0.82467235  1
  H+  H131  1  0.51686812  0.63626232  0.33642626  1
  H+  H132  1  0.85716479  0.88501101  0.33980881  1
  H+  H133  1  0.19557206  0.41517705  0.50437610  1
  H+  H134  1  0.78516495  0.89848737  0.83657808  1
  H+  H135  1  0.12806239  0.10958245  0.32356057  1
  H+  H136  1  0.33074740  0.91970892  0.76684456  1
  H+  H137  1  0.87884274  0.52241411  0.51390524  1
  H+  H138  1  0.63943744  0.62545959  0.32158105  1
  H+  H139  1  0.32670755  0.10137931  1.00459175  1
  H+  H140  1  0.60725192  -0.03172929  0.79673859  1
  H+  H141  1  0.86096566  0.36630813  0.65845045  1
  H+  H142  1  0.27559728  0.38803586  0.16706135  1
  H+  H143  1  0.85917629  0.22799106  0.48954561  1
  H+  H144  1  0.41227187  0.83033462  0.93816602  1
  H+  H145  1  0.67148810  0.08074560  0.23131092  1
  H+  H146  1  1.02663144  0.63899940  0.83777312  1
  H+  H147  1  0.63971904  0.37779095  0.17544895  1
  H+  H148  1  0.51378258  0.15369642  0.48085364  1
  H+  H149  1  0.09880839  0.75105049  0.51740358  1
  H+  H150  1  0.59535991  -0.03430540  1.02946082  1
  H+  H151  1  1.03881002  0.64109353  1.01137519  1
  H+  H152  1  0.87156921  -0.03492620  0.16717687  1
  H+  H153  1  0.91258977  0.63342769  1.00196151  1
  H+  H154  1  0.87629895  0.01574482  0.32300709  1
  H+  H155  1  0.16129752  0.22626850  0.47244663  1
  H+  H156  1  0.63119851  0.86818196  -0.00346136  1
  H+  H157  1  0.35419315  0.87376135  1.01249471  1
  H+  H158  1  0.72335006  0.85895554  0.33164246  1
  H+  H159  1  0.27345486  0.88666703  0.82761962  1
  H+  H160  1  0.86634920  0.24805646  0.66345492  1
  H+  H161  1  0.60710259  0.64771451  0.00372203  1
  H+  H162  1  0.47560136  0.42677820  0.89558104  1
  H+  H163  1  0.87520113  0.89988395  0.83531796  1
  H+  H164  1  0.61116340  0.23616081  0.65772289  1
  H+  H165  1  0.78707512  0.64442267  0.68120633  1
  H+  H166  1  0.21278316  0.59903573  0.65064622  1
  H+  H167  1  0.52020556  0.40149306  0.17008171  1
  H+  H168  1  0.62364735  0.51406352  0.16068049  1
  H+  H169  1  0.61597464  0.88410469  0.17366384  1
  H+  H170  1  0.38518111  0.23715684  0.15094756  1
  H+  H171  1  0.90062580  0.03566436  0.84844312  1
  H+  H172  1  0.62905656  0.15418436  0.16881015  1
  H+  H173  1  0.96609647  0.85762322  0.32417620  1
  H+  H174  1  0.59413503  0.22081969  0.32514628  1
  H+  H175  1  0.84301379  0.67429219  0.77565008  1
  H+  H176  1  0.39582823  0.37542703  0.67518194  1
  H+  H177  1  0.36954198  0.47636772  0.49423041  1
  H+  H178  1  0.14186457  0.10774134  0.84172822  1
  H+  H179  1  0.61476510  0.74137302  0.00438685  1
  H+  H180  1  0.35350545  0.84867432  0.67245271  1
  H+  H181  1  0.13802125  0.76874466  0.83848421  1
  H+  H182  1  0.09646578  0.49425185  0.48332156  1
  H+  H183  1  0.36405053  0.48024990  0.16779362  1
  H+  H184  1  0.11866515  0.59753520  0.84561513  1
  H+  H185  1  0.09157377  0.93183696  0.73088960  1
  H+  H186  1  0.89303475  0.13248754  0.65214373  1
  H+  H187  1  0.13849853  0.11240343  0.65232806  1
  H+  H188  1  0.97695656  0.36471232  0.83560601  1
  H+  H189  1  0.87600367  0.39575125  0.83235225  1
  H+  H190  1  0.38021789  0.22791673  0.98147900  1
  H+  H191  1  0.38087751  0.61595908  0.32186226  1
  H+  H192  1  0.35830888  0.22122923  0.82371037  1
  H+  H193  1  0.62759071  0.24455811  0.17400771  1
  H+  H194  1  0.35111113  0.71317248  0.48956857  1
  H+  H195  1  0.47578468  0.11919486  0.65160287  1
  H+  H196  1  0.14321420  0.47792792  0.98733114  1
  H+  H197  1  0.07545301  0.64413067  0.77570248  1
  H+  H198  1  0.87442266  0.49659980  0.01140855  1
  H+  H199  1  0.26450493  0.63530713  0.33077585  1
  H+  H200  1  0.87985478  0.03778593  0.65916126  1
  H+  H201  1  0.26715792  0.14066979  0.33656252  1
  H+  H202  1  0.37562856  0.27241168  0.32490960  1
  H+  H203  1  0.29489516  0.37809052  0.47778873  1
  H+  H204  1  0.14363582  0.26836712  0.17574690  1
  H+  H205  1  0.90178526  0.78763700  0.84414251  1
  H+  H206  1  0.61332992  0.22886383  0.82343502  1
  H+  H207  1  0.88875691  0.27835035  0.84264640  1
  H+  H208  1  0.36304191  0.13740586  0.49797791  1
  H+  H209  1  0.26038899  0.62758183  0.49112375  1
  H+  H210  1  0.89278236  0.53360153  0.84889721  1
  H+  H211  1  0.44699958  0.10063960  0.98885596  1
  H+  H212  1  0.69426146  0.08700400  0.99057490  1
  H+  H213  1  0.34185880  0.42194483  0.74836139  1
  H+  H214  1  0.13280257  0.29688462  0.71064311  1
  H+  H215  1  0.63256302  0.76881505  0.33113538  1
  H+  H216  1  0.72929011  0.37866493  0.17996063  1
  H+  H217  1  0.97313220  0.34792267  0.15506209  1
  H+  H218  1  0.46556773  0.31781051  0.99388558  1
  H+  H219  1  0.88163795  0.52249506  0.18354926  1
  H+  H220  1  0.93232546  0.13980005  0.99992527  1
  H+  H221  1  0.41884433  1.00520337  0.35433331  1
  H+  H222  1  0.63839123  0.62277077  0.16034729  1
  H+  H223  1  0.10921486  0.37170531  0.15465966  1
  H+  H224  1  0.52734193  0.63746065  0.67336710  1
  H+  H225  1  0.35376013  0.42375462  0.08046635  1
  H+  H226  1  0.85436517  0.71824081  0.16298205  1
  H+  H227  1  0.97186138  0.62707289  0.33728521  1
  H+  H228  1  0.88242486  0.25659477  0.31764588  1
  H+  H229  1  0.38605654  0.15022181  0.15574078  1
  H+  H230  1  0.87134745  0.99059362  0.01348617  1
  H+  H231  1  0.64067900  0.61802123  0.83986404  1
  H+  H232  1  0.01186613  0.63025633  0.16808169  1
  H+  H233  1  0.21910792  0.85864918  0.99704176  1
  H+  H234  1  0.23822675  0.25540129  0.42757155  1
  H+  H235  1  0.92536174  0.76364561  0.00631043  1
  H+  H236  1  0.65112168  0.37330530  0.84194195  1
  H+  H237  1  0.77192410  0.37476696  0.31942437  1
  H+  H238  1  0.38994845  0.35831042  0.49622374  1
  H+  H239  1  0.52265507  0.14142609  0.82098715  1
  H+  H240  1  0.76985531  0.40494921  0.48522233  1
  H+  H241  1  0.12462334  0.59544714  0.16213156  1
  H+  H242  1  0.22238211  0.58655008  -0.01464546  1
  H+  H243  1  0.20818247  0.37556984  0.84762640  1
  H+  H244  1  0.09789635  0.71838756  0.17034680  1
  H+  H245  1  0.63543103  0.36854241  0.64795972  1
  H+  H246  1  0.31741792  0.14920270  0.06217169  1
  H+  H247  1  0.88861926  0.86331214  0.50836071  1
  H+  H248  1  0.49844178  0.12973906  0.18025467  1
  H+  H249  1  0.16264784  0.36856957  0.49812181  1
  H+  H250  1  0.62744430  0.48737108  0.66908069  1
  H+  H251  1  0.84236516  0.63012585  0.54539870  1
  H+  H252  1  0.77519000  0.13395572  0.49176739  1
  H+  H253  1  0.53947328  0.20477618  -0.05770288  1
  H+  H254  1  0.02756055  0.13954523  0.15529841  1
  H+  H255  1  0.47512787  0.61674444  0.16981542  1
  H+  H256  1  0.12921278  0.52184656  0.31489396  1
  H+  H257  1  0.39889172  0.28916358  0.66849552  1
  H+  H258  1  0.63907603  0.86693463  0.83282611  1
  H+  H259  1  0.05793612  0.42066566  0.74525491  1
  H+  H260  1  0.85840925  -0.02781132  0.49276158  1
  H+  H261  1  0.34451530  0.70968505  -0.00135388  1
  H+  H262  1  0.09720741  0.95758972  -0.01441248  1
  H+  H263  1  0.59224885  0.90365672  0.43492296  1
  H+  H264  1  0.68538546  0.57903460  0.99665067  1
  H+  H265  1  0.64307553  0.12746343  0.65666020  1
  H+  H266  1  0.66610829  0.29416536  1.00318828  1
  H+  H267  1  0.78017091  0.90089921  0.67732728  1
  H+  H268  1  0.86575199  0.62853236  0.68419708  1
  H+  H269  1  0.82863543  0.68616602  -0.00195842  1
  H+  H270  1  0.13114754  0.36373182  0.32604747  1
  H+  H271  1  0.73844168  0.37075367  0.84259576  1
  H+  H272  1  0.10178900  0.22199501  0.33532809  1
  H+  H273  1  0.72024905  0.09488264  0.16500378  1
  H+  H274  1  0.40115620  0.87512450  0.18173029  1
  H+  H275  1  0.37731741  0.51237032  0.84812679  1
  H+  H276  1  0.12187969  0.51119376  0.82980826  1
  H+  H277  1  0.84699248  0.72038292  0.54074220  1
  H+  H278  1  0.86232284  0.50336379  0.67153759  1
  H+  H279  1  0.37200428  0.03223878  0.50305784  1
  H+  H280  1  0.64530542  0.83611846  0.49973769  1
  H+  H281  1  0.27703761  0.14428740  0.66528283  1
  H+  H282  1  0.15060303  0.22870045  0.01395651  1
  H+  H283  1  0.14049176  0.87801843  0.66555173  1
  H+  H284  1  0.84830094  0.12557497  0.33935714  1
  H+  H285  1  0.35835920  0.97983299  0.67209168  1
  H+  H286  1  0.95193276  0.85008960  0.90006511  1
  H+  H287  1  0.10383843  0.87495974  0.32776997  1
  H+  H288  1  0.46247443  0.42193219  0.03778692  1
  H+  H289  1  0.33106327  0.16640143  0.72687730  1
  H+  H290  1  0.61165051  0.34366118  0.33151365  1
  H+  H291  1  0.66908640  0.83044878  0.23898453  1
  H+  H292  1  0.12394770  0.50827272  0.64445083  1
  H+  H293  1  0.15766440  0.08010150  0.23058990  1
  H+  H294  1  0.92958032  0.35672439  0.94219410  1
  H+  H295  1  0.14578891  0.82124761  0.61343499  1
  H+  H296  1  0.64937867  0.32471085  0.27086609  1
  H+  H297  1  0.58793900  0.66702276  0.76652932  1
  H+  H298  1  0.68781915  0.34836449  0.93430227  1
  H+  H299  1  0.36071674  0.37837240  0.84961533  1
  H+  H300  1  0.83466346  0.93856586  0.73880799  1
  H+  H301  1  0.15191894  0.05194409  0.92903822  1
  H+  H302  1  0.87833496  0.84540804  0.17497289  1
  H+  H303  1  0.21151818  0.34075607  0.60217089  1
  H+  H304  1  0.90087132  0.33749896  0.56134152  1
  H+  H305  1  0.57747709  0.90535736  0.70699180  1
  H+  H306  1  0.10046801  0.16806222  0.07927518  1
  H+  H307  1  0.13709196  0.81304885  0.26689659  1
  H+  H308  1  0.29896553  0.90168923  0.16872487  1
  H+  H309  1  0.85311134  0.43368816  0.77399232  1
  H+  H310  1  0.08181785  0.90985857  0.42952503  1
  H+  H311  1  0.09699999  0.67522754  0.41511582  1
  H+  H312  1  1.04796671  0.14359357  1.00961320  1
  H+  H313  1  0.90984224  0.59267360  0.27678873  1
  H+  H314  1  0.16743132  0.07899196  0.55945544  1
  H+  H315  1  0.59417853  0.54343677  0.48380943  1
  H+  H316  1  0.27036286  0.13186175  0.82696645  1
  H+  H317  1  0.91417535  0.31073794  0.25474067  1
  H+  H318  1  0.39239398  0.87479402  0.84213989  1
  H+  H319  1  0.32149656  0.64775918  0.09354159  1
  H+  H320  1  0.39662399  0.06613488  0.92747292  1
  H+  H321  1  0.31929122  0.65954411  0.39299656  1
  H+  H322  1  0.65616586  0.34169705  0.55083457  1
  H+  H323  1  0.77549085  0.36026895  0.71698254  1
  H+  H324  1  0.64743477  0.57593373  0.93074858  1
  H+  H325  1  0.41365102  0.58873276  0.26258832  1
  H+  H326  1  0.38193869  0.61111079  0.16594782  1
  H+  H327  1  1.00050684  0.59260318  0.69085564  1
  H+  H328  1  0.66595762  0.84661188  0.93487617  1
  H+  H329  1  0.92975028  0.59462176  0.94150384  1
  H+  H330  1  0.13594456  0.76435746  -0.00232472  1
  H+  H331  1  0.72613047  0.62081098  0.59753031  1
  H+  H332  1  0.34607250  0.91864021  0.10497143  1
  H+  H333  1  0.22374152  0.32343041  0.94092052  1
  H+  H334  1  0.61290442  0.88145457  0.33946566  1
  H+  H335  1  0.15448770  0.54688138  0.92545096  1
  H+  H336  1  0.47155479  0.10974154  0.27694946  1
  H+  H337  1  0.57294463  0.65400918  0.39713110  1
  H+  H338  1  0.26797820  0.72320077  0.78612700  1
  H+  H339  1  0.56857608  0.17470883  0.42048059  1
  H+  H340  1  0.08669341  0.83082310  0.52320267  1
  H+  H341  1  0.58227210  0.18076676  0.71982021  1
  H+  H342  1  0.16405703  0.32848516  0.23469652  1
  H+  H343  1  0.78453865  0.04535498  0.10063724  1
  H+  H344  1  0.67604582  0.07318900  0.56462289  1
  H+  H345  1  0.57646466  0.41603720  0.39298976  1
  H+  H346  1  0.32989557  0.16967270  0.39379487  1
  H+  H347  1  0.58821221  0.67923662  0.09897422  1
  H+  H348  1  0.13235280  0.61199722  0.31390093  1
  H+  H349  1  0.06924664  0.42442916  0.38753963  1
  H+  H350  1  0.60105947  0.42842506  0.76414635  1
  H+  H351  1  0.37165580  0.24477575  0.49503483  1
  H+  H352  1  0.61149250  0.69346254  0.49136906  1
  H+  H353  1  0.15500919  0.56513681  0.21899178  1
  H+  H354  1  0.83172223  0.91787187  0.39958453  1
  H+  H355  1  0.06157809  0.13578755  0.42306809  1
  H+  H356  1  0.82491651  0.16367274  0.39752640  1
  H+  H357  1  0.41227104  0.57996088  0.57203043  1
  H+  H358  1  0.34048907  0.42685464  0.39248187  1
  H+  H359  1  0.73963542  0.10332693  0.91407864  1
  H+  H360  1  0.84170399  0.67340127  0.09801007  1
  H+  H361  1  0.61975774  0.21071789  0.08244625  1
  H+  H362  1  0.02365538  0.04879406  0.71106513  1
  H+  H363  1  0.84876930  0.16001592  0.06026504  1
  H+  H364  1  0.30742756  0.64783282  0.73018566  1
  H+  H365  1  0.90235911  0.07931489  0.26426808  1
  H+  H366  1  0.84911220  0.18834271  0.72322992  1
  H+  H367  1  0.89244385  0.62317800  0.84893755  1
  H+  H368  1  0.94875818  0.09974022  0.94001509  1
  H+  H369  1  0.38422647  0.48265546  1.01945066  1
  H+  H370  1  0.09213956  0.59873480  0.68159930  1
  H+  H371  1  0.67345529  0.60064803  0.26230171  1
  H+  H372  1  0.16899954  0.30008190  0.59832698  1
  H+  H373  1  0.41830534  0.57901579  0.93998147  1
  H+  H374  1  0.56709973  0.89588509  0.07955110  1
  H+  H375  1  0.14359971  0.02825892  0.65447063  1
  H+  H376  1  0.71595192  0.10670498  0.32708920  1
  H+  H377  1  0.60894508  0.96913393  0.33999162  1
  H+  H378  1  0.89623024  0.81937464  0.27118277  1
  H+  H379  1  0.08870840  0.15991715  0.77146975  1
  H+  H380  1  0.90434267  0.56852097  0.61564163  1
  H+  H381  1  0.43502016  0.32749505  0.90844694  1
  H+  H382  1  0.69837212  0.10105237  0.90346171  1
  H+  H383  1  0.09252357  0.67405337  0.07158914  1
  O2-  O384  1  0.08822240  0.16121882  0.14362698  1
  O2-  O385  1  0.06647358  0.13208477  0.46802926  1
  O2-  O386  1  0.10077415  0.17257515  0.81583264  1
  O2-  O387  1  0.07766054  0.39588028  0.13218783  1
  O2-  O388  1  0.06085409  0.43390339  0.46612161  1
  O2-  O389  1  0.06829392  0.41546455  0.78944323  1
  O2-  O390  1  0.07317535  0.66071289  0.15332475  1
  O2-  O391  1  0.12661189  0.69942170  0.46213249  1
  O2-  O392  1  0.08564064  0.66107012  0.82097291  1
  O2-  O393  1  0.06064624  0.89287861  0.20282688  1
  O2-  O394  1  0.07883422  0.91026214  0.47374997  1
  O2-  O395  1  0.09439298  0.92097680  0.80950177  1
  O2-  O396  1  0.36631072  0.18200034  0.13010077  1
  O2-  O397  1  0.33242477  0.17092877  0.48103447  1
  O2-  O398  1  0.33016048  0.16234742  0.80873586  1
  O2-  O399  1  0.33683844  0.41890325  0.15344104  1
  O2-  O400  1  0.35527998  0.42355862  0.47029418  1
  O2-  O401  1  0.32283002  0.40067993  0.83251287  1
  O2-  O402  1  0.32376915  0.64676376  0.13843579  1
  O2-  O403  1  0.32185865  0.65400318  0.47509505  1
  O2-  O404  1  0.29338785  0.69189978  0.80506685  1
  O2-  O405  1  0.35588373  0.92518899  0.15075810  1
  O2-  O406  1  0.31322028  0.93801518  0.47708886  1
  O2-  O407  1  0.33424416  0.91895310  0.81270369  1
  O2-  O408  1  0.59981331  0.18580667  0.15503950  1
  O2-  O409  1  0.57219971  0.18877681  0.46416594  1
  O2-  O410  1  0.58096483  0.17301685  0.80216712  1
  O2-  O411  1  0.57999284  0.43557907  0.14774337  1
  O2-  O412  1  0.57544995  0.42555066  0.47630179  1
  O2-  O413  1  0.60221833  0.42800774  0.81026297  1
  O2-  O414  1  0.58959463  0.67212146  0.14414091  1
  O2-  O415  1  0.57192447  0.63522496  0.47432225  1
  O2-  O416  1  0.58866236  0.66895322  0.81220303  1
  O2-  O417  1  0.58134196  0.91078972  0.15906599  1
  O2-  O418  1  0.60558547  0.90193021  0.47882533  1
  O2-  O419  1  0.57739354  0.90453519  0.79291545  1
  O2-  O420  1  0.79673570  0.10311241  0.11154748  1
  O2-  O421  1  0.83485820  0.16798620  0.47380384  1
  O2-  O422  1  0.84404379  0.17654708  0.80636265  1
  O2-  O423  1  0.83144794  0.42184913  0.14977747  1
  O2-  O424  1  0.83265915  0.43593317  0.47825899  1
  O2-  O425  1  0.84682108  0.42846265  0.81858056  1
  O2-  O426  1  0.82485720  0.65975901  0.14175830  1
  O2-  O427  1  0.80969995  0.65995532  0.55353483  1
  O2-  O428  1  0.84433440  0.67823423  0.82143653  1
  O2-  O429  1  0.83426739  0.90843226  0.14983929  1
  O2-  O430  1  0.83601977  0.91344998  0.47533983  1
  O2-  O431  1  0.84576483  0.93199201  0.82261828  1
  O2-  O432  1  0.14470318  0.06836833  0.18629382  1
  O2-  O433  1  0.16943582  0.07623908  0.51383930  1
  O2-  O434  1  0.17230385  0.07714933  0.85547260  1
  O2-  O435  1  0.16784270  0.32895385  0.18905343  1
  O2-  O436  1  0.22248744  0.27109798  0.46580876  1
  O2-  O437  1  0.23562791  0.34107627  0.85643797  1
  O2-  O438  1  0.15169832  0.56101180  0.17364738  1
  O2-  O439  1  0.16222814  0.58815202  0.51261290  1
  O2-  O440  1  0.14939649  0.56419611  0.85552768  1
  O2-  O441  1  0.10260924  0.84084475  0.18841129  1
  O2-  O442  1  0.08520259  0.78386224  0.54725144  1
  O2-  O443  1  0.16821312  0.82991843  0.85286883  1
  O2-  O444  1  0.44070382  0.09843932  0.20045956  1
  O2-  O445  1  0.40711345  0.09413851  0.51779111  1
  O2-  O446  1  0.41524853  0.08153484  0.85250154  1
  O2-  O447  1  0.42994780  0.34538831  0.19080968  1
  O2-  O448  1  0.41363771  0.32095296  0.51035572  1
  O2-  O449  1  0.44452771  0.37179429  0.87443810  1
  O2-  O450  1  0.41551037  0.58506654  0.18531919  1
  O2-  O451  1  0.41126346  0.57664154  0.52654911  1
  O2-  O452  1  0.41385835  0.57429514  0.85893621  1
  O2-  O453  1  0.42974253  0.84397079  0.20011249  1
  O2-  O454  1  0.48974824  0.88374745  0.56679566  1
  O2-  O455  1  0.42043860  0.84196260  0.85728834  1
  O2-  O456  1  0.66456445  0.07839870  0.18583931  1
  O2-  O457  1  0.67959447  0.07154286  0.52013438  1
  O2-  O458  1  0.66552458  0.08166575  0.78548675  1
  O2-  O459  1  0.66762008  0.34748604  0.19294108  1
  O2-  O460  1  0.65563584  0.34846781  0.50557019  1
  O2-  O461  1  0.67876104  0.34151283  0.85929286  1
  O2-  O462  1  0.66631551  0.58720108  0.17323967  1
  O2-  O463  1  0.61636544  0.51010903  0.50588494  1
  O2-  O464  1  0.67008622  0.58874491  0.85883996  1
  O2-  O465  1  0.66842085  0.83253282  0.19307605  1
  O2-  O466  1  0.67391354  0.80406482  0.51468800  1
  O2-  O467  1  0.67009001  0.84191013  0.85496641  1
  O2-  O468  1  0.92570308  0.12803526  0.18443929  1
  O2-  O469  1  0.91063987  0.07936858  0.51607170  1
  O2-  O470  1  0.93043285  0.09716776  0.86264886  1
  O2-  O471  1  0.91326742  0.32149561  0.17226856  1
  O2-  O472  1  0.89890958  0.33259396  0.51580009  1
  O2-  O473  1  0.92108158  0.33884171  0.85768393  1
  O2-  O474  1  0.91164511  0.58409948  0.19653810  1
  O2-  O475  1  0.90598606  0.57843146  0.53884352  1
  O2-  O476  1  0.92269688  0.59321630  0.86527148  1
  O2-  O477  1  0.89781767  0.80839164  0.19481644  1
  O2-  O478  1  0.91669983  0.83265175  0.52622964  1
  O2-  O479  1  0.93545725  0.84945728  0.85607550  1
  O2-  O480  1  0.16386869  0.08482123  0.30950563  1
  O2-  O481  1  0.17340314  0.08851854  0.63605996  1
  O2-  O482  1  0.14018491  0.03785731  0.97354155  1
  O2-  O483  1  0.15987651  0.33097711  0.31279764  1
  O2-  O484  1  0.16127053  0.35727869  0.72223651  1
  O2-  O485  1  0.21517991  0.32148388  0.98542791  1
  O2-  O486  1  0.16255797  0.58189751  0.29820950  1
  O2-  O487  1  0.15439483  0.57260461  0.63237200  1
  O2-  O488  1  0.16173023  0.54194331  0.97118842  1
  O2-  O489  1  0.14795261  0.81225181  0.31063322  1
  O2-  O490  1  0.16955888  0.84527982  0.65440436  1
  O2-  O491  1  0.16141419  0.82476763  0.97819108  1
  O2-  O492  1  0.47565891  0.10893626  0.32251669  1
  O2-  O493  1  0.41432956  0.08723140  0.63869447  1
  O2-  O494  1  0.38997995  0.06006904  0.97329072  1
  O2-  O495  1  0.40926491  0.33361404  0.30866442  1
  O2-  O496  1  0.43318071  0.35225078  0.66346203  1
  O2-  O497  1  0.43378917  0.27411762  0.96214885  1
  O2-  O498  1  0.41260544  0.58667693  0.30817672  1
  O2-  O499  1  0.41949869  0.58632924  0.65196669  1
  O2-  O500  1  0.41725038  0.58219830  0.98506024  1
  O2-  O501  1  0.42156927  0.83167930  0.31243667  1
  O2-  O502  1  0.37477761  0.80821849  0.66230031  1
  O2-  O503  1  0.40330889  0.82009844  0.98298861  1
  O2-  O504  1  0.65752849  0.07219823  0.30820480  1
  O2-  O505  1  0.67385920  0.09390699  0.65340406  1
  O2-  O506  1  0.66961018  0.08108456  1.03122129  1
  O2-  O507  1  0.63901777  0.30963610  0.31470135  1
  O2-  O508  1  0.65955421  0.33537146  0.62805137  1
  O2-  O509  1  0.69319866  0.35449209  0.98038762  1
  O2-  O510  1  0.67813986  0.60468929  0.30662926  1
  O2-  O511  1  0.66878813  0.58755283  0.61974590  1
  O2-  O512  1  0.63326892  0.56940927  0.97612954  1
  O2-  O513  1  0.66331496  0.82941645  0.31489255  1
  O2-  O514  1  0.67975674  0.82963520  0.63808295  1
  O2-  O515  1  0.66652543  0.84405486  0.98032835  1
  O2-  O516  1  0.90502825  0.07747431  0.30901004  1
  O2-  O517  1  0.91816741  0.09619760  0.63978158  1
  O2-  O518  1  0.95585256  0.10251428  0.98547044  1
  O2-  O519  1  0.92005969  0.31475221  0.29951037  1
  O2-  O520  1  0.89927636  0.34104934  0.63924777  1
  O2-  O521  1  0.93141354  0.36763674  0.98641616  1
  O2-  O522  1  0.91128253  0.60460112  0.32115958  1
  O2-  O523  1  0.90047676  0.56579017  0.66114700  1
  O2-  O524  1  0.93246626  0.59346495  0.98708704  1
  O2-  O525  1  0.90249450  0.82749373  0.31655930  1
  O2-  O526  1  0.93480132  0.83749842  0.65011595  1
  O2-  O527  1  0.97662772  0.83951309  0.97216032  1
  O2-  O528  1  0.10728950  0.17002190  0.03093523  1
  O2-  O529  1  0.07169755  0.15972548  0.34634930  1
  O2-  O530  1  0.05064187  0.11014036  0.70189572  1
  O2-  O531  1  0.11689957  0.39719318  0.01146732  1
  O2-  O532  1  0.07683799  0.41900911  0.34313676  1
  O2-  O533  1  0.07527102  0.41407335  0.66677219  1
  O2-  O534  1  0.09869607  0.67521886  0.02683000  1
  O2-  O535  1  0.06481213  0.64164145  0.36122113  1
  O2-  O536  1  0.05407641  0.60379868  0.71199303  1
  O2-  O537  1  0.06199211  0.88706027  0.00076961  1
  O2-  O538  1  0.07528972  0.91020171  0.32128673  1
  O2-  O539  1  0.09070635  0.93665221  0.68583032  1
  O2-  O540  1  0.29948979  0.13487858  0.01833027  1
  O2-  O541  1  0.32814648  0.17616263  0.34958909  1
  O2-  O542  1  0.33680009  0.17286595  0.68202188  1
  O2-  O543  1  0.36811220  0.42458542  0.03577000  1
  O2-  O544  1  0.32860482  0.42098569  0.34776990  1
  O2-  O545  1  0.33363412  0.42516904  0.70440247  1
  O2-  O546  1  0.31477374  0.64777185  0.01081787  1
  O2-  O547  1  0.32422279  0.66642350  0.34803483  1
  O2-  O548  1  0.31577709  0.64758695  0.68586668  1
  O2-  O549  1  0.32761839  0.90625011  0.03059821  1
  O2-  O550  1  0.37943482  0.94705859  0.37072020  1
  O2-  O551  1  0.32569143  0.92219877  0.69116703  1
  O2-  O552  1  0.63284547  0.21600669  0.03763310  1
  O2-  O553  1  0.56790862  0.15332206  0.33716456  1
  O2-  O554  1  0.58372232  0.17590200  0.67487823  1
  O2-  O555  1  0.51708116  0.41947785  0.03540484  1
  O2-  O556  1  0.57277412  0.40030724  0.34982707  1
  O2-  O557  1  0.59841840  0.42984967  0.68827287  1
  O2-  O558  1  0.58195957  0.68110723  0.02127461  1
  O2-  O559  1  0.57700837  0.66560098  0.35232493  1
  O2-  O560  1  0.58860427  0.66593390  0.68735020  1
  O2-  O561  1  0.56571634  0.90228780  0.03456319  1
  O2-  O562  1  0.58010027  0.90883113  0.35599418  1
  O2-  O563  1  0.59536676  0.91907400  0.66377467  1
  O2-  O564  1  0.88551780  0.19645446  0.02280224  1
  O2-  O565  1  0.81989329  0.15858052  0.35181726  1
  O2-  O566  1  0.84150560  0.18589000  0.67845329  1
  O2-  O567  1  0.84026510  0.43391309  0.02429758  1
  O2-  O568  1  0.82760019  0.40539170  0.29894582  1
  O2-  O569  1  0.80913561  0.39731816  0.68365252  1
  O2-  O570  1  0.87795826  0.70113671  0.02411780  1
  O2-  O571  1  0.82778998  0.66754545  0.35630336  1
  O2-  O572  1  0.84379148  0.66742286  0.69956117  1
  O2-  O573  1  0.82831414  0.93920606  0.03551117  1
  O2-  O574  1  0.82788608  0.91708336  0.35371847  1
  O2-  O575  1  0.83349255  0.94861470  0.69477687  1
