# generated using pymatgen
data_H2O
_symmetry_space_group_name_H-M   'P 1'
_cell_length_a   17.99746709
_cell_length_b   17.99376808
_cell_length_c   22.00952284
_cell_angle_alpha   90.01225892
_cell_angle_beta   89.99734615
_cell_angle_gamma   119.98913787
_symmetry_Int_Tables_number   1
_chemical_formula_structural   H2O
_chemical_formula_sum   'H384 O192'
_cell_volume   6173.36960870
_cell_formula_units_Z   192
loop_
 _symmetry_equiv_pos_site_id
 _symmetry_equiv_pos_as_xyz
  1  'x, y, z'
loop_
 _atom_type_symbol
 _atom_type_oxidation_number
  H+  1.0
  O2-  -2.0
loop_
 _atom_site_type_symbol
 _atom_site_label
 _atom_site_symmetry_multiplicity
 _atom_site_fract_x
 _atom_site_fract_y
 _atom_site_fract_z
 _atom_site_occupancy
  H+  H0  1  0.61274100  0.38548854  0.66535936  1
  H+  H1  1  0.21622101  0.10549481  0.83021168  1
  H+  H2  1  0.65853868  0.75347855  0.51054913  1
  H+  H3  1  0.85958444  0.21330192  0.15946237  1
  H+  H4  1  0.46317844  0.60059037  0.17534370  1
  H+  H5  1  0.91622625  0.25020729  0.32030173  1
  H+  H6  1  0.84489211  0.24183345  0.94239990  1
  H+  H7  1  0.61985413  0.96948376  0.16163551  1
  H+  H8  1  0.27396667  0.13973214  0.37280661  1
  H+  H9  1  0.73699477  0.35571550  0.17351048  1
  H+  H10  1  0.76417191  0.86401130  1.01062871  1
  H+  H11  1  0.40027691  0.72401919  0.50401855  1
  H+  H12  1  0.62654025  0.61969739  0.67584506  1
  H+  H13  1  0.98854646  0.61353160  0.33507936  1
  H+  H14  1  0.12111324  0.34465698  0.15521112  1
  H+  H15  1  0.35171979  0.62716864  0.01237786  1
  H+  H16  1  0.88660253  0.75757409  0.64836326  1
  H+  H17  1  0.98525060  0.35715583  0.82802922  1
  H+  H18  1  0.47055767  0.34867709  0.64729463  1
  H+  H19  1  0.88975722  0.52524709  0.51030325  1
  H+  H20  1  0.11254703  0.63246082  0.82464594  1
  H+  H21  1  0.36730648  -0.00823126  0.17531091  1
  H+  H22  1  0.11200842  0.72382270  0.67124408  1
  H+  H23  1  0.77863291  0.38680943  0.66425696  1
  H+  H24  1  0.63607535  0.27534842  0.66090045  1
  H+  H25  1  0.97138383  0.10453874  0.33427839  1
  H+  H26  1  0.12985596  0.98814020  0.50339050  1
  H+  H27  1  0.97865329  0.61161288  0.66078374  1
  H+  H28  1  0.11920694  0.11704329  -0.00963359  1
  H+  H29  1  0.08965152  0.66518773  0.40493837  1
  H+  H30  1  0.18985395  0.29673758  0.91786381  1
  H+  H31  1  0.37576093  0.59763195  0.55660771  1
  H+  H32  1  0.62853683  0.62712226  1.01268386  1
  H+  H33  1  0.24399152  0.12133478  0.49488831  1
  H+  H34  1  0.71623988  0.62206058  0.17361957  1
  H+  H35  1  0.65865285  0.23140782  0.99624738  1
  H+  H36  1  0.24418067  0.87131592  0.17464486  1
  H+  H37  1  0.18464354  0.84395032  0.93693584  1
  H+  H38  1  0.62681505  0.73309170  0.36011813  1
  H+  H39  1  0.36363157  0.38702191  0.81427107  1
  H+  H40  1  0.12218855  0.90506690  0.00147963  1
  H+  H41  1  0.59768769  0.63009886  0.16616312  1
  H+  H42  1  0.39186508  0.85311128  1.00395203  1
  H+  H43  1  0.10015426  0.91131304  0.67851409  1
  H+  H44  1  0.36010385  0.88440278  0.84102174  1
  H+  H45  1  0.91428207  0.65559061  0.84916600  1
  H+  H46  1  0.62359728  0.49461205  0.02864391  1
  H+  H47  1  0.18068068  0.85872396  0.32912931  1
  H+  H48  1  0.15571855  0.82829671  0.60229576  1
  H+  H49  1  0.83526264  0.63209010  0.15972468  1
  H+  H50  1  0.84985548  0.50345895  0.81838112  1
  H+  H51  1  0.95962875  0.36728013  0.92106776  1
  H+  H52  1  0.88805718  0.34367651  0.82873095  1
  H+  H53  1  0.37727887  0.27534281  0.34349466  1
  H+  H54  1  0.32945266  0.69705443  0.81692638  1
  H+  H55  1  0.85468419  0.88699458  0.16813281  1
  H+  H56  1  0.86924535  0.38775360  0.66352863  1
  H+  H57  1  0.47017300  0.61923762  0.63975022  1
  H+  H58  1  0.10748836  0.13773717  0.81273134  1
  H+  H59  1  0.47687720  0.86233976  0.51094959  1
  H+  H60  1  0.72853864  0.88754578  0.51770411  1
  H+  H61  1  0.89867063  0.87044429  0.33955340  1
  H+  H62  1  0.72895823  0.11260702  0.33294316  1
  H+  H63  1  0.12953828  0.60436308  0.65849882  1
  H+  H64  1  0.88548754  0.63844088  0.49106908  1
  H+  H65  1  0.20834243  0.59074488  0.83461370  1
  H+  H66  1  0.41239915  0.82697180  0.56898842  1
  H+  H67  1  0.88159015  0.86697220  0.00245404  1
  H+  H68  1  0.47315651  0.35646653  0.82683568  1
  H+  H69  1  0.85693821  0.12327569  0.34426041  1
  H+  H70  1  0.51571617  0.12490469  0.82709160  1
  H+  H71  1  0.36310136  0.86799152  0.50218661  1
  H+  H72  1  0.87746071  0.09207586  -0.01152945  1
  H+  H73  1  0.77638507  0.63243163  0.68277756  1
  H+  H74  1  0.63127260  0.34661589  0.82955538  1
  H+  H75  1  0.07718432  0.11956530  0.48230568  1
  H+  H76  1  0.10712343  0.13110295  0.35027792  1
  H+  H77  1  0.65333024  0.58315836  0.76189202  1
  H+  H78  1  0.86745242  0.14754907  0.49220335  1
  H+  H79  1  0.62863735  0.12547730  0.16600366  1
  H+  H80  1  0.36275183  0.90688369  0.66230171  1
  H+  H81  1  0.46507764  0.86059561  0.65758800  1
  H+  H82  1  0.22265142  0.35440685  0.82573726  1
  H+  H83  1  0.86645275  0.88975809  0.82389726  1
  H+  H84  1  0.27006412  0.87251913  0.50186489  1
  H+  H85  1  0.22951519  0.62326162  0.99343085  1
  H+  H86  1  0.88351485  0.78173778  0.18621908  1
  H+  H87  1  0.21694060  0.86734341  0.65766987  1
  H+  H88  1  0.36058302  0.71943372  1.01650390  1
  H+  H89  1  0.62975008  0.76918040  0.18091613  1
  H+  H90  1  0.11745525  0.38176804  0.66305748  1
  H+  H91  1  0.46174117  0.35189780  0.49986145  1
  H+  H92  1  0.35196239  0.15077911  -0.00973853  1
  H+  H93  1  0.23388708  0.61380026  0.17615341  1
  H+  H94  1  0.47813841  0.38420413  -0.00982468  1
  H+  H95  1  0.88179704  1.01682777  0.18330614  1
  H+  H96  1  0.04492582  0.89088039  0.34765121  1
  H+  H97  1  0.87417767  0.28014012  0.50364003  1
  H+  H98  1  0.37394232  0.77286689  0.65673249  1
  H+  H99  1  0.36140740  0.63560190  0.16725991  1
  H+  H100  1  0.75938599  0.34107710  0.81344587  1
  H+  H101  1  0.38863727  0.90058254  0.81320299  1
  H+  H102  1  1.04158875  0.66237886  0.82843825  1
  H+  H103  1  0.61601553  0.24652028  0.32481456  1
  H+  H104  1  0.08613552  0.20269224  0.11225560  1
  H+  H105  1  0.52461339  0.88917214  0.34538348  1
  H+  H106  1  0.12610141  0.26184679  0.50156901  1
  H+  H107  1  0.11293752  1.01704443  0.20947099  1
  H+  H108  1  0.52141784  0.05771176  0.45389031  1
  H+  H109  1  0.35955830  0.47356846  0.81700239  1
  H+  H110  1  0.89129447  0.74228309  0.34569702  1
  H+  H111  1  0.76790677  0.63260577  0.00959883  1
  H+  H112  1  0.55628031  0.90114120  0.82572545  1
  H+  H113  1  0.93797019  0.64132740  0.19531873  1
  H+  H114  1  0.03679427  0.82110680  0.12353985  1
  H+  H115  1  0.59812819  0.64827449  0.81390076  1
  H+  H116  1  0.37043096  0.03062585  0.83020184  1
  H+  H117  1  0.88519958  0.10536996  0.18409337  1
  H+  H118  1  0.09181718  0.67255158  0.06486590  1
  H+  H119  1  0.04017561  0.90237729  0.50749640  1
  H+  H120  1  0.38722993  0.19886496  0.65659938  1
  H+  H121  1  0.87433952  0.47531881  0.16414901  1
  H+  H122  1  0.83937199  0.66708973  0.77187958  1
  H+  H123  1  0.63609944  0.28878733  0.50274863  1
  H+  H124  1  0.74028761  0.86970267  0.83425340  1
  H+  H125  1  0.23323758  0.58972012  0.51847254  1
  H+  H126  1  0.11897476  0.37290575  0.49565151  1
  H+  H127  1  0.36030092  0.22614491  0.81617997  1
  H+  H128  1  0.36629112  0.47135934  0.65625139  1
  H+  H129  1  0.60745102  0.74025226  0.82340763  1
  H+  H130  1  0.22297788  0.87318384  0.83272387  1
  H+  H131  1  0.63941695  0.11353517  0.32866799  1
  H+  H132  1  0.79810368  0.87550398  0.66388262  1
  H+  H133  1  0.34686250  0.61782834  0.82167027  1
  H+  H134  1  0.85444980  0.72754059  0.82970693  1
  H+  H135  1  0.15224148  0.48959338  1.00342882  1
  H+  H136  1  0.60557497  0.73924215  0.66569018  1
  H+  H137  1  0.63239396  0.52724940  0.54160046  1
  H+  H138  1  0.14428671  0.86271962  0.50618511  1
  H+  H139  1  0.64808832  0.69750368  0.45100605  1
  H+  H140  1  0.03882767  0.43756730  0.11872269  1
  H+  H141  1  0.46105766  0.77018055  0.85408041  1
  H+  H142  1  0.80387045  0.24289925  -0.05375897  1
  H+  H143  1  0.32115207  0.49383188  0.47739186  1
  H+  H144  1  0.15357318  0.02426894  0.35085543  1
  H+  H145  1  0.57409451  0.16151893  0.39429471  1
  H+  H146  1  0.91364152  1.02143007  0.65018291  1
  H+  H147  1  0.44549349  0.13514524  0.20002317  1
  H+  H148  1  0.89079617  1.04049309  0.50174087  1
  H+  H149  1  1.00564477  0.61780264  0.17278830  1
  H+  H150  1  0.76673207  0.41088295  0.00167410  1
  H+  H151  1  0.77753504  0.88454658  0.34360974  1
  H+  H152  1  0.37623301  0.99407619  0.36073082  1
  H+  H153  1  0.97168168  0.86799830  0.17801175  1
  H+  H154  1  0.90602196  0.33742801  0.56389958  1
  H+  H155  1  0.88089404  0.60450925  0.98384235  1
  H+  H156  1  0.63049973  0.75192757  -0.02432013  1
  H+  H157  1  0.12182422  0.63272732  0.49712345  1
  H+  H158  1  0.50187548  0.10095462  0.01373024  1
  H+  H159  1  0.38002015  0.34225101  0.64822797  1
  H+  H160  1  0.63919555  0.02391509  0.51193643  1
  H+  H161  1  0.14664017  0.52376472  0.16737805  1
  H+  H162  1  0.61155493  0.06842273  -0.00515231  1
  H+  H163  1  0.46331899  0.60790376  0.98869109  1
  H+  H164  1  0.39256963  0.07775491  0.92512867  1
  H+  H165  1  0.40182093  0.57972019  0.89703995  1
  H+  H166  1  0.62068580  0.34535312  0.31587150  1
  H+  H167  1  0.62139424  1.02088184  0.65855101  1
  H+  H168  1  0.26388915  0.62977294  0.66255226  1
  H+  H169  1  0.61816813  0.64151317  0.35944188  1
  H+  H170  1  0.63494193  0.86064373  0.17809425  1
  H+  H171  1  0.87808406  0.49544981  0.83934771  1
  H+  H172  1  -0.02034229  0.36288367  0.65519794  1
  H+  H173  1  0.62001082  0.51413184  0.32652639  1
  H+  H174  1  0.13128477  0.51379660  0.65861552  1
  H+  H175  1  1.13333921  0.72826771  0.15929910  1
  H+  H176  1  0.73223378  0.10459134  0.17935789  1
  H+  H177  1  0.58157431  0.91717786  0.44374814  1
  H+  H178  1  0.11467702  0.99125991  0.00277448  1
  H+  H179  1  1.00753723  0.13352667  1.01015393  1
  H+  H180  1  0.97565795  0.44138721  0.96656284  1
  H+  H181  1  0.90857792  0.85365891  0.64604583  1
  H+  H182  1  0.76397072  0.14954221  0.67644509  1
  H+  H183  1  0.38377869  0.96758871  0.01591527  1
  H+  H184  1  0.38182224  0.61109850  0.33072425  1
  H+  H185  1  0.66621177  0.58664309  0.62633204  1
  H+  H186  1  0.56952263  0.43128044  0.08223391  1
  H+  H187  1  0.62067266  0.37546563  0.16868575  1
  H+  H188  1  0.44401404  0.33100448  0.17426350  1
  H+  H189  1  0.66656643  0.62739651  0.53380227  1
  H+  H190  1  0.13243607  0.26477464  0.82643262  1
  H+  H191  1  0.89005930  0.52094671  0.65809250  1
  H+  H192  1  0.89236590  0.76599223  0.01385809  1
  H+  H193  1  0.78121783  0.14019809  0.82812350  1
  H+  H194  1  0.07119202  0.40236738  -0.00512603  1
  H+  H195  1  0.35490540  0.24640980  0.18490669  1
  H+  H196  1  0.93236377  0.31348622  0.22919329  1
  H+  H197  1  0.88507344  0.27792472  0.65882148  1
  H+  H198  1  0.63007895  0.99238948  -0.01067671  1
  H+  H199  1  0.61184512  -0.02126678  0.34553542  1
  H+  H200  1  0.37532873  0.51987766  0.99417756  1
  H+  H201  1  0.10592504  0.24211770  0.31529548  1
  H+  H202  1  0.63675636  0.99363670  0.81833738  1
  H+  H203  1  0.46515526  0.61912928  0.83898511  1
  H+  H204  1  0.63755883  0.11168099  0.84005963  1
  H+  H205  1  0.54113475  0.55670066  0.03300544  1
  H+  H206  1  0.51755173  0.14896148  0.67669993  1
  H+  H207  1  0.13232635  0.60601962  0.32810105  1
  H+  H208  1  0.64927967  0.26256957  0.16883510  1
  H+  H209  1  -0.02005878  0.13142676  0.49669103  1
  H+  H210  1  0.37949003  0.61221363  0.64832240  1
  H+  H211  1  0.04605886  0.14969449  0.66976531  1
  H+  H212  1  0.61258202  0.39894990  0.49980648  1
  H+  H213  1  0.87287710  0.38591811  0.16193509  1
  H+  H214  1  0.15045670  0.86151713  0.17262077  1
  H+  H215  1  0.97686714  0.33956135  0.16546568  1
  H+  H216  1  0.89149604  0.11259692  0.83347634  1
  H+  H217  1  0.31965020  0.02383570  0.97228332  1
  H+  H218  1  0.69345601  0.86992277  0.67902733  1
  H+  H219  1  0.98191072  0.11615707  0.82934049  1
  H+  H220  1  0.38728170  0.86611148  0.19085468  1
  H+  H221  1  0.34295605  0.37221537  0.16428120  1
  H+  H222  1  0.23130417  0.32602600  -0.01836902  1
  H+  H223  1  0.86368347  0.62858221  0.67551232  1
  H+  H224  1  0.77789033  0.75785084  0.51245742  1
  H+  H225  1  0.25540780  0.37233743  0.15479452  1
  H+  H226  1  0.36642189  0.23292251  0.47178579  1
  H+  H227  1  0.38630227  0.12005715  0.34691144  1
  H+  H228  1  0.76332485  0.88146249  0.16736843  1
  H+  H229  1  0.51006737  0.12591829  0.49187914  1
  H+  H230  1  0.86186041  0.79353119  0.55966329  1
  H+  H231  1  0.10985184  0.46270076  0.82291906  1
  H+  H232  1  0.11628595  0.37591607  0.82039088  1
  H+  H233  1  0.59713132  0.87711805  0.66169293  1
  H+  H234  1  0.02858357  0.64492629  0.00751693  1
  H+  H235  1  0.33785828  0.38463940  0.33933404  1
  H+  H236  1  0.63558500  0.24713968  0.01630750  1
  H+  H237  1  0.12969205  0.63624422  0.15839664  1
  H+  H238  1  0.93369947  0.08742319  0.59603666  1
  H+  H239  1  0.84814003  0.88843106  0.49567730  1
  H+  H240  1  0.61357160  0.86412379  1.00472499  1
  H+  H241  1  0.03673228  0.38486575  0.34719189  1
  H+  H242  1  0.98030070  0.88052460  0.99396980  1
  H+  H243  1  0.62478441  0.37274776  0.97999354  1
  H+  H244  1  0.15739526  0.14482812  0.67368487  1
  H+  H245  1  0.64179304  0.86605079  0.33352030  1
  H+  H246  1  0.20408313  0.09915755  0.20084770  1
  H+  H247  1  0.77532167  0.14111418  0.49332097  1
  H+  H248  1  0.88528454  0.52022254  -0.00313360  1
  H+  H249  1  0.36494305  0.99946384  0.66002096  1
  H+  H250  1  0.25195286  0.98093681  0.77153738  1
  H+  H251  1  0.87034717  -0.01895541  0.81985345  1
  H+  H252  1  0.22329674  0.35988663  0.64740960  1
  H+  H253  1  0.08670296  0.66537223  0.73070002  1
  H+  H254  1  1.03190774  0.63155695  0.49882069  1
  H+  H255  1  0.33959541  0.11279325  0.19104588  1
  H+  H256  1  0.08874504  0.17898136  0.75094656  1
  H+  H257  1  0.12149879  0.72109556  0.34250683  1
  H+  H258  1  0.61250064  0.89147543  0.50539777  1
  H+  H259  1  0.56777166  0.40434352  0.20864917  1
  H+  H260  1  0.63662048  0.10983483  0.50666673  1
  H+  H261  1  0.96792247  0.85432144  0.84461897  1
  H+  H262  1  0.09917818  0.95538837  0.82803315  1
  H+  H263  1  0.87365776  0.22549150  0.82794938  1
  H+  H264  1  0.35765698  0.50366557  0.32400354  1
  H+  H265  1  0.11606348  0.48341578  0.34744689  1
  H+  H266  1  0.12361400  0.47103291  0.49900957  1
  H+  H267  1  0.50835136  0.36853100  0.33410074  1
  H+  H268  1  0.54068598  0.12386189  0.17026671  1
  H+  H269  1  0.60575517  0.46202388  0.80990528  1
  H+  H270  1  0.38183165  0.77506648  0.18924590  1
  H+  H271  1  0.51069206  0.13680521  0.33694339  1
  H+  H272  1  0.36734654  0.39958156  1.00426002  1
  H+  H273  1  0.13984566  0.62142116  0.99011128  1
  H+  H274  1  0.52621385  0.86662092  1.01391276  1
  H+  H275  1  0.13922152  0.76950135  0.50536019  1
  H+  H276  1  0.38694214  0.12280831  0.83679647  1
  H+  H277  1  0.39081856  0.29554660  0.97827788  1
  H+  H278  1  0.12031836  0.00643102  0.68527212  1
  H+  H279  1  0.86252325  0.48678728  0.34927886  1
  H+  H280  1  0.17297283  0.13701227  0.52225554  1
  H+  H281  1  0.88971353  0.65013829  0.33944165  1
  H+  H282  1  0.37199580  0.51102478  0.17393546  1
  H+  H283  1  0.60194105  0.13794607  0.67445708  1
  H+  H284  1  0.35818868  0.71494861  0.35079846  1
  H+  H285  1  0.39827298  0.13587067  0.50479459  1
  H+  H286  1  0.83829202  0.38985742  0.35053206  1
  H+  H287  1  0.20975126  0.12823859  0.97733577  1
  H+  H288  1  0.09966602  0.91447778  0.40773185  1
  H+  H289  1  0.57761564  0.91632809  0.72141617  1
  H+  H290  1  0.83638800  0.69020804  0.10619893  1
  H+  H291  1  0.66955257  0.82477889  0.92443250  1
  H+  H292  1  0.15245518  0.77380238  0.84136781  1
  H+  H293  1  0.28652051  0.78681701  0.31816051  1
  H+  H294  1  0.56127047  0.67608677  0.72238328  1
  H+  H295  1  0.71769896  0.61809306  0.81589654  1
  H+  H296  1  0.09181811  0.41727872  0.43148891  1
  H+  H297  1  0.66651978  0.83242551  0.27394758  1
  H+  H298  1  0.86097404  0.67198179  0.41854413  1
  H+  H299  1  0.42673362  0.82121891  0.94739544  1
  H+  H300  1  0.10637066  0.42526222  0.08132581  1
  H+  H301  1  0.39658240  0.31801683  0.27677797  1
  H+  H302  1  0.57361242  0.38760958  0.38800694  1
  H+  H303  1  0.07918935  0.91067331  0.09334089  1
  H+  H304  1  0.30321798  0.42072265  0.39225594  1
  H+  H305  1  0.34308174  0.92028007  0.44227883  1
  H+  H306  1  0.40011874  0.08603248  0.27952848  1
  H+  H307  1  0.60056795  0.46884512  0.46068060  1
  H+  H308  1  0.62711866  0.25726071  0.84198710  1
  H+  H309  1  0.84647901  0.91257559  0.72686331  1
  H+  H310  1  0.33278178  0.66721398  0.10861877  1
  H+  H311  1  0.30691227  0.94463274  0.74272808  1
  H+  H312  1  0.37739080  0.67111866  0.40888537  1
  H+  H313  1  1.01223492  0.28832605  0.29386232  1
  H+  H314  1  0.65859864  0.08661126  0.60368232  1
  H+  H315  1  0.15306928  0.08077535  0.88682297  1
  H+  H316  1  0.39845820  0.57045967  0.26282876  1
  H+  H317  1  0.85414211  0.71516518  0.49031530  1
  H+  H318  1  0.39846506  0.30430383  0.55417196  1
  H+  H319  1  0.82244874  0.41955122  0.06203124  1
  H+  H320  1  0.71168840  0.58144878  0.95282718  1
  H+  H321  1  0.86529950  0.97501839  0.34396309  1
  H+  H322  1  0.17133508  0.34170957  0.30900325  1
  H+  H323  1  0.82976085  0.17722821  0.73154819  1
  H+  H324  1  0.19950642  0.11228270  0.62344209  1
  H+  H325  1  0.28684668  0.88837178  0.01276101  1
  H+  H326  1  0.81952350  0.89929392  0.07290480  1
  H+  H327  1  0.14893627  0.78856258  0.99683340  1
  H+  H328  1  0.07366654  0.16697901  0.40635155  1
  H+  H329  1  0.91072021  0.07389473  0.27413842  1
  H+  H330  1  0.66871166  0.85138950  0.57965888  1
  H+  H331  1  0.15961421  0.57347822  0.26909898  1
  H+  H332  1  0.32106233  0.19228682  0.04114326  1
  H+  H333  1  0.83346654  0.16648374  0.40013005  1
  H+  H334  1  0.10240449  0.86990894  0.84321400  1
  H+  H335  1  0.83052264  0.92494440  0.43597561  1
  H+  H336  1  0.32212281  0.65363893  0.72117289  1
  H+  H337  1  0.92467406  0.08926751  0.92684816  1
  H+  H338  1  0.59645139  0.91004361  0.10255721  1
  H+  H339  1  0.64918001  0.58075655  0.27296784  1
  H+  H340  1  0.17504787  0.08640704  0.29498143  1
  H+  H341  1  0.91936458  0.69553840  0.03898663  1
  H+  H342  1  0.72808486  0.37643167  0.50644260  1
  H+  H343  1  0.67146128  0.36460469  0.92162979  1
  H+  H344  1  0.60393594  0.47055597  0.67473495  1
  H+  H345  1  0.57382817  0.39665220  0.75514436  1
  H+  H346  1  0.92456762  0.58741687  0.56830465  1
  H+  H347  1  0.15856081  0.57462823  0.89764999  1
  H+  H348  1  0.29266948  0.12554997  0.12988365  1
  H+  H349  1  0.42184078  0.83150537  0.84376885  1
  H+  H350  1  0.15693413  0.32169537  0.56435724  1
  H+  H351  1  0.82143645  0.14198125  0.10578812  1
  H+  H352  1  0.65767324  0.88028425  0.83328766  1
  H+  H353  1  0.34243365  0.16139636  0.76034135  1
  H+  H354  1  0.16409947  0.57055611  0.56951710  1
  H+  H355  1  0.57705711  0.15924941  0.76845719  1
  H+  H356  1  0.83625262  0.18511677  0.01291484  1
  H+  H357  1  0.33835317  0.41668273  0.71742417  1
  H+  H358  1  0.74849793  0.09881562  1.01158963  1
  H+  H359  1  0.25598580  0.39420676  0.48493563  1
  H+  H360  1  0.63775852  0.52631994  0.17351076  1
  H+  H361  1  0.93430799  0.57939294  0.27379873  1
  H+  H362  1  0.13451522  0.26581341  0.66078641  1
  H+  H363  1  0.55320224  0.10490753  0.07279793  1
  H+  H364  1  0.18333417  0.82119301  0.26465532  1
  H+  H365  1  0.81984638  0.37507897  0.75431613  1
  H+  H366  1  0.08851437  0.40982747  0.72453045  1
  H+  H367  1  0.42814823  0.12329710  0.57263210  1
  H+  H368  1  0.56973937  0.65638585  0.10607323  1
  H+  H369  1  0.35127699  0.93329395  0.11416270  1
  H+  H370  1  0.82442215  0.42563881  0.44323987  1
  H+  H371  1  0.36065829  0.89528058  0.35655512  1
  H+  H372  1  0.94873687  0.62244262  0.90383326  1
  H+  H373  1  0.66412532  0.33298559  0.59982973  1
  H+  H374  1  0.92975799  0.84603878  0.27924087  1
  H+  H375  1  0.67031223  0.07558036  0.23866181  1
  H+  H376  1  0.66066477  0.31344038  0.25823061  1
  H+  H377  1  0.41728721  0.33995893  0.88670137  1
  H+  H378  1  0.66517957  0.07555375  0.89797192  1
  H+  H379  1  0.33310752  0.41927062  0.06698311  1
  H+  H380  1  0.90432656  0.83271362  0.90038859  1
  H+  H381  1  0.37050030  0.81402762  0.27893190  1
  H+  H382  1  0.13574561  0.29875353  0.21095056  1
  H+  H383  1  0.85067414  0.38696266  0.50162521  1
  O2-  O384  1  0.05526716  0.14472350  0.09378152  1
  O2-  O385  1  0.07318168  0.16966468  0.47107228  1
  O2-  O386  1  0.08019335  0.17134139  0.80024366  1
  O2-  O387  1  0.08430287  0.42423079  0.12650040  1
  O2-  O388  1  0.09354589  0.41172800  0.48014335  1
  O2-  O389  1  0.08571812  0.40578033  0.80283796  1
  O2-  O390  1  0.09973105  0.66806925  0.14364339  1
  O2-  O391  1  0.09243412  0.66403736  0.48318097  1
  O2-  O392  1  0.09679479  0.67415823  0.80770298  1
  O2-  O393  1  0.06588674  0.88169559  0.13457429  1
  O2-  O394  1  0.09752425  0.92646417  0.49016474  1
  O2-  O395  1  0.06456469  0.89212445  0.83065116  1
  O2-  O396  1  0.30361753  0.14308399  0.17224591  1
  O2-  O397  1  0.33698582  0.16872920  0.45293199  1
  O2-  O398  1  0.33359856  0.16415297  0.80453668  1
  O2-  O399  1  0.31903446  0.40675203  0.14709792  1
  O2-  O400  1  0.30837643  0.43698457  0.46281401  1
  O2-  O401  1  0.33324073  0.41633846  0.79774507  1
  O2-  O402  1  0.33405435  0.66939722  0.15408163  1
  O2-  O403  1  0.40567097  0.67546138  0.48599405  1
  O2-  O404  1  0.31040539  0.63978323  0.80124673  1
  O2-  O405  1  0.34519224  0.93188031  0.15886603  1
  O2-  O406  1  0.33393625  0.90291073  0.49027836  1
  O2-  O407  1  0.28733683  0.95616170  0.78314072  1
  O2-  O408  1  0.59571947  0.15452516  0.14923330  1
  O2-  O409  1  0.55282190  0.11870318  0.46402960  1
  O2-  O410  1  0.57687451  0.15370969  0.81404841  1
  O2-  O411  1  0.58556176  0.40478248  0.16663998  1
  O2-  O412  1  0.57447134  0.42406343  0.49132155  1
  O2-  O413  1  0.57694315  0.39981144  0.80107022  1
  O2-  O414  1  0.56633324  0.65915988  0.15076506  1
  O2-  O415  1  0.67131241  0.70930664  0.49441553  1
  O2-  O416  1  0.56622600  0.68002100  0.81013111  1
  O2-  O417  1  0.59357825  0.90941553  0.14750649  1
  O2-  O418  1  0.57918725  0.91947556  0.48880149  1
  O2-  O419  1  0.60951493  0.93270798  0.80222210  1
  O2-  O420  1  0.82705215  0.15062534  0.15088461  1
  O2-  O421  1  0.83358592  0.17435057  0.47522878  1
  O2-  O422  1  0.84007579  0.16550714  0.81135423  1
  O2-  O423  1  0.84083747  0.41544595  0.14973828  1
  O2-  O424  1  0.82262066  0.42321037  0.48882544  1
  O2-  O425  1  0.80849825  0.34206610  0.79262908  1
  O2-  O426  1  0.82227607  0.67752495  0.15104318  1
  O2-  O427  1  0.85300891  0.66315198  0.46910176  1
  O2-  O428  1  0.82834499  0.66587132  0.81660219  1
  O2-  O429  1  0.82276888  0.91286597  0.14954047  1
  O2-  O430  1  0.83153004  0.93046018  0.48148027  1
  O2-  O431  1  0.83754283  0.91962842  0.80523535  1
  O2-  O432  1  0.14853923  0.07588876  0.22321237  1
  O2-  O433  1  0.19262890  0.09532204  0.52210199  1
  O2-  O434  1  0.15525888  0.07385268  0.84235579  1
  O2-  O435  1  0.14647471  0.30927090  0.16620080  1
  O2-  O436  1  0.15664223  0.32351078  0.51775894  1
  O2-  O437  1  0.16458281  0.32580911  0.84406280  1
  O2-  O438  1  0.17065288  0.58115209  0.18667461  1
  O2-  O439  1  0.17159866  0.57036967  0.52372308  1
  O2-  O440  1  0.15026022  0.56658507  0.85260088  1
  O2-  O441  1  0.18175207  0.83271877  0.18662785  1
  O2-  O442  1  0.17308012  0.83051698  0.51975546  1
  O2-  O443  1  0.17798575  0.83187328  0.86085811  1
  O2-  O444  1  0.39233862  0.08408891  0.21187183  1
  O2-  O445  1  0.44282784  0.13195517  0.52794259  1
  O2-  O446  1  0.40912036  0.08458727  0.85278413  1
  O2-  O447  1  0.38955899  0.30966583  0.19581863  1
  O2-  O448  1  0.40137543  0.30903832  0.50870903  1
  O2-  O449  1  0.41269659  0.33075207  0.84191915  1
  O2-  O450  1  0.40246443  0.57093700  0.19065787  1
  O2-  O451  1  0.34302638  0.59849705  0.51898756  1
  O2-  O452  1  0.40355433  0.58315686  0.85155670  1
  O2-  O453  1  0.40371924  0.82873713  0.21302651  1
  O2-  O454  1  0.41469518  0.82421512  0.52283119  1
  O2-  O455  1  0.46042330  0.82090730  0.86915256  1
  O2-  O456  1  0.67031315  0.07614247  0.19329672  1
  O2-  O457  1  0.67039992  0.08582007  0.52474736  1
  O2-  O458  1  0.67235219  0.08501101  0.85316023  1
  O2-  O459  1  0.67496128  0.32199802  0.18638170  1
  O2-  O460  1  0.66390858  0.34667842  0.51946187  1
  O2-  O461  1  0.66041326  0.32008076  0.85166954  1
  O2-  O462  1  0.65608648  0.58490344  0.18773621  1
  O2-  O463  1  0.67542160  0.58406078  0.55651565  1
  O2-  O464  1  0.65434283  0.58660547  0.80652429  1
  O2-  O465  1  0.66348916  0.82862190  0.19636376  1
  O2-  O466  1  0.66855978  0.85297550  0.53280933  1
  O2-  O467  1  0.67904207  0.84256120  0.84994063  1
  O2-  O468  1  0.91232930  0.07450235  0.20239426  1
  O2-  O469  1  0.91925536  0.10122925  0.51541323  1
  O2-  O470  1  0.92257370  0.08261642  0.84789361  1
  O2-  O471  1  0.92084893  0.31996479  0.18498306  1
  O2-  O472  1  0.89612205  0.33928282  0.51942000  1
  O2-  O473  1  0.92904602  0.32964368  0.85037835  1
  O2-  O474  1  0.94488369  0.59132582  0.19010021  1
  O2-  O475  1  0.92750234  0.58721710  0.52242146  1
  O2-  O476  1  0.96657985  0.66065998  0.86835196  1
  O2-  O477  1  0.91598020  0.84242329  0.19956251  1
  O2-  O478  1  0.84220716  0.78705677  0.51519206  1
  O2-  O479  1  0.90447566  0.82944903  0.85554943  1
  O2-  O480  1  0.18193497  0.08688325  0.34066485  1
  O2-  O481  1  0.19213724  0.11403717  0.66711489  1
  O2-  O482  1  0.14811138  0.08667417  0.97234447  1
  O2-  O483  1  0.12048180  0.29474818  0.28941162  1
  O2-  O484  1  0.16166906  0.32924863  0.63680668  1
  O2-  O485  1  0.21238058  0.27896865  0.95252667  1
  O2-  O486  1  0.15987460  0.57323140  0.31400047  1
  O2-  O487  1  0.16049834  0.57502165  0.64257957  1
  O2-  O488  1  0.17133192  0.59308880  0.97420595  1
  O2-  O489  1  0.18930699  0.81474633  0.30917870  1
  O2-  O490  1  0.15570078  0.82927865  0.64719873  1
  O2-  O491  1  0.18453364  0.84908268  0.98257270  1
  O2-  O492  1  0.41340965  0.09035386  0.32645704  1
  O2-  O493  1  0.41890789  0.10761315  0.64853618  1
  O2-  O494  1  0.37796529  0.07262862  0.97038218  1
  O2-  O495  1  0.40695123  0.33068725  0.32106706  1
  O2-  O496  1  0.41044218  0.31242855  0.63287051  1
  O2-  O497  1  0.42413512  0.35723077  0.96655132  1
  O2-  O498  1  0.39720555  0.56723913  0.30909901  1
  O2-  O499  1  0.40916035  0.58623707  0.62572113  1
  O2-  O500  1  0.40312485  0.58045303  0.97574982  1
  O2-  O501  1  0.34754090  0.80465711  0.32296249  1
  O2-  O502  1  0.40418199  0.83333216  0.64173965  1
  O2-  O503  1  0.42049524  0.81966866  0.99198847  1
  O2-  O504  1  0.66745186  0.08023613  0.31768048  1
  O2-  O505  1  0.65028558  0.08337352  0.64858148  1
  O2-  O506  1  0.65330223  0.05396187  0.97623226  1
  O2-  O507  1  0.64973617  0.31137228  0.30400712  1
  O2-  O508  1  0.66772349  0.33576063  0.64486676  1
  O2-  O509  1  0.68031935  0.39875452  0.95982357  1
  O2-  O510  1  0.64599070  0.57545403  0.31750702  1
  O2-  O511  1  0.65718912  0.58583762  0.67251633  1
  O2-  O512  1  0.70787328  0.59458713  0.99533842  1
  O2-  O513  1  0.67213689  0.83621472  0.31934269  1
  O2-  O514  1  0.65103816  0.83461059  0.64877473  1
  O2-  O515  1  0.66174683  0.81387780  0.96973465  1
  O2-  O516  1  0.90959110  0.07393329  0.32063150  1
  O2-  O517  1  0.94364475  0.08282051  0.63972123  1
  O2-  O518  1  0.92492891  0.08588665  0.97217297  1
  O2-  O519  1  0.96369994  0.29962502  0.29765635  1
  O2-  O520  1  0.91919371  0.33792705  0.64095796  1
  O2-  O521  1  0.97879408  0.38909909  0.96357910  1
  O2-  O522  1  0.92801317  0.58469288  0.31788998  1
  O2-  O523  1  0.91860921  0.58267841  0.64425845  1
  O2-  O524  1  0.92143719  0.58358281  0.98299331  1
  O2-  O525  1  0.93385932  0.84485534  0.32424443  1
  O2-  O526  1  0.90968479  0.80844064  0.62127516  1
  O2-  O527  1  0.91849423  0.84172953  0.98409877  1
  O2-  O528  1  0.06854178  0.16531765  0.02896962  1
  O2-  O529  1  0.07309347  0.15955149  0.35758492  1
  O2-  O530  1  0.10311074  0.18859183  0.68835366  1
  O2-  O531  1  0.12778895  0.42916691  0.01657208  1
  O2-  O532  1  0.08977720  0.42561045  0.36891466  1
  O2-  O533  1  0.08800594  0.41384896  0.67919707  1
  O2-  O534  1  0.08996963  0.67810840  0.01982876  1
  O2-  O535  1  0.08483355  0.66199525  0.35962062  1
  O2-  O536  1  0.08355055  0.66251560  0.68511475  1
  O2-  O537  1  0.08851756  0.93026840  0.01846992  1
  O2-  O538  1  0.10482494  0.91522717  0.36288151  1
  O2-  O539  1  0.07639354  0.94573881  0.69426043  1
  O2-  O540  1  0.32721921  0.18896651  -0.00252271  1
  O2-  O541  1  0.33784027  0.17532818  0.38574545  1
  O2-  O542  1  0.37395812  0.14691403  0.68050529  1
  O2-  O543  1  0.33751930  0.42849914  0.02225327  1
  O2-  O544  1  0.30495375  0.41430638  0.34604155  1
  O2-  O545  1  0.33914443  0.41210848  0.67227841  1
  O2-  O546  1  0.32436585  0.65862958  0.03059431  1
  O2-  O547  1  0.36086066  0.66411835  0.36531370  1
  O2-  O548  1  0.32548360  0.66221576  0.67656137  1
  O2-  O549  1  0.34539109  0.90929357  0.03096814  1
  O2-  O550  1  0.35384538  0.93771076  0.38192574  1
  O2-  O551  1  0.33091818  0.93688598  0.67278989  1
  O2-  O552  1  0.52810194  0.07207302  0.03484632  1
  O2-  O553  1  0.57523130  0.16771364  0.34857976  1
  O2-  O554  1  0.57884561  0.17391455  0.69199566  1
  O2-  O555  1  0.56511514  0.45081204  0.04147083  1
  O2-  O556  1  0.57178595  0.39239074  0.34380549  1
  O2-  O557  1  0.57438810  0.40722280  0.68069874  1
  O2-  O558  1  0.57223420  0.61910016  0.02609109  1
  O2-  O559  1  0.60547267  0.67991195  0.38427668  1
  O2-  O560  1  0.57157129  0.67457341  0.67845904  1
  O2-  O561  1  0.58909049  0.89841143  0.02222518  1
  O2-  O562  1  0.58230234  0.91877744  0.36249833  1
  O2-  O563  1  0.56697051  0.91072899  0.67704262  1
  O2-  O564  1  0.80806326  0.12707299  0.02958225  1
  O2-  O565  1  0.83150011  0.16074095  0.35427186  1
  O2-  O566  1  0.82517292  0.18398626  0.68719389  1
  O2-  O567  1  0.82518498  0.42822558  0.01778978  1
  O2-  O568  1  0.82163607  0.42950071  0.36719471  1
  O2-  O569  1  0.83867826  0.41821907  0.67957806  1
  O2-  O570  1  0.86981756  0.70394901  0.03696628  1
  O2-  O571  1  0.86314499  0.68090010  0.35966071  1
  O2-  O572  1  0.83808174  0.66211537  0.69332717  1
  O2-  O573  1  0.82236907  0.89146144  0.02812994  1
  O2-  O574  1  0.83743686  0.91412629  0.36007955  1
  O2-  O575  1  0.85462999  0.91045646  0.68197645  1
