# generated using pymatgen
data_H2O
_symmetry_space_group_name_H-M   'P 1'
_cell_length_a   17.99282309
_cell_length_b   17.99440770
_cell_length_c   22.00054554
_cell_angle_alpha   90.01576492
_cell_angle_beta   89.98192389
_cell_angle_gamma   119.98229255
_symmetry_Int_Tables_number   1
_chemical_formula_structural   H2O
_chemical_formula_sum   'H384 O192'
_cell_volume   6169.90371299
_cell_formula_units_Z   192
loop_
 _symmetry_equiv_pos_site_id
 _symmetry_equiv_pos_as_xyz
  1  'x, y, z'
loop_
 _atom_type_symbol
 _atom_type_oxidation_number
  H+  1.0
  O2-  -2.0
loop_
 _atom_site_type_symbol
 _atom_site_label
 _atom_site_symmetry_multiplicity
 _atom_site_fract_x
 _atom_site_fract_y
 _atom_site_fract_z
 _atom_site_occupancy
  H+  H0  1  0.85851443  0.97814306  0.00500208  1
  H+  H1  1  0.87129478  0.13373862  -0.00258204  1
  H+  H2  1  0.58897932  0.18284786  0.01192447  1
  H+  H3  1  0.14191194  0.29670019  0.50046093  1
  H+  H4  1  0.64792673  0.11778003  0.17864512  1
  H+  H5  1  0.10919161  0.48372189  0.16440748  1
  H+  H6  1  0.10975700  0.96637483  0.14045428  1
  H+  H7  1  0.63693845  0.86705376  0.66272952  1
  H+  H8  1  0.07758572  0.91810183  0.44360650  1
  H+  H9  1  0.61048082  0.40932802  0.34299098  1
  H+  H10  1  0.52707673  0.63297896  0.64696266  1
  H+  H11  1  0.35135062  -0.04164229  0.37068827  1
  H+  H12  1  0.28607913  0.40653109  0.50149899  1
  H+  H13  1  0.54291722  0.15406717  0.35559895  1
  H+  H14  1  0.41062727  0.67202673  0.34783496  1
  H+  H15  1  0.84078163  0.40844926  0.81848908  1
  H+  H16  1  0.13931682  0.36465698  0.65827310  1
  H+  H17  1  0.10570206  0.61527730  0.49086543  1
  H+  H18  1  0.63090513  1.02040304  0.84032795  1
  H+  H19  1  0.10244011  0.71991199  0.81730984  1
  H+  H20  1  0.39122721  0.05580709  0.12891361  1
  H+  H21  1  0.12137059  0.68772502  0.70856572  1
  H+  H22  1  0.85703148  0.38931127  0.66689951  1
  H+  H23  1  0.28166188  0.16860966  0.82982998  1
  H+  H24  1  0.62101453  0.88178585  0.16602606  1
  H+  H25  1  0.70655886  0.61074650  0.34446178  1
  H+  H26  1  0.38417712  0.52536100  0.99455909  1
  H+  H27  1  0.86092967  0.72082393  0.01144223  1
  H+  H28  1  0.52187619  0.88482796  0.82318107  1
  H+  H29  1  0.09234624  0.99327693  0.69222510  1
  H+  H30  1  0.64145273  0.53046263  0.49993885  1
  H+  H31  1  0.70887127  0.76921575  0.95530172  1
  H+  H32  1  0.23152784  0.13064698  0.51254494  1
  H+  H33  1  0.30952859  0.66348755  -0.06083658  1
  H+  H34  1  0.97232451  0.52424740  0.23169246  1
  H+  H35  1  0.86455861  0.73457918  0.50339006  1
  H+  H36  1  0.51819561  0.40123108  0.34297666  1
  H+  H37  1  0.17978370  0.56604468  0.58723600  1
  H+  H38  1  0.12667440  0.92769203  -0.01224748  1
  H+  H39  1  0.71783949  0.38771423  0.82990795  1
  H+  H40  1  0.63710800  0.54624483  0.17655018  1
  H+  H41  1  0.61969518  0.88504187  0.49340312  1
  H+  H42  1  0.58188276  0.90742909  0.07226086  1
  H+  H43  1  0.61309144  0.22978404  0.67304084  1
  H+  H44  1  0.11837095  0.70361845  0.51413714  1
  H+  H45  1  0.32784946  0.82725896  0.81178486  1
  H+  H46  1  0.63590231  0.01861053  0.49843888  1
  H+  H47  1  0.75627599  0.87836112  0.33436019  1
  H+  H48  1  0.16885809  0.84044415  0.92989522  1
  H+  H49  1  0.71943418  0.10695437  0.65084864  1
  H+  H50  1  0.36560691  0.71394621  0.45872802  1
  H+  H51  1  0.89876648  0.50855607  0.18699513  1
  H+  H52  1  0.10331942  0.12657378  0.14053237  1
  H+  H53  1  0.09031090  0.86128841  0.63547153  1
  H+  H54  1  0.88562903  0.54151506  0.34266999  1
  H+  H55  1  0.94270474  0.84489884  0.84983312  1
  H+  H56  1  0.65833655  0.51542008  -0.01752109  1
  H+  H57  1  0.02767851  0.63326939  0.16760096  1
  H+  H58  1  0.43023844  0.94702533  0.71984893  1
  H+  H59  1  0.34391908  0.15284980  0.16086414  1
  H+  H60  1  0.37375110  0.38576372  0.15721526  1
  H+  H61  1  0.84336102  0.31860361  0.85073580  1
  H+  H62  1  0.61662182  0.87733069  0.33274039  1
  H+  H63  1  0.95444938  0.25290656  0.85459887  1
  H+  H64  1  0.06822185  0.93667831  0.85565364  1
  H+  H65  1  0.76987101  0.63970270  0.49541299  1
  H+  H66  1  0.17443034  0.07550675  0.29577972  1
  H+  H67  1  0.61714364  0.40736865  0.16475341  1
  H+  H68  1  0.85564373  0.63987087  0.81766109  1
  H+  H69  1  0.10186453  0.96561318  0.35863435  1
  H+  H70  1  0.91744349  0.06506832  0.25510273  1
  H+  H71  1  0.62772515  0.85377724  0.83076285  1
  H+  H72  1  0.64062541  0.01046257  0.99746693  1
  H+  H73  1  0.38287195  0.52386724  0.83538829  1
  H+  H74  1  0.14848168  0.81611021  0.57065309  1
  H+  H75  1  -0.02866162  0.86652600  0.15830704  1
  H+  H76  1  0.12478439  0.51832150  -0.00055007  1
  H+  H77  1  0.23294360  0.33963371  0.32765968  1
  H+  H78  1  0.45476878  0.31443516  0.17424370  1
  H+  H79  1  0.37225879  0.17178229  0.82854050  1
  H+  H80  1  1.01067498  0.38931646  0.16205147  1
  H+  H81  1  0.36731882  0.39623814  1.00603491  1
  H+  H82  1  0.91154445  0.06736264  0.91559726  1
  H+  H83  1  0.60477910  0.77539457  0.31869561  1
  H+  H84  1  0.49048981  0.84380657  0.18509804  1
  H+  H85  1  0.60039033  0.61026025  0.00836926  1
  H+  H86  1  0.60017877  0.39606660  0.82344302  1
  H+  H87  1  0.76185513  0.11055293  0.31345365  1
  H+  H88  1  0.63997020  0.52914176  0.65102174  1
  H+  H89  1  0.60990334  0.39198852  0.49477837  1
  H+  H90  1  0.00926489  0.45768167  0.78611020  1
  H+  H91  1  0.01871285  0.13159713  0.14300451  1
  H+  H92  1  0.37398334  0.12010027  0.99986806  1
  H+  H93  1  0.37466142  0.41207023  0.34582998  1
  H+  H94  1  0.26289930  0.15788623  0.01215527  1
  H+  H95  1  1.01856202  0.42878539  0.35600483  1
  H+  H96  1  0.39384821  0.52743987  0.53531989  1
  H+  H97  1  0.11122830  0.64545277  0.00850668  1
  H+  H98  1  0.32923242  0.66613826  0.09702599  1
  H+  H99  1  0.37223494  0.60737966  0.98354172  1
  H+  H100  1  0.28120883  0.39615684  0.66576592  1
  H+  H101  1  0.15031647  0.13282645  0.65593976  1
  H+  H102  1  0.38450201  0.36189701  0.66164747  1
  H+  H103  1  0.11543355  0.20732972  0.33371281  1
  H+  H104  1  0.10201965  0.87738616  0.35564884  1
  H+  H105  1  0.63430539  0.11185611  0.84454844  1
  H+  H106  1  0.86725067  0.63973544  0.49754458  1
  H+  H107  1  0.45267535  0.76892090  0.23311488  1
  H+  H108  1  0.26999238  0.15313786  0.35578052  1
  H+  H109  1  0.91828139  0.77326424  0.93057046  1
  H+  H110  1  0.60424074  0.12348535  0.49824476  1
  H+  H111  1  0.11734992  0.38309834  0.01974622  1
  H+  H112  1  0.36565253  0.17166107  0.35466252  1
  H+  H113  1  0.98273630  0.10214523  0.96794555  1
  H+  H114  1  0.97518644  0.09217778  0.32215046  1
  H+  H115  1  0.61331622  0.38915842  0.01016626  1
  H+  H116  1  0.77323697  0.64435383  0.66409382  1
  H+  H117  1  0.88543188  0.78195779  0.17551896  1
  H+  H118  1  0.27861566  0.63475759  0.81730894  1
  H+  H119  1  0.14808381  0.64057386  0.65900136  1
  H+  H120  1  0.53776337  0.16125817  0.83058649  1
  H+  H121  1  1.05456650  0.31316527  0.87010538  1
  H+  H122  1  0.18576185  0.92505628  0.49692754  1
  H+  H123  1  0.72161639  0.86082210  0.67352238  1
  H+  H124  1  0.37224623  0.48150051  0.65704438  1
  H+  H125  1  0.39155448  0.88615227  0.66400519  1
  H+  H126  1  0.14460829  0.26805860  0.16632012  1
  H+  H127  1  0.90922937  0.30865537  0.33548249  1
  H+  H128  1  0.24104370  0.59652795  0.64551840  1
  H+  H129  1  0.85872230  0.08769815  0.82226294  1
  H+  H130  1  0.51626417  0.62970351  0.83431435  1
  H+  H131  1  0.42132921  0.58616179  0.23029412  1
  H+  H132  1  0.87654460  0.39825658  0.00393355  1
  H+  H133  1  0.07853511  0.41962246  0.72177351  1
  H+  H134  1  0.38906637  0.86842993  -0.00824841  1
  H+  H135  1  0.59230231  0.86141768  1.01525149  1
  H+  H136  1  0.77495861  0.39462412  0.15743711  1
  H+  H137  1  0.85994795  0.12992672  0.66272019  1
  H+  H138  1  0.49606088  0.62187721  0.53448469  1
  H+  H139  1  0.87614769  0.99650416  0.32027917  1
  H+  H140  1  0.13300333  0.53140572  0.83483154  1
  H+  H141  1  0.36920199  0.47323899  0.15995433  1
  H+  H142  1  0.89066893  0.10871859  0.17464416  1
  H+  H143  1  0.77207007  0.88882264  0.00559617  1
  H+  H144  1  0.34059532  0.42304806  0.06851779  1
  H+  H145  1  0.78128258  0.13029313  0.00479167  1
  H+  H146  1  0.38336065  0.30039926  0.32554092  1
  H+  H147  1  0.86166728  0.88825268  0.49132946  1
  H+  H148  1  0.87308453  0.52437470  0.64712934  1
  H+  H149  1  0.10314612  0.73178581  0.35111107  1
  H+  H150  1  0.60554415  -0.02667694  0.66668942  1
  H+  H151  1  0.10742451  0.87783305  0.14600418  1
  H+  H152  1  0.88538155  0.27575266  0.65666561  1
  H+  H153  1  0.40221638  0.07248991  0.84300528  1
  H+  H154  1  0.67342971  0.58812631  0.56053294  1
  H+  H155  1  0.34649640  0.98229104  0.79974809  1
  H+  H156  1  0.52162334  0.86793484  0.35134964  1
  H+  H157  1  0.10502437  0.84808445  0.66340299  1
  H+  H158  1  0.80425129  0.67396568  0.34961679  1
  H+  H159  1  0.38254149  0.10776054  0.66094527  1
  H+  H160  1  0.35636998  0.87383118  0.16479161  1
  H+  H161  1  0.58082170  -0.01751258  0.32111398  1
  H+  H162  1  0.98012721  0.07428581  0.79251170  1
  H+  H163  1  0.88384535  0.12132429  0.50084110  1
  H+  H164  1  0.51941749  0.64703099  0.15699572  1
  H+  H165  1  0.63881353  0.61817617  0.64689758  1
  H+  H166  1  0.76216497  0.63226327  0.81852605  1
  H+  H167  1  0.78619017  0.14014494  0.15619790  1
  H+  H168  1  0.88323446  0.36243341  0.16793438  1
  H+  H169  1  0.17842094  0.57631350  0.23381910  1
  H+  H170  1  0.79282030  0.40710967  -0.00011983  1
  H+  H171  1  0.61322432  0.72382299  0.65775453  1
  H+  H172  1  0.86011483  0.23160860  0.49769356  1
  H+  H173  1  0.86367786  0.88907950  0.16106597  1
  H+  H174  1  0.47943173  0.37147651  0.51042912  1
  H+  H175  1  0.36594676  0.63180790  0.82051040  1
  H+  H176  1  0.50071747  0.67216857  0.00877844  1
  H+  H177  1  0.21242509  0.11410927  0.16734174  1
  H+  H178  1  0.20902608  0.60947603  0.99340881  1
  H+  H179  1  0.23235119  0.36496503  0.00570377  1
  H+  H180  1  0.62940966  0.76928935  -0.01285703  1
  H+  H181  1  0.88320498  0.01425103  0.17100628  1
  H+  H182  1  0.97248119  0.86531138  0.51537806  1
  H+  H183  1  0.52156577  0.87924540  0.66443816  1
  H+  H184  1  0.37262809  0.49769020  0.34993832  1
  H+  H185  1  0.73207631  0.39267324  0.32625457  1
  H+  H186  1  0.60983623  0.73030452  0.82996012  1
  H+  H187  1  0.13231664  0.77220043  0.18006906  1
  H+  H188  1  0.39222157  0.76397786  0.83423789  1
  H+  H189  1  0.99213880  0.63444476  0.34654993  1
  H+  H190  1  1.04554769  0.14932702  0.66535491  1
  H+  H191  1  0.88393480  0.77732913  0.66127631  1
  H+  H192  1  0.61782988  0.96992135  0.16279545  1
  H+  H193  1  0.63370114  0.63213903  0.16560220  1
  H+  H194  1  0.87803421  0.61588672  0.65007167  1
  H+  H195  1  0.90818976  0.83712236  0.57216758  1
  H+  H196  1  0.62955624  0.27104765  0.51162542  1
  H+  H197  1  0.22129186  0.85899287  0.18007542  1
  H+  H198  1  0.10805961  0.13925951  0.82293957  1
  H+  H199  1  0.67141508  0.30155380  0.97849568  1
  H+  H200  1  0.77644589  0.65137231  0.17627895  1
  H+  H201  1  0.85774177  0.75879437  0.84398650  1
  H+  H202  1  0.37849178  0.60464079  0.17188610  1
  H+  H203  1  0.11342793  0.15369090  0.49487141  1
  H+  H204  1  0.36288473  0.22624478  0.66902669  1
  H+  H205  1  0.99143275  0.62586979  0.98258510  1
  H+  H206  1  0.42506456  0.06826422  0.30384018  1
  H+  H207  1  0.14743162  0.27152164  1.00054411  1
  H+  H208  1  0.47756408  0.09589774  0.51049122  1
  H+  H209  1  0.36432029  0.71826057  0.15940414  1
  H+  H210  1  0.64258771  0.28931717  0.17491219  1
  H+  H211  1  0.60509031  0.63306752  0.50818556  1
  H+  H212  1  0.51826784  0.38853984  0.66819409  1
  H+  H213  1  0.35415943  0.23853599  0.50741328  1
  H+  H214  1  0.39387590  0.37818424  0.51290744  1
  H+  H215  1  0.38387863  0.29717176  0.83664048  1
  H+  H216  1  0.32897092  0.90001839  0.10347069  1
  H+  H217  1  0.85382656  0.47949241  0.49395440  1
  H+  H218  1  0.62905498  0.52837914  0.83550533  1
  H+  H219  1  0.89488943  0.27030504  0.99649171  1
  H+  H220  1  1.11065524  0.63738376  0.81686865  1
  H+  H221  1  0.39270302  0.84694232  0.50060992  1
  H+  H222  1  0.34454880  0.24312849  0.16860505  1
  H+  H223  1  0.86475189  0.83215657  0.33845756  1
  H+  H224  1  0.64561571  0.30370133  0.32956782  1
  H+  H225  1  0.45618134  0.10675412  1.00277421  1
  H+  H226  1  0.20488137  0.83149791  0.82853393  1
  H+  H227  1  0.86733752  0.85407653  0.67120142  1
  H+  H228  1  0.84555062  0.93058369  0.75138923  1
  H+  H229  1  0.91353235  0.02309017  0.64573298  1
  H+  H230  1  0.32694343  -0.03235375  0.83114371  1
  H+  H231  1  0.35001767  0.39827696  0.82384511  1
  H+  H232  1  0.86054344  -0.02365283  0.48860453  1
  H+  H233  1  0.11782007  0.64206977  0.16189578  1
  H+  H234  1  0.37691818  0.62711416  0.65248387  1
  H+  H235  1  0.63787952  0.17494125  0.35578971  1
  H+  H236  1  0.12307953  0.04870816  -0.00313779  1
  H+  H237  1  0.61391308  0.63405617  0.83727605  1
  H+  H238  1  0.12541185  0.85059675  0.83583820  1
  H+  H239  1  0.02368944  0.15039248  0.49081888  1
  H+  H240  1  0.60463485  0.72302885  0.51343758  1
  H+  H241  1  0.07235696  0.15965907  0.39733582  1
  H+  H242  1  0.22681017  0.58742638  0.47708365  1
  H+  H243  1  1.02571821  0.37958154  1.01575783  1
  H+  H244  1  0.11723196  0.46971844  0.65967495  1
  H+  H245  1  0.97681657  0.61923163  0.82142110  1
  H+  H246  1  0.97226653  0.24938845  0.38098615  1
  H+  H247  1  0.08815450  0.14416984  0.04898775  1
  H+  H248  1  0.72630706  0.85778020  0.50786868  1
  H+  H249  1  0.13688229  0.03560908  0.51439984  1
  H+  H250  1  0.94744049  0.82711201  0.35233980  1
  H+  H251  1  0.63669837  0.62698653  1.03075316  1
  H+  H252  1  0.97495542  0.36401728  0.65563492  1
  H+  H253  1  0.47706950  0.36949351  -0.00673517  1
  H+  H254  1  0.91864650  0.06365838  0.70889513  1
  H+  H255  1  0.22193564  0.60784627  0.16942299  1
  H+  H256  1  0.23712741  0.12105126  0.65753636  1
  H+  H257  1  0.20018813  0.36611050  0.84560530  1
  H+  H258  1  0.86356493  0.41154338  0.34189465  1
  H+  H259  1  0.72555972  0.86251690  0.18018835  1
  H+  H260  1  0.74789159  0.06434680  0.32009590  1
  H+  H261  1  0.82854096  0.43181268  0.40319906  1
  H+  H262  1  0.13717915  0.79253944  0.99281145  1
  H+  H263  1  0.37289780  0.76672811  0.35650857  1
  H+  H264  1  0.66371780  0.07209334  -0.06071588  1
  H+  H265  1  0.25450438  0.60467962  0.33361738  1
  H+  H266  1  0.13287601  0.24312501  0.66279909  1
  H+  H267  1  0.35152293  0.44530675  0.44630701  1
  H+  H268  1  0.38151882  -0.00321726  0.51844470  1
  H+  H269  1  0.17152991  0.75461454  0.60758630  1
  H+  H270  1  0.76017860  0.13063267  0.82767211  1
  H+  H271  1  0.11819492  0.49904185  0.35033196  1
  H+  H272  1  0.39099902  0.75949691  0.64670208  1
  H+  H273  1  0.21413574  0.85806275  0.33909923  1
  H+  H274  1  0.87449547  0.35681006  0.86968297  1
  H+  H275  1  0.71778344  0.36376298  0.65796343  1
  H+  H276  1  0.27640609  0.85854890  0.52747077  1
  H+  H277  1  0.23503434  0.35289232  0.17171531  1
  H+  H278  1  0.90126306  0.54012252  0.98168638  1
  H+  H279  1  0.53308658  0.14485438  0.16624675  1
  H+  H280  1  -0.00201041  0.91346761  0.69169486  1
  H+  H281  1  0.76553894  0.38913482  0.49421181  1
  H+  H282  1  0.85609586  0.50316705  0.81414473  1
  H+  H283  1  0.96951798  0.61307562  0.50393395  1
  H+  H284  1  0.62742385  0.36260522  0.66092451  1
  H+  H285  1  0.16617229  0.06411227  0.85990955  1
  H+  H286  1  0.38504187  0.28389803  0.99381223  1
  H+  H287  1  0.39457669  0.02307266  0.66312021  1
  H+  H288  1  0.66152384  0.07750651  0.55826102  1
  H+  H289  1  0.07565260  0.66953539  0.41134216  1
  H+  H290  1  0.08188497  0.67688864  0.06648723  1
  H+  H291  1  0.74011567  0.60878034  0.98762324  1
  H+  H292  1  0.93376643  0.69879136  0.95685919  1
  H+  H293  1  0.77358995  0.13888157  0.48831923  1
  H+  H294  1  0.82638819  0.92032578  0.10519845  1
  H+  H295  1  0.51364960  0.40177271  0.82428455  1
  H+  H296  1  0.15643766  0.39265998  0.50703656  1
  H+  H297  1  0.90855774  0.33469732  0.56272360  1
  H+  H298  1  0.35665596  -0.02621701  1.00922036  1
  H+  H299  1  0.81980080  0.91139991  0.39269340  1
  H+  H300  1  0.10054059  0.46643496  0.44720329  1
  H+  H301  1  0.32657826  0.42941446  0.76301212  1
  H+  H302  1  0.92490061  0.59307014  0.88478151  1
  H+  H303  1  0.68893315  0.09009562  0.23187504  1
  H+  H304  1  0.82899070  0.67056095  0.72543293  1
  H+  H305  1  0.27076277  0.88584215  0.00439406  1
  H+  H306  1  0.12577487  0.05941317  0.20908618  1
  H+  H307  1  0.67322168  0.35242752  0.23236928  1
  H+  H308  1  0.17330340  0.09486070  0.58786239  1
  H+  H309  1  0.09144261  0.16491218  0.75631131  1
  H+  H310  1  0.52609861  0.14000041  0.67473715  1
  H+  H311  1  1.02544485  0.39000800  0.82197044  1
  H+  H312  1  0.67902635  0.36132251  0.92479677  1
  H+  H313  1  0.41470347  0.07131967  0.57478510  1
  H+  H314  1  0.67327669  0.83751688  0.57044623  1
  H+  H315  1  0.83237406  0.22145968  0.80547663  1
  H+  H316  1  0.57667378  0.16734486  0.44605207  1
  H+  H317  1  0.17248528  0.12698106  0.91141117  1
  H+  H318  1  0.92657776  0.59462219  0.28137312  1
  H+  H319  1  0.38516030  0.05403548  0.19754457  1
  H+  H320  1  0.18741907  0.30227826  0.26300860  1
  H+  H321  1  0.41281217  0.35195007  0.89830426  1
  H+  H322  1  0.67707223  0.58126926  0.89634665  1
  H+  H323  1  0.34143173  0.86752303  0.36584507  1
  H+  H324  1  0.84733958  0.16734420  0.09813350  1
  H+  H325  1  0.57541124  0.42245595  0.72768325  1
  H+  H326  1  0.58143696  0.91793200  0.76411869  1
  H+  H327  1  0.48925991  0.03579498  0.32259471  1
  H+  H328  1  0.82537886  0.42695925  0.72149003  1
  H+  H329  1  0.65902317  0.33314743  0.56833302  1
  H+  H330  1  0.36000889  0.73558494  -0.01379019  1
  H+  H331  1  0.34571413  0.65320048  0.71503142  1
  H+  H332  1  0.90645815  0.58636331  0.56253475  1
  H+  H333  1  0.83917676  0.42612227  0.09925596  1
  H+  H334  1  0.29921009  0.85094354  0.75072029  1
  H+  H335  1  0.32263007  0.18365264  0.44718096  1
  H+  H336  1  0.59215964  0.17634905  0.76944427  1
  H+  H337  1  0.55803053  0.00581752  0.25663867  1
  H+  H338  1  0.78876384  0.73344591  0.04538995  1
  H+  H339  1  0.82867010  0.67385551  0.11623336  1
  H+  H340  1  0.31965636  0.18265303  0.07150825  1
  H+  H341  1  0.63990717  0.29110435  0.83586882  1
  H+  H342  1  0.39668055  0.82424973  0.29568184  1
  H+  H343  1  0.66608036  0.82450554  0.88670257  1
  H+  H344  1  0.41709108  0.82797150  0.89241132  1
  H+  H345  1  0.63407514  0.11309655  0.65510175  1
  H+  H346  1  0.87666135  0.36045286  0.50326817  1
  H+  H347  1  0.63025736  0.62060784  0.25973516  1
  H+  H348  1  0.55920885  0.70782840  0.06859144  1
  H+  H349  1  0.51102237  0.60824604  0.30504246  1
  H+  H350  1  0.17381871  0.34392041  0.59693193  1
  H+  H351  1  0.89159147  0.27666874  0.17014533  1
  H+  H352  1  0.41389347  0.33307442  0.60175809  1
  H+  H353  1  0.60875168  0.73779541  0.16124665  1
  H+  H354  1  0.16693007  0.33643759  0.91335452  1
  H+  H355  1  0.15911680  0.83303007  0.27634707  1
  H+  H356  1  0.41759032  0.34953138  0.26242227  1
  H+  H357  1  0.42607557  0.11999999  0.90556580  1
  H+  H358  1  0.87950030  0.20525354  0.40810879  1
  H+  H359  1  0.41443896  0.58014554  0.89785650  1
  H+  H360  1  0.08521120  0.93390849  0.04839252  1
  H+  H361  1  0.48334416  0.85087273  0.49427101  1
  H+  H362  1  0.59319833  0.91217118  0.43043263  1
  H+  H363  1  0.57747166  0.42266708  0.43620848  1
  H+  H364  1  0.91909077  0.35271186  0.27083963  1
  H+  H365  1  0.05655598  0.92428655  0.78291995  1
  H+  H366  1  0.82449697  0.15202018  0.72133063  1
  H+  H367  1  0.33092727  0.17084497  0.72973709  1
  H+  H368  1  0.59914051  0.10182966  0.01397276  1
  H+  H369  1  0.77860367  0.83285680  0.75798716  1
  H+  H370  1  0.64925644  0.69849184  0.30225856  1
  H+  H371  1  0.42179089  0.81646191  0.58622347  1
  H+  H372  1  0.08025730  0.41921909  0.10012962  1
  H+  H373  1  0.59027004  0.16006957  0.10945561  1
  H+  H374  1  0.53310990  0.41696956  0.16573698  1
  H+  H375  1  0.22842923  0.51837526  0.29940133  1
  H+  H376  1  0.94757426  0.32825226  0.94108885  1
  H+  H377  1  0.15967266  0.58181501  0.89767239  1
  H+  H378  1  0.58459630  0.42499373  0.06702649  1
  H+  H379  1  0.91696103  0.09245272  0.55779195  1
  H+  H380  1  0.47690436  0.86478605  0.99552095  1
  H+  H381  1  0.31123852  0.89187465  0.45823857  1
  H+  H382  1  0.66124755  0.83294975  0.24172561  1
  H+  H383  1  0.12733720  0.10415164  0.34421434  1
  O2-  O384  1  0.07623435  0.15881515  0.12348386  1
  O2-  O385  1  0.08411968  0.18156465  0.47532467  1
  O2-  O386  1  0.06579930  0.14447016  0.79712564  1
  O2-  O387  1  0.07410607  0.42251047  0.14727118  1
  O2-  O388  1  0.12625136  0.47072479  0.48954398  1
  O2-  O389  1  0.05293386  0.44220442  0.79478565  1
  O2-  O390  1  0.08488139  0.66982760  0.14850932  1
  O2-  O391  1  0.08202317  0.65428840  0.48667066  1
  O2-  O392  1  0.07783229  0.66201232  0.79785176  1
  O2-  O393  1  0.08001921  0.90664986  0.12486546  1
  O2-  O394  1  0.08105344  0.93091741  0.49044620  1
  O2-  O395  1  0.05952339  0.89720491  0.82263261  1
  O2-  O396  1  0.30886914  0.17907640  0.15043257  1
  O2-  O397  1  0.31779367  0.17809312  0.49214427  1
  O2-  O398  1  0.33769953  0.19382202  0.80806469  1
  O2-  O399  1  0.34167405  0.41482548  0.14182543  1
  O2-  O400  1  0.34869116  0.44005015  0.49186509  1
  O2-  O401  1  0.32032261  0.42869279  0.80804656  1
  O2-  O402  1  0.32438113  0.66054602  0.14114245  1
  O2-  O403  1  0.33127240  0.65574377  0.44016769  1
  O2-  O404  1  0.33874409  0.66340632  0.80235381  1
  O2-  O405  1  0.32975845  0.90552135  0.14866214  1
  O2-  O406  1  0.32740790  0.89885039  0.50254898  1
  O2-  O407  1  0.27690736  0.81871963  0.78875285  1
  O2-  O408  1  0.59394107  0.17033189  0.15416247  1
  O2-  O409  1  0.56783687  0.15136918  0.48996875  1
  O2-  O410  1  0.59682274  0.18187442  0.81484869  1
  O2-  O411  1  0.59067515  0.44020919  0.14757639  1
  O2-  O412  1  0.58093975  0.42441426  0.48273297  1
  O2-  O413  1  0.57318615  0.42854882  0.80696195  1
  O2-  O414  1  0.57753763  0.68160311  0.13850373  1
  O2-  O415  1  0.56754606  0.65956810  0.50598414  1
  O2-  O416  1  0.57958064  0.66250909  0.82148278  1
  O2-  O417  1  0.58625744  0.90926144  0.14973297  1
  O2-  O418  1  0.59009691  0.91485093  0.47613910  1
  O2-  O419  1  0.58333930  0.91818118  0.80957712  1
  O2-  O420  1  0.84745627  0.17133632  0.14350420  1
  O2-  O421  1  0.83629599  0.17099697  0.47995172  1
  O2-  O422  1  0.81788574  0.16142516  0.80631142  1
  O2-  O423  1  0.83636792  0.41963538  0.14449386  1
  O2-  O424  1  0.82520434  0.41972799  0.47760162  1
  O2-  O425  1  0.81710678  0.44118869  0.79911930  1
  O2-  O426  1  0.83570849  0.67476487  0.16091048  1
  O2-  O427  1  0.83533761  0.67353952  0.48659101  1
  O2-  O428  1  0.82174918  0.66576318  0.80183279  1
  O2-  O429  1  0.82979760  0.91983362  0.15071815  1
  O2-  O430  1  0.82976774  0.91578587  0.47466835  1
  O2-  O431  1  0.86846873  1.04076862  0.83579859  1
  O2-  O432  1  0.14792582  0.07026014  0.16784186  1
  O2-  O433  1  0.16713224  0.09596451  0.53046830  1
  O2-  O434  1  0.18212480  0.12381885  0.86632244  1
  O2-  O435  1  0.17736129  0.32037465  0.19080582  1
  O2-  O436  1  0.17747281  0.35343623  0.52012541  1
  O2-  O437  1  0.14894857  0.32912086  0.87006266  1
  O2-  O438  1  0.16448816  0.57786062  0.18975955  1
  O2-  O439  1  0.17335067  0.56335465  0.50244634  1
  O2-  O440  1  0.17138211  0.58851238  0.85332514  1
  O2-  O441  1  0.16147743  0.83262477  0.19540949  1
  O2-  O442  1  0.12830267  0.88967643  0.51434851  1
  O2-  O443  1  0.15262381  0.81902688  0.85302309  1
  O2-  O444  1  0.41060388  0.09450110  0.16395042  1
  O2-  O445  1  0.41496021  0.06146461  0.52848141  1
  O2-  O446  1  0.43477361  0.13040513  0.86059773  1
  O2-  O447  1  0.41185660  0.32816504  0.18872887  1
  O2-  O448  1  0.41883971  0.34226303  0.52658939  1
  O2-  O449  1  0.41221062  0.35693314  0.85297517  1
  O2-  O450  1  0.41547967  0.58141948  0.18492032  1
  O2-  O451  1  0.42675432  0.58759063  0.55355730  1
  O2-  O452  1  0.41926288  0.58423556  0.85232601  1
  O2-  O453  1  0.43553907  0.80089274  0.20582527  1
  O2-  O454  1  0.42192204  0.81333761  0.50698205  1
  O2-  O455  1  0.41806738  0.82548821  0.84740194  1
  O2-  O456  1  0.67931627  0.08610391  0.18783228  1
  O2-  O457  1  0.66206983  0.07986124  0.51283304  1
  O2-  O458  1  0.66245156  0.07935921  0.85897584  1
  O2-  O459  1  0.67192040  0.35067094  0.18642743  1
  O2-  O460  1  0.66030039  0.33237816  0.52268230  1
  O2-  O461  1  0.66101554  0.35111454  0.85035923  1
  O2-  O462  1  0.66059556  0.60603028  0.19114628  1
  O2-  O463  1  0.67375145  0.59195312  0.51445223  1
  O2-  O464  1  0.66282551  0.58831721  0.85222332  1
  O2-  O465  1  0.66405114  0.83369225  0.19313733  1
  O2-  O466  1  0.66720089  0.82982884  0.52525037  1
  O2-  O467  1  0.65534871  0.81929467  0.84195167  1
  O2-  O468  1  0.91922073  0.07609020  0.18793314  1
  O2-  O469  1  0.91660217  0.09069527  0.51351223  1
  O2-  O470  1  0.91382223  0.02977222  0.78357193  1
  O2-  O471  1  0.91864988  0.33786766  0.18429718  1
  O2-  O472  1  0.90365560  0.32739739  0.51798996  1
  O2-  O473  1  0.99571381  0.30944428  0.87045027  1
  O2-  O474  1  0.94480606  0.55383052  0.21343019  1
  O2-  O475  1  0.90798613  0.58837748  0.51511693  1
  O2-  O476  1  0.91728445  0.59401465  0.83949738  1
  O2-  O477  1  0.91642661  0.84615489  0.17991176  1
  O2-  O478  1  0.91053672  0.83301445  0.52658409  1
  O2-  O479  1  0.88681581  0.81098676  0.87004557  1
  O2-  O480  1  0.16574156  0.07716477  0.33930369  1
  O2-  O481  1  0.17589034  0.09543157  0.64073680  1
  O2-  O482  1  0.15282545  0.11570324  0.98667853  1
  O2-  O483  1  0.19152168  0.28693531  0.30656056  1
  O2-  O484  1  0.17404019  0.33888696  0.64236666  1
  O2-  O485  1  0.16996748  0.33338812  0.99325302  1
  O2-  O486  1  0.20937918  0.56013187  0.30471490  1
  O2-  O487  1  0.17935393  0.56655837  0.63217723  1
  O2-  O488  1  0.14758332  0.57670705  0.98183310  1
  O2-  O489  1  0.15497788  0.83114956  0.32182609  1
  O2-  O490  1  0.18114250  0.78609117  0.56738509  1
  O2-  O491  1  0.17305757  0.85052176  0.97492224  1
  O2-  O492  1  0.44950749  0.05596895  0.33931395  1
  O2-  O493  1  0.41612082  0.08132245  0.64468662  1
  O2-  O494  1  0.40158487  0.08899705  0.98139621  1
  O2-  O495  1  0.41807973  0.35824892  0.30816760  1
  O2-  O496  1  0.41182502  0.32801397  0.64747777  1
  O2-  O497  1  0.41723638  0.34313759  0.97687771  1
  O2-  O498  1  0.44939754  0.59691947  0.30513375  1
  O2-  O499  1  0.42627918  0.57926786  0.62115801  1
  O2-  O500  1  0.41064519  0.58390478  0.97497955  1
  O2-  O501  1  0.40089799  0.82938314  0.34005547  1
  O2-  O502  1  0.42109538  0.82035239  0.63165864  1
  O2-  O503  1  0.41895149  0.83789934  0.97615192  1
  O2-  O504  1  0.57055887  0.02674440  0.29835185  1
  O2-  O505  1  0.65838137  0.07857645  0.63747419  1
  O2-  O506  1  0.66585956  0.07176331  0.98472281  1
  O2-  O507  1  0.67298863  0.35960619  0.30843641  1
  O2-  O508  1  0.65573499  0.32997895  0.64589104  1
  O2-  O509  1  0.68707120  0.36065552  0.97040902  1
  O2-  O510  1  0.61314234  0.63610779  0.29939523  1
  O2-  O511  1  0.67266769  0.58838101  0.63439114  1
  O2-  O512  1  0.70548896  0.56125768  0.95857949  1
  O2-  O513  1  0.65400417  0.83102962  0.30762476  1
  O2-  O514  1  0.66992963  0.83938819  0.64779128  1
  O2-  O515  1  0.68315899  0.80521292  0.96117577  1
  O2-  O516  1  0.91607134  0.05897302  0.30279810  1
  O2-  O517  1  0.92870880  0.07814347  0.66441569  1
  O2-  O518  1  0.92149397  0.08118365  0.95943476  1
  O2-  O519  1  0.91904893  0.36301309  0.31488594  1
  O2-  O520  1  0.91272557  0.33674027  0.64453537  1
  O2-  O521  1  0.92978696  0.33163842  0.98321705  1
  O2-  O522  1  0.92374056  0.60240987  0.32607341  1
  O2-  O523  1  0.90341563  0.58362467  0.63064483  1
  O2-  O524  1  0.93577663  0.59510147  0.95999162  1
  O2-  O525  1  0.88614243  0.79178873  0.34325975  1
  O2-  O526  1  0.90678597  0.83955053  0.64951949  1
  O2-  O527  1  0.93565019  0.75282344  0.96747469  1
  O2-  O528  1  0.09386791  0.14786362  0.00283621  1
  O2-  O529  1  0.07162580  0.14870140  0.35261195  1
  O2-  O530  1  0.10698780  0.18068978  0.67701628  1
  O2-  O531  1  0.08576482  0.41360025  0.03284728  1
  O2-  O532  1  0.07187470  0.46339622  0.37933583  1
  O2-  O533  1  0.08154151  0.41031216  0.67755411  1
  O2-  O534  1  0.08566482  0.68086683  0.02142170  1
  O2-  O535  1  0.06881818  0.67103537  0.36611155  1
  O2-  O536  1  0.14040387  0.69063715  0.66629348  1
  O2-  O537  1  0.09808753  0.95703587  0.00613439  1
  O2-  O538  1  0.07268528  0.90629779  0.37509718  1
  O2-  O539  1  0.04208043  0.95961322  0.71794925  1
  O2-  O540  1  0.32256439  0.17892064  0.02609940  1
  O2-  O541  1  0.33031246  0.19564175  0.36775231  1
  O2-  O542  1  0.33174300  0.16478250  0.68452052  1
  O2-  O543  1  0.33625047  0.42503656  0.02256746  1
  O2-  O544  1  0.34422346  0.43886347  0.36661306  1
  O2-  O545  1  0.34162264  0.42622295  0.68069895  1
  O2-  O546  1  0.32151402  0.67068364  -0.01721909  1
  O2-  O547  1  0.33664088  0.67293261  0.37376980  1
  O2-  O548  1  0.34388382  0.65465029  0.67010512  1
  O2-  O549  1  0.33086316  0.91314488  0.02195020  1
  O2-  O550  1  0.31027343  0.89796481  0.38103835  1
  O2-  O551  1  0.38378883  0.92789362  0.69027528  1
  O2-  O552  1  0.56460577  0.12730223  0.03190589  1
  O2-  O553  1  0.60142416  0.19753813  0.36970581  1
  O2-  O554  1  0.58639890  0.16921104  0.68920562  1
  O2-  O555  1  0.58017722  0.41714509  0.02205829  1
  O2-  O556  1  0.57375630  0.42637832  0.36508248  1
  O2-  O557  1  0.57929769  0.42052694  0.68249385  1
  O2-  O558  1  0.54727252  0.72529164  0.02789980  1
  O2-  O559  1  0.46400690  0.68332335  0.31969596  1
  O2-  O560  1  0.58607320  0.66157341  0.66559471  1
  O2-  O561  1  0.58045140  0.90717798  0.02646606  1
  O2-  O562  1  0.58406607  0.90772761  0.35467735  1
  O2-  O563  1  0.57874569  0.91451586  0.68462864  1
  O2-  O564  1  0.84256775  0.16246386  0.01751130  1
  O2-  O565  1  0.91265704  0.22776724  0.36951286  1
  O2-  O566  1  0.82720118  0.15740627  0.67648378  1
  O2-  O567  1  0.85049162  0.43197556  0.01901764  1
  O2-  O568  1  0.83335744  0.44157934  0.35771582  1
  O2-  O569  1  0.82358999  0.41845032  0.67668601  1
  O2-  O570  1  0.80553065  0.69061427  0.03768413  1
  O2-  O571  1  0.76043556  0.61312779  0.35490362  1
  O2-  O572  1  0.83369176  0.67502716  0.67992339  1
  O2-  O573  1  0.82483784  0.92535146  0.02889601  1
  O2-  O574  1  0.81877394  0.91054247  0.34741319  1
  O2-  O575  1  0.80767838  0.87774527  0.72750463  1
