# generated using pymatgen
data_H2O
_symmetry_space_group_name_H-M   'P 1'
_cell_length_a   17.98409847
_cell_length_b   17.98383203
_cell_length_c   21.99701612
_cell_angle_alpha   90.02233806
_cell_angle_beta   89.98072327
_cell_angle_gamma   119.98930257
_symmetry_Int_Tables_number   1
_chemical_formula_structural   H2O
_chemical_formula_sum   'H384 O192'
_cell_volume   6161.86358764
_cell_formula_units_Z   192
loop_
 _symmetry_equiv_pos_site_id
 _symmetry_equiv_pos_as_xyz
  1  'x, y, z'
loop_
 _atom_type_symbol
 _atom_type_oxidation_number
  H+  1.0
  O2-  -2.0
loop_
 _atom_site_type_symbol
 _atom_site_label
 _atom_site_symmetry_multiplicity
 _atom_site_fract_x
 _atom_site_fract_y
 _atom_site_fract_z
 _atom_site_occupancy
  H+  H0  1  0.38698454  0.51953282  0.50904057  1
  H+  H1  1  0.14210896  0.52494520  0.83435791  1
  H+  H2  1  1.02570690  0.13557431  0.82107363  1
  H+  H3  1  0.38359580  0.77032677  0.65933586  1
  H+  H4  1  1.02055678  0.88877719  0.99594699  1
  H+  H5  1  0.02856766  0.63200568  0.68031406  1
  H+  H6  1  0.69630079  0.60525646  0.16503782  1
  H+  H7  1  0.02868166  0.88554591  0.82441448  1
  H+  H8  1  0.39325450  0.11792929  -0.01253829  1
  H+  H9  1  0.27229673  0.89497968  0.34779759  1
  H+  H10  1  0.37556001  0.61290146  0.17337538  1
  H+  H11  1  0.75907824  0.13811602  0.62085354  1
  H+  H12  1  0.16521439  0.09253526  0.71305760  1
  H+  H13  1  0.86273761  0.63709421  0.82434301  1
  H+  H14  1  0.27381776  0.90006385  0.15308602  1
  H+  H15  1  0.00539172  0.15415221  0.38843826  1
  H+  H16  1  0.38788291  0.76797845  0.83289508  1
  H+  H17  1  0.13868881  0.60743718  0.66023521  1
  H+  H18  1  0.62401091  0.78722562  0.17656405  1
  H+  H19  1  0.54633887  0.64565202  0.33883841  1
  H+  H20  1  0.63710091  0.72831224  0.34503714  1
  H+  H21  1  0.52956473  0.14162334  0.33850785  1
  H+  H22  1  0.77345874  0.63592038  0.34080576  1
  H+  H23  1  0.88698004  0.85892868  0.65706538  1
  H+  H24  1  0.51909835  0.62930910  0.67343708  1
  H+  H25  1  0.14387847  0.36937414  0.98898349  1
  H+  H26  1  0.47353101  0.36094153  0.17631647  1
  H+  H27  1  0.02270269  0.88928712  0.67484991  1
  H+  H28  1  0.86009583  0.88933742  0.15806529  1
  H+  H29  1  0.89683296  0.88602922  0.47676031  1
  H+  H30  1  0.60394901  0.46163680  0.15233417  1
  H+  H31  1  0.77175209  0.64083048  0.49600402  1
  H+  H32  1  0.52338698  0.38607817  0.49881437  1
  H+  H33  1  0.85434848  0.39330635  0.01377897  1
  H+  H34  1  0.10913258  0.62026762  0.49358276  1
  H+  H35  1  0.66080710  0.32242079  0.57049269  1
  H+  H36  1  0.37000767  0.88567223  0.67608101  1
  H+  H37  1  0.27886802  0.63987934  0.82720478  1
  H+  H38  1  0.89304154  0.28098469  0.85709732  1
  H+  H39  1  0.48859403  0.11857161  0.83282053  1
  H+  H40  1  0.84834060  0.00710202  0.30944357  1
  H+  H41  1  0.13971645  0.23500656  0.51051759  1
  H+  H42  1  0.41194098  0.75617309  0.34850188  1
  H+  H43  1  0.36229329  0.62992339  0.67317408  1
  H+  H44  1  0.61294262  0.22521128  0.49343547  1
  H+  H45  1  0.88833525  0.77243171  0.83639652  1
  H+  H46  1  0.38797293  0.36323059  0.83193325  1
  H+  H47  1  0.52699554  0.13839776  -0.00012200  1
  H+  H48  1  0.72225445  0.60663960  0.66284816  1
  H+  H49  1  0.27169113  0.38389500  0.50785549  1
  H+  H50  1  0.88762225  0.27889900  0.19283245  1
  H+  H51  1  0.85754339  0.48230296  0.34209057  1
  H+  H52  1  0.63059190  0.98989345  0.00009180  1
  H+  H53  1  1.02807475  0.14068518  0.99361708  1
  H+  H54  1  0.61374497  0.91555434  0.31890233  1
  H+  H55  1  0.22150613  0.35009828  0.33082593  1
  H+  H56  1  0.52400089  0.14775973  0.15103618  1
  H+  H57  1  0.37143635  0.76213154  0.17332348  1
  H+  H58  1  0.52151798  0.38645739  0.34250972  1
  H+  H59  1  0.48383061  0.86427082  0.83990438  1
  H+  H60  1  0.66243274  0.53537449  0.02206919  1
  H+  H61  1  0.62998998  1.03108820  0.18657565  1
  H+  H62  1  0.15207286  0.22412805  0.34716533  1
  H+  H63  1  0.89377493  0.57923631  0.26882268  1
  H+  H64  1  0.81288005  0.65950360  0.08594615  1
  H+  H65  1  0.38163046  0.27010533  0.65995177  1
  H+  H66  1  0.10981766  0.46812797  0.67032079  1
  H+  H67  1  0.38982961  0.86136409  0.50543792  1
  H+  H68  1  0.63778110  0.76567912  0.98844836  1
  H+  H69  1  0.48300648  0.84716278  0.01389683  1
  H+  H70  1  0.27243181  0.52613707  0.31640943  1
  H+  H71  1  0.28523755  0.88718516  0.83007397  1
  H+  H72  1  0.38662631  0.86439578  0.83331774  1
  H+  H73  1  0.22775973  0.11754689  0.15866682  1
  H+  H74  1  0.62173830  0.14285206  0.82346794  1
  H+  H75  1  0.02815085  0.64291363  0.00057148  1
  H+  H76  1  0.22999532  0.11061430  0.83045202  1
  H+  H77  1  0.64410799  0.60958893  0.32980167  1
  H+  H78  1  0.00430925  0.66786982  0.52185151  1
  H+  H79  1  0.60699091  0.38212818  -0.00275637  1
  H+  H80  1  0.64199934  0.84087759  0.36563670  1
  H+  H81  1  0.28048708  0.89159163  0.49529598  1
  H+  H82  1  0.86256237  0.88568431  0.33123072  1
  H+  H83  1  0.14505576  0.78082027  0.49780433  1
  H+  H84  1  0.67070092  0.33441876  0.89241738  1
  H+  H85  1  0.88838457  0.52028667  0.83307586  1
  H+  H86  1  0.61266008  0.88221088  0.83788716  1
  H+  H87  1  0.28502711  0.14222340  0.34205258  1
  H+  H88  1  0.11417676  0.97696548  -0.00593540  1
  H+  H89  1  0.28287103  0.13584522  0.50706816  1
  H+  H90  1  0.58365816  0.17687765  0.40203875  1
  H+  H91  1  0.84687889  0.60256857  0.16420113  1
  H+  H92  1  0.72121116  0.35681162  0.65821838  1
  H+  H93  1  0.88715744  0.10700479  0.98241479  1
  H+  H94  1  0.36694752  0.47957978  1.00592830  1
  H+  H95  1  0.36182257  0.47891082  0.16003596  1
  H+  H96  1  0.26782206  0.13631423  0.67118958  1
  H+  H97  1  0.63500111  0.11489715  0.97935151  1
  H+  H98  1  0.26026264  0.38622477  0.67073257  1
  H+  H99  1  0.35673751  0.24314010  0.34575184  1
  H+  H100  1  0.77570521  0.88227192  0.00274079  1
  H+  H101  1  0.67549062  0.07612386  0.79570941  1
  H+  H102  1  0.98124509  0.36963614  0.84521448  1
  H+  H103  1  0.39754886  0.75518818  1.01303350  1
  H+  H104  1  0.63714344  0.13147672  0.66116277  1
  H+  H105  1  0.89014344  0.28507188  0.99739366  1
  H+  H106  1  0.83181405  0.91583658  0.06396675  1
  H+  H107  1  0.14936953  0.62130476  0.98829489  1
  H+  H108  1  0.77236937  0.89195505  0.16214491  1
  H+  H109  1  0.15564583  0.11811064  0.52267492  1
  H+  H110  1  0.77709660  0.38697523  0.82196353  1
  H+  H111  1  0.03201588  0.39624468  0.00655009  1
  H+  H112  1  0.63547036  0.10797629  0.49842455  1
  H+  H113  1  0.12782239  0.51099576  0.15990220  1
  H+  H114  1  0.39632399  0.01541698  0.32153420  1
  H+  H115  1  0.57163358  0.92132070  0.42525923  1
  H+  H116  1  0.66627774  0.33951434  0.22877290  1
  H+  H117  1  0.64354513  0.85816177  -0.01358409  1
  H+  H118  1  0.23206506  0.36741052  -0.01101810  1
  H+  H119  1  0.83421748  0.10697185  0.34048858  1
  H+  H120  1  0.52471093  0.13537960  0.49151257  1
  H+  H121  1  0.77947002  0.89943401  0.48746947  1
  H+  H122  1  0.13510980  0.86188426  0.33955122  1
  H+  H123  1  0.64361372  0.27434011  0.83284984  1
  H+  H124  1  0.61349582  0.00230377  0.33250875  1
  H+  H125  1  0.36616929  0.22486323  0.82323063  1
  H+  H126  1  0.88751872  0.37141061  0.33201854  1
  H+  H127  1  0.11737988  0.23192722  -0.00594583  1
  H+  H128  1  0.97892048  0.35881298  0.65282304  1
  H+  H129  1  0.74060822  0.79703149  0.55085427  1
  H+  H130  1  0.02841453  0.63643239  0.82764641  1
  H+  H131  1  0.89006001  0.52216472  0.66029676  1
  H+  H132  1  0.81197140  0.13631198  0.04700033  1
  H+  H133  1  0.60485204  0.37560548  0.15331076  1
  H+  H134  1  0.35995126  0.22657979  0.99521180  1
  H+  H135  1  0.27726603  0.53735394  0.34985864  1
  H+  H136  1  0.63153300  0.77001095  0.66818484  1
  H+  H137  1  0.36753159  0.97477481  0.67796711  1
  H+  H138  1  0.13758838  0.11322799  0.98031574  1
  H+  H139  1  0.27519324  0.38761758  0.16081224  1
  H+  H140  1  0.88075095  0.77388613  0.32199160  1
  H+  H141  1  0.13949126  0.78113124  0.15821600  1
  H+  H142  1  0.13907234  0.86345445  0.83532735  1
  H+  H143  1  0.08966986  0.66577090  0.76935047  1
  H+  H144  1  0.13624574  0.35493899  0.17618843  1
  H+  H145  1  0.11046810  0.62552314  0.14809684  1
  H+  H146  1  0.85567264  0.99818189  0.47844294  1
  H+  H147  1  0.86226827  0.52317483  0.50826756  1
  H+  H148  1  0.47241201  0.88009653  0.31720451  1
  H+  H149  1  0.88951736  0.11102873  0.84568860  1
  H+  H150  1  0.37212077  0.96374330  -0.02324333  1
  H+  H151  1  0.88473963  0.77017751  0.66193141  1
  H+  H152  1  0.58950986  0.16820675  0.05808702  1
  H+  H153  1  0.27251073  0.13572637  -0.00926851  1
  H+  H154  1  0.64128417  0.91238496  0.68703944  1
  H+  H155  1  0.10718697  0.13663227  0.66398593  1
  H+  H156  1  0.61022546  0.14434140  0.16013183  1
  H+  H157  1  0.32384906  0.40435873  0.41697509  1
  H+  H158  1  0.13788600  0.27360266  0.83329211  1
  H+  H159  1  0.66181651  0.62123800  0.02242074  1
  H+  H160  1  0.39445103  1.02449412  0.50842347  1
  H+  H161  1  0.60915286  0.63079319  0.67327961  1
  H+  H162  1  0.17796990  0.58736043  0.93178784  1
  H+  H163  1  0.86729651  0.38953556  0.82657606  1
  H+  H164  1  0.47468594  0.61183034  0.84140115  1
  H+  H165  1  0.23810938  0.65655675  0.35933947  1
  H+  H166  1  0.97033295  0.86661407  0.16270858  1
  H+  H167  1  0.64750187  0.28546173  0.16705180  1
  H+  H168  1  0.11362602  0.38729691  0.82289292  1
  H+  H169  1  0.47394371  0.36234037  0.98595268  1
  H+  H170  1  0.77175463  0.63482592  0.82520230  1
  H+  H171  1  0.51956812  0.73317674  0.11057729  1
  H+  H172  1  0.39027090  0.27349621  0.51250292  1
  H+  H173  1  0.61288473  0.47298908  0.34409629  1
  H+  H174  1  0.85819309  0.63111085  0.67839033  1
  H+  H175  1  0.66107509  0.08297174  0.91793553  1
  H+  H176  1  0.08042961  0.41372689  0.76379941  1
  H+  H177  1  0.10352993  -0.01932499  0.14978263  1
  H+  H178  1  0.17873646  1.07855435  0.57955571  1
  H+  H179  1  0.88321407  0.62071662  0.32926681  1
  H+  H180  1  0.07738251  0.40065581  0.10409742  1
  H+  H181  1  0.61362774  0.62949448  0.49839270  1
  H+  H182  1  0.11504006  0.13745847  0.81693661  1
  H+  H183  1  0.14255691  0.61434561  0.83689090  1
  H+  H184  1  0.12404678  0.48285416  0.49385531  1
  H+  H185  1  0.02070941  0.37460288  0.16691710  1
  H+  H186  1  0.71892164  0.11839991  0.17959823  1
  H+  H187  1  0.35875526  0.89541790  0.15898302  1
  H+  H188  1  0.43598265  0.65424020  0.33214512  1
  H+  H189  1  0.63378694  0.26224914  0.66640709  1
  H+  H190  1  0.66624089  0.57904701  0.56877561  1
  H+  H191  1  0.60899725  0.37831242  0.66808298  1
  H+  H192  1  0.13862090  0.77325609  0.83895347  1
  H+  H193  1  0.38458015  0.10942066  0.66137306  1
  H+  H194  1  0.88987564  0.86189466  0.83294555  1
  H+  H195  1  0.63318197  0.51641441  0.65996699  1
  H+  H196  1  0.23616868  0.84990675  0.66307990  1
  H+  H197  1  0.86018533  0.14164616  0.15524633  1
  H+  H198  1  0.52490736  0.38184259  0.82162902  1
  H+  H199  1  0.65328958  0.07604471  0.56006913  1
  H+  H200  1  -0.02719998  0.11623478  0.63963147  1
  H+  H201  1  0.11914084  0.86587649  -0.01406823  1
  H+  H202  1  0.12282128  0.48272121  0.00584023  1
  H+  H203  1  0.11788303  0.38234655  0.66976200  1
  H+  H204  1  0.64182920  0.52148031  0.82930308  1
  H+  H205  1  0.24937488  0.66569498  0.32624717  1
  H+  H206  1  0.42207765  0.08081548  0.60662277  1
  H+  H207  1  0.77516883  0.43566428  0.17013334  1
  H+  H208  1  0.12563079  0.17827896  0.45142745  1
  H+  H209  1  0.15447686  0.09778436  0.32353314  1
  H+  H210  1  0.22778496  0.60771090  0.65888138  1
  H+  H211  1  0.63375779  0.36705455  0.32410348  1
  H+  H212  1  0.14137280  0.28619009  0.65753069  1
  H+  H213  1  0.61199926  0.72158542  0.82542040  1
  H+  H214  1  0.96406896  0.13555686  0.37099417  1
  H+  H215  1  0.03248641  0.89613166  0.48655824  1
  H+  H216  1  0.88164624  0.11265867  0.62669702  1
  H+  H217  1  0.72015866  0.36356453  0.98979635  1
  H+  H218  1  0.18101963  0.14993215  0.20579937  1
  H+  H219  1  0.39052900  0.37232465  0.32968494  1
  H+  H220  1  0.88938666  0.01941762  0.99098054  1
  H+  H221  1  0.88368154  0.33853350  0.49166640  1
  H+  H222  1  0.01669764  0.64045099  0.33303167  1
  H+  H223  1  0.35892636  0.89018219  0.34274111  1
  H+  H224  1  0.75785388  0.34188856  0.48724144  1
  H+  H225  1  0.23411938  0.62201603  0.50439128  1
  H+  H226  1  0.45881745  0.85298317  0.17738680  1
  H+  H227  1  0.21768939  0.19739936  0.37497315  1
  H+  H228  1  0.38571559  0.02939493  0.16089136  1
  H+  H229  1  0.38984225  0.61524824  0.00669478  1
  H+  H230  1  0.60887702  0.89516736  0.17308245  1
  H+  H231  1  0.63898902  0.60826996  0.83277030  1
  H+  H232  1  0.02639455  0.63408068  0.14804980  1
  H+  H233  1  0.84758189  0.18036641  0.79752457  1
  H+  H234  1  0.27530460  0.38784276  0.82357099  1
  H+  H235  1  0.84057760  0.48365442  0.52777166  1
  H+  H236  1  0.13835312  0.26871168  0.16932317  1
  H+  H237  1  0.40084394  0.02808532  0.83730303  1
  H+  H238  1  0.09479465  0.58622835  0.30910215  1
  H+  H239  1  0.31824882  0.46129829  0.36528168  1
  H+  H240  1  0.14275258  0.77745543  0.33494599  1
  H+  H241  1  0.37030426  0.13767223  0.82310835  1
  H+  H242  1  0.14062968  0.86695969  0.50505982  1
  H+  H243  1  0.10792694  -0.03682856  0.33686173  1
  H+  H244  1  0.14936275  0.36749653  0.51520676  1
  H+  H245  1  0.85401576  0.22224455  0.61847374  1
  H+  H246  1  0.97293397  0.36518988  0.33612229  1
  H+  H247  1  0.75752273  0.13209634  0.35640752  1
  H+  H248  1  0.77101059  0.13356500  0.84518233  1
  H+  H249  1  0.91485108  0.57917560  0.89221604  1
  H+  H250  1  0.65620275  0.76148988  0.51267752  1
  H+  H251  1  0.10828658  0.37488843  0.34119179  1
  H+  H252  1  0.36215204  0.38223911  0.50295337  1
  H+  H253  1  0.86072770  0.97683432  0.66016966  1
  H+  H254  1  0.63526295  0.35724577  0.51103110  1
  H+  H255  1  0.86850984  0.73196476  0.13627554  1
  H+  H256  1  0.57975127  0.67711582  0.05981802  1
  H+  H257  1  0.73323213  0.86911836  0.33491531  1
  H+  H258  1  0.13991400  1.02056891  0.82991810  1
  H+  H259  1  0.83766269  0.92524035  0.39027833  1
  H+  H260  1  0.63777390  0.52013997  0.50855829  1
  H+  H261  1  0.47111281  0.35959809  0.66116527  1
  H+  H262  1  0.38510862  0.52426533  0.83991733  1
  H+  H263  1  0.63507496  0.27209146  0.98578246  1
  H+  H264  1  0.76816081  0.13405643  -0.01485302  1
  H+  H265  1  0.36981430  0.72887552  0.49631407  1
  H+  H266  1  0.49952363  0.65673327  0.15394988  1
  H+  H267  1  0.39522844  0.11413071  0.50973888  1
  H+  H268  1  0.88577353  0.79195151  0.47880049  1
  H+  H269  1  -0.02891932  0.11959486  0.16054503  1
  H+  H270  1  0.64782923  0.04542880  0.66357938  1
  H+  H271  1  0.38040016  0.51562935  0.66240689  1
  H+  H272  1  0.91441714  0.26985251  0.50080640  1
  H+  H273  1  0.47860678  0.86141738  0.50184799  1
  H+  H274  1  0.64228969  0.13895099  0.33654806  1
  H+  H275  1  0.09551292  0.49719781  0.31102723  1
  H+  H276  1  0.38976479  0.36960915  0.17808039  1
  H+  H277  1  0.35147835  0.38389776  0.67223525  1
  H+  H278  1  0.13247025  0.86542632  0.15825949  1
  H+  H279  1  0.61571233  0.97475319  0.84054668  1
  H+  H280  1  0.36818551  0.63924681  0.82926059  1
  H+  H281  1  0.61475763  0.38205111  0.82108476  1
  H+  H282  1  0.72854905  0.86013098  0.83246272  1
  H+  H283  1  0.26786681  0.62877745  0.15754995  1
  H+  H284  1  0.60748484  0.97239641  0.48677568  1
  H+  H285  1  0.86754109  0.38626576  0.66443617  1
  H+  H286  1  0.89462538  0.86825217  0.98903788  1
  H+  H287  1  0.86441194  0.97412295  0.82091263  1
  H+  H288  1  0.38566401  0.36399276  0.98782570  1
  H+  H289  1  0.10031740  0.13184993  0.14216447  1
  H+  H290  1  0.33444671  0.41666035  0.06330589  1
  H+  H291  1  0.67986625  0.96510741  0.04656979  1
  H+  H292  1  0.66138351  0.83580362  0.24023660  1
  H+  H293  1  0.67410111  0.82763329  0.89430008  1
  H+  H294  1  0.16828177  0.33353808  0.89311107  1
  H+  H295  1  0.73078024  0.54950868  0.19488117  1
  H+  H296  1  0.83585304  0.91791681  0.76017352  1
  H+  H297  1  0.01385060  0.57352338  0.46980745  1
  H+  H298  1  0.08540110  0.91558423  0.76279390  1
  H+  H299  1  0.42868904  0.09314864  0.92911998  1
  H+  H300  1  0.66400029  0.82868445  0.60944450  1
  H+  H301  1  0.92078495  0.34910798  0.94186368  1
  H+  H302  1  0.47025870  0.03910344  0.27487697  1
  H+  H303  1  0.91537916  0.10308951  0.54440098  1
  H+  H304  1  0.84817560  0.21293683  0.11746739  1
  H+  H305  1  0.36651732  0.63725202  0.49703298  1
  H+  H306  1  0.07783411  0.92337875  0.08968725  1
  H+  H307  1  0.82705431  0.66356391  0.73500761  1
  H+  H308  1  0.06988437  0.16561190  0.71793970  1
  H+  H309  1  0.96977352  0.86090530  0.32314306  1
  H+  H310  1  0.82425271  0.18056210  0.72131257  1
  H+  H311  1  0.91141661  0.83006661  0.22210774  1
  H+  H312  1  0.66982472  0.57324253  0.27069186  1
  H+  H313  1  0.41575121  0.33381171  0.89227303  1
  H+  H314  1  0.58155900  0.40996241  0.72759902  1
  H+  H315  1  0.77186687  0.88930146  0.67068410  1
  H+  H316  1  0.59090516  0.66496787  0.43888507  1
  H+  H317  1  0.15633341  0.83249235  0.92216340  1
  H+  H318  1  0.57794161  0.92436869  0.11450918  1
  H+  H319  1  0.92812258  0.60229422  0.61222831  1
  H+  H320  1  0.40086319  0.82953791  0.26613546  1
  H+  H321  1  0.52408799  0.63542527  0.00137339  1
  H+  H322  1  0.76953452  0.39320630  0.33445961  1
  H+  H323  1  0.37263235  0.87689633  0.97680295  1
  H+  H324  1  0.16507936  0.08119537  0.92053404  1
  H+  H325  1  0.60909332  0.93808512  0.74575498  1
  H+  H326  1  0.09236687  0.41665509  0.40094053  1
  H+  H327  1  0.87168738  0.66776430  0.50093771  1
  H+  H328  1  0.31550832  0.15391321  0.08502324  1
  H+  H329  1  0.33999444  0.91325006  0.76721708  1
  H+  H330  1  0.13705211  0.56447621  0.21819984  1
  H+  H331  1  0.81465052  0.37813181  0.42643081  1
  H+  H332  1  0.41407409  0.58539840  0.94128647  1
  H+  H333  1  0.63696707  0.28056208  0.32364991  1
  H+  H334  1  0.33583895  0.16681784  0.72618877  1
  H+  H335  1  0.92412610  0.07326388  0.89506205  1
  H+  H336  1  0.41902369  0.55708648  0.32343237  1
  H+  H337  1  0.41928565  0.34288826  0.26810313  1
  H+  H338  1  0.33222089  0.41935468  0.76355465  1
  H+  H339  1  0.12263123  0.71732459  0.67530579  1
  H+  H340  1  0.07874056  0.17123105  0.08475573  1
  H+  H341  1  0.33678888  0.65911369  0.09837108  1
  H+  H342  1  0.16580988  0.31907899  0.26923105  1
  H+  H343  1  0.17661057  0.34550654  0.58312267  1
  H+  H344  1  0.12478220  0.97980303  0.49995194  1
  H+  H345  1  0.84632927  0.15407326  0.71939077  1
  H+  H346  1  0.41429657  0.57727299  0.60346482  1
  H+  H347  1  0.88262322  0.03001635  0.16281205  1
  H+  H348  1  0.12292916  0.77047574  0.98744343  1
  H+  H349  1  0.41577450  0.09337114  0.21732306  1
  H+  H350  1  0.82286530  0.13609739  0.41567340  1
  H+  H351  1  0.16946043  0.05998815  0.26163326  1
  H+  H352  1  0.92961336  0.34335098  0.58928571  1
  H+  H353  1  0.67587936  0.10956925  0.27707141  1
  H+  H354  1  0.29366701  0.63657834  0.01721616  1
  H+  H355  1  0.59584807  0.17467317  0.76002547  1
  H+  H356  1  0.92295275  0.83862045  0.92883688  1
  H+  H357  1  0.03561110  0.39247790  0.49098482  1
  H+  H358  1  0.58164995  0.41325173  0.43859456  1
  H+  H359  1  0.07723239  0.91331889  0.39985395  1
  H+  H360  1  0.17864835  0.82160229  0.60295954  1
  H+  H361  1  0.53806290  0.14655788  0.68121511  1
  H+  H362  1  0.17472858  0.58994390  0.56536931  1
  H+  H363  1  0.33941453  0.92302411  0.43574196  1
  H+  H364  1  0.99192927  0.73357624  0.56293369  1
  H+  H365  1  0.83341503  0.67261492  0.39993186  1
  H+  H366  1  0.57249772  0.40352066  0.05791432  1
  H+  H367  1  0.84410541  0.47489893  1.01794021  1
  H+  H368  1  0.41611657  0.83170147  0.60198892  1
  H+  H369  1  0.82688428  0.14170349  0.53076159  1
  H+  H370  1  0.38806918  0.69458850  0.40740205  1
  H+  H371  1  0.11075462  0.98091206  0.67700991  1
  H+  H372  1  0.87776901  0.07901721  0.25620089  1
  H+  H373  1  0.92759252  0.34485790  0.24596505  1
  H+  H374  1  0.47666013  0.60877671  0.50854547  1
  H+  H375  1  0.07568804  0.65642252  0.39095497  1
  H+  H376  1  0.41715155  0.33416268  0.57128772  1
  H+  H377  1  0.83925696  0.41449105  0.72556980  1
  H+  H378  1  0.33407453  0.66239222  0.73180398  1
  H+  H379  1  0.34810835  0.12800911  0.14555728  1
  H+  H380  1  0.33370534  0.17210706  0.44451438  1
  H+  H381  1  0.57774688  0.66042528  0.76736209  1
  H+  H382  1  0.08888241  0.67324575  0.05837571  1
  H+  H383  1  0.42418455  0.59615587  0.22978844  1
  O2-  O384  1  0.07365462  0.16654031  0.13052444  1
  O2-  O385  1  0.11712158  0.17490376  0.49584138  1
  O2-  O386  1  0.08514156  0.16909240  0.80439797  1
  O2-  O387  1  0.08090083  0.40041123  0.14903720  1
  O2-  O388  1  0.09738740  0.42302181  0.47819490  1
  O2-  O389  1  0.08249784  0.41762021  0.80962498  1
  O2-  O390  1  0.08524602  0.66216445  0.13316999  1
  O2-  O391  1  0.06236404  0.63119322  0.47617088  1
  O2-  O392  1  0.09012071  0.66841199  0.81520252  1
  O2-  O393  1  0.07273606  0.92125973  0.13514689  1
  O2-  O394  1  0.09612874  0.92145374  0.48081068  1
  O2-  O395  1  0.08934480  0.91518452  0.80977730  1
  O2-  O396  1  0.30796056  0.14675914  0.13007043  1
  O2-  O397  1  0.34218524  0.16850454  0.48891619  1
  O2-  O398  1  0.33605316  0.16411079  0.80847569  1
  O2-  O399  1  0.33471594  0.41897664  0.14420473  1
  O2-  O400  1  0.33175490  0.41257215  0.48751548  1
  O2-  O401  1  0.33618781  0.41939223  0.80936383  1
  O2-  O402  1  0.33033298  0.66092954  0.14806971  1
  O2-  O403  1  0.33894410  0.66855921  0.47901491  1
  O2-  O404  1  0.34017790  0.67179889  0.81276724  1
  O2-  O405  1  0.33678132  0.93223981  0.14367622  1
  O2-  O406  1  0.34127860  0.92088944  0.48138686  1
  O2-  O407  1  0.34443223  0.91355341  0.81352724  1
  O2-  O408  1  0.58630047  0.17676794  0.13929924  1
  O2-  O409  1  0.58379112  0.16723973  0.47311264  1
  O2-  O410  1  0.59153868  0.17302460  0.80847183  1
  O2-  O411  1  0.57078315  0.40179037  0.13734370  1
  O2-  O412  1  0.58438597  0.41624333  0.48398584  1
  O2-  O413  1  0.58438954  0.41168288  0.80472390  1
  O2-  O414  1  0.54904146  0.70771716  0.13196569  1
  O2-  O415  1  0.58679738  0.66407680  0.48410101  1
  O2-  O416  1  0.57799744  0.66014560  0.81285061  1
  O2-  O417  1  0.57536682  0.92298334  0.15923339  1
  O2-  O418  1  0.57524576  0.91286044  0.46903291  1
  O2-  O419  1  0.57937683  0.91186411  0.82842464  1
  O2-  O420  1  0.82091945  0.16578798  0.14638471  1
  O2-  O421  1  0.85643786  0.14761148  0.48989683  1
  O2-  O422  1  0.83989544  0.17169533  0.84151059  1
  O2-  O423  1  0.83355575  0.48698711  0.16349453  1
  O2-  O424  1  0.80707555  0.34533517  0.46444863  1
  O2-  O425  1  0.83827913  0.41824458  0.80693485  1
  O2-  O426  1  0.85365817  0.67474718  0.11990523  1
  O2-  O427  1  0.82992487  0.67672017  0.47734644  1
  O2-  O428  1  0.83398598  0.66894652  0.81053960  1
  O2-  O429  1  0.83057771  0.92142773  0.14384140  1
  O2-  O430  1  0.83301806  0.93754412  0.46470420  1
  O2-  O431  1  0.83339976  0.91368919  0.80560381  1
  O2-  O432  1  0.16833748  0.09897992  0.18214612  1
  O2-  O433  1  0.18147058  0.08102381  0.53484079  1
  O2-  O434  1  0.16829071  0.08234390  0.84346543  1
  O2-  O435  1  0.16871106  0.32554290  0.18981203  1
  O2-  O436  1  0.18057448  0.34085545  0.53374152  1
  O2-  O437  1  0.16769324  0.33458767  0.84772988  1
  O2-  O438  1  0.15363337  0.57206800  0.17340626  1
  O2-  O439  1  0.17318902  0.59158835  0.51942545  1
  O2-  O440  1  0.17490302  0.58514441  0.85020654  1
  O2-  O441  1  0.16852785  0.84140119  0.17152283  1
  O2-  O442  1  0.17137720  0.83554006  0.51916016  1
  O2-  O443  1  0.16836691  0.83382204  0.85463382  1
  O2-  O444  1  0.41631108  0.09349749  0.17255707  1
  O2-  O445  1  0.42699478  0.08490511  0.52386815  1
  O2-  O446  1  0.42804915  0.08937562  0.84918042  1
  O2-  O447  1  0.41847639  0.34142319  0.19840135  1
  O2-  O448  1  0.41932471  0.33527917  0.52529123  1
  O2-  O449  1  0.41743912  0.33191826  0.84676266  1
  O2-  O450  1  0.41295064  0.58652159  0.18544026  1
  O2-  O451  1  0.41627097  0.58072072  0.52326906  1
  O2-  O452  1  0.41386304  0.58428083  0.85620792  1
  O2-  O453  1  0.39821649  0.82227646  0.19055271  1
  O2-  O454  1  0.41875504  0.82955044  0.51970216  1
  O2-  O455  1  0.41784930  0.83099272  0.84698643  1
  O2-  O456  1  0.66144362  0.09267266  0.19904393  1
  O2-  O457  1  0.65926641  0.07302315  0.51519818  1
  O2-  O458  1  0.67708389  0.08162278  0.83992792  1
  O2-  O459  1  0.67187888  0.34489680  0.18335141  1
  O2-  O460  1  0.66163389  0.32284865  0.52445109  1
  O2-  O461  1  0.67421651  0.33622588  0.84686271  1
  O2-  O462  1  0.67958638  0.55794449  0.19357303  1
  O2-  O463  1  0.66761687  0.58150563  0.52297172  1
  O2-  O464  1  0.67364694  0.58156665  0.84433942  1
  O2-  O465  1  0.66404224  0.84419394  0.19589058  1
  O2-  O466  1  0.70221940  0.81496786  0.53336915  1
  O2-  O467  1  0.66866307  0.82914963  0.84920628  1
  O2-  O468  1  0.91055728  0.09147989  0.17597947  1
  O2-  O469  1  0.90666715  0.10439089  0.49863877  1
  O2-  O470  1  0.92057806  0.07797077  0.84999152  1
  O2-  O471  1  0.92897601  0.33938608  0.19981873  1
  O2-  O472  1  0.93104340  0.32982750  0.51011953  1
  O2-  O473  1  0.92300106  0.34444775  0.86443257  1
  O2-  O474  1  0.82796474  0.55528606  0.19667636  1
  O2-  O475  1  0.96169473  0.67582658  0.54556906  1
  O2-  O476  1  0.91961506  0.58163507  0.84766143  1
  O2-  O477  1  0.90918858  0.83346806  0.17696418  1
  O2-  O478  1  0.92804659  0.85391797  0.47682965  1
  O2-  O479  1  0.92101428  0.83387056  0.85016670  1
  O2-  O480  1  0.17461198  0.05923742  0.30632767  1
  O2-  O481  1  0.16818765  0.09105497  0.66875477  1
  O2-  O482  1  0.16532230  0.08014450  0.96628768  1
  O2-  O483  1  0.16212378  0.31632196  0.31469666  1
  O2-  O484  1  0.17240936  0.34753969  0.64640491  1
  O2-  O485  1  0.17173879  0.33725776  0.97264558  1
  O2-  O486  1  0.09526782  0.54095104  0.28386146  1
  O2-  O487  1  0.16856023  0.57892383  0.64091338  1
  O2-  O488  1  0.17631870  0.58692812  0.97705288  1
  O2-  O489  1  0.17601120  0.84090389  0.33212089  1
  O2-  O490  1  0.17814171  0.80939724  0.64657525  1
  O2-  O491  1  0.14675190  0.83050227  0.96924173  1
  O2-  O492  1  0.44203566  0.06535615  0.29674852  1
  O2-  O493  1  0.41661830  0.07865365  0.65160246  1
  O2-  O494  1  0.42928031  0.09297635  0.97447908  1
  O2-  O495  1  0.41929354  0.34118201  0.31517316  1
  O2-  O496  1  0.41062277  0.33191445  0.64614201  1
  O2-  O497  1  0.41301492  0.33199550  0.97054610  1
  O2-  O498  1  0.45264407  0.61477826  0.30697260  1
  O2-  O499  1  0.41488704  0.57787161  0.64878063  1
  O2-  O500  1  0.42004865  0.58333545  0.98595492  1
  O2-  O501  1  0.40992850  0.83966014  0.31135139  1
  O2-  O502  1  0.41260241  0.83147306  0.64701849  1
  O2-  O503  1  0.42664464  0.81606448  0.99543601  1
  O2-  O504  1  0.67397054  0.10760621  0.32261224  1
  O2-  O505  1  0.66223646  0.09702277  0.63860561  1
  O2-  O506  1  0.66502761  0.08421602  0.96306674  1
  O2-  O507  1  0.66530114  0.33955792  0.30585094  1
  O2-  O508  1  0.66014983  0.32465812  0.64581888  1
  O2-  O509  1  0.66187181  0.33213416  0.97009803  1
  O2-  O510  1  0.67142319  0.57559912  0.31596873  1
  O2-  O511  1  0.66236841  0.57776995  0.64569861  1
  O2-  O512  1  0.69589021  0.59538843  1.03635802  1
  O2-  O513  1  0.66785247  0.83774289  0.32733189  1
  O2-  O514  1  0.66250551  0.83123349  0.65424685  1
  O2-  O515  1  0.67291533  0.82716302  0.97287497  1
  O2-  O516  1  0.84418956  0.05725498  0.29424958  1
  O2-  O517  1  0.91491935  0.08285550  0.61913648  1
  O2-  O518  1  0.92102806  0.07861829  0.97281907  1
  O2-  O519  1  0.91488508  0.33840566  0.31781213  1
  O2-  O520  1  0.92029900  0.33519842  0.63405615  1
  O2-  O521  1  0.92015342  0.34678461  0.98752448  1
  O2-  O522  1  0.91077626  0.58829270  0.31209810  1
  O2-  O523  1  0.92177226  0.58653951  0.65566875  1
  O2-  O524  1  0.91114593  0.59844196  0.97922964  1
  O2-  O525  1  0.91060135  0.83342144  0.30491751  1
  O2-  O526  1  0.91785697  0.82878466  0.64461195  1
  O2-  O527  1  0.92867004  0.84257540  0.97405190  1
  O2-  O528  1  0.08836409  0.17095353  0.00912190  1
  O2-  O529  1  0.15564396  0.17715763  0.36885986  1
  O2-  O530  1  0.07041691  0.16408824  0.67298994  1
  O2-  O531  1  0.09246733  0.42175513  0.02071264  1
  O2-  O532  1  0.08324834  0.40972587  0.35590739  1
  O2-  O533  1  0.07998963  0.40822024  0.68574815  1
  O2-  O534  1  0.08908191  0.67684573  0.01253298  1
  O2-  O535  1  0.07763580  0.66481491  0.34662476  1
  O2-  O536  1  0.08942157  0.65737098  0.69379688  1
  O2-  O537  1  0.08351192  0.91744116  0.01143859  1
  O2-  O538  1  0.06951432  0.90517179  0.35502556  1
  O2-  O539  1  0.08125510  0.92040903  0.69293126  1
  O2-  O540  1  0.33125551  0.16519792  0.00874028  1
  O2-  O541  1  0.31516697  0.19140353  0.36985645  1
  O2-  O542  1  0.33349417  0.16668408  0.68101780  1
  O2-  O543  1  0.33441590  0.41690839  0.01792847  1
  O2-  O544  1  0.32130206  0.40898804  0.37027509  1
  O2-  O545  1  0.32446001  0.41689211  0.68736539  1
  O2-  O546  1  0.35035430  0.65948566  0.03630576  1
  O2-  O547  1  0.42460802  0.71484476  0.37006770  1
  O2-  O548  1  0.33054329  0.65971631  0.68663775  1
  O2-  O549  1  0.34112657  0.90487610  -0.03894671  1
  O2-  O550  1  0.33637176  0.92719502  0.35875843  1
  O2-  O551  1  0.33893488  0.91451530  0.69424830  1
  O2-  O552  1  0.58948091  0.16637739  0.01280363  1
  O2-  O553  1  0.58786627  0.18027812  0.35559152  1
  O2-  O554  1  0.59896067  0.17796243  0.69333271  1
  O2-  O555  1  0.57624657  0.41170250  0.01291835  1
  O2-  O556  1  0.58145331  0.41234060  0.35897945  1
  O2-  O557  1  0.58001717  0.41101016  0.68197236  1
  O2-  O558  1  0.58592074  0.66955037  0.01594157  1
  O2-  O559  1  0.60398484  0.66783732  0.35902249  1
  O2-  O560  1  0.57982348  0.66188257  0.68870049  1
  O2-  O561  1  0.62370825  0.94166906  0.02749547  1
  O2-  O562  1  0.57960923  0.93809839  0.33751531  1
  O2-  O563  1  0.63947258  0.96068435  0.70693855  1
  O2-  O564  1  0.82621540  0.15769582  0.00534836  1
  O2-  O565  1  0.81674120  0.14243001  0.37077019  1
  O2-  O566  1  0.82063615  0.16111710  0.60541170  1
  O2-  O567  1  0.81413739  0.41320772  0.02584777  1
  O2-  O568  1  0.82731836  0.42077274  0.35406965  1
  O2-  O569  1  0.83817258  0.41721211  0.68032052  1
  O2-  O570  1  0.87961039  0.64627403  -0.01001408  1
  O2-  O571  1  0.83463261  0.67219875  0.35439757  1
  O2-  O572  1  0.82464033  0.65961596  0.68923184  1
  O2-  O573  1  0.83551394  0.91777417  0.01869626  1
  O2-  O574  1  0.83116598  0.91630771  0.34496663  1
  O2-  O575  1  0.83425236  0.92052936  0.68133095  1
