# generated using pymatgen
data_H2O
_symmetry_space_group_name_H-M   'P 1'
_cell_length_a   17.98583281
_cell_length_b   17.99232836
_cell_length_c   21.99933572
_cell_angle_alpha   89.97922359
_cell_angle_beta   90.02418555
_cell_angle_gamma   119.98822071
_symmetry_Int_Tables_number   1
_chemical_formula_structural   H2O
_chemical_formula_sum   'H384 O192'
_cell_volume   6166.08647119
_cell_formula_units_Z   192
loop_
 _symmetry_equiv_pos_site_id
 _symmetry_equiv_pos_as_xyz
  1  'x, y, z'
loop_
 _atom_type_symbol
 _atom_type_oxidation_number
  H+  1.0
  O2-  -2.0
loop_
 _atom_site_type_symbol
 _atom_site_label
 _atom_site_symmetry_multiplicity
 _atom_site_fract_x
 _atom_site_fract_y
 _atom_site_fract_z
 _atom_site_occupancy
  H+  H0  1  0.86891015  0.29781531  0.51541734  1
  H+  H1  1  0.22626510  0.61192652  0.17271375  1
  H+  H2  1  0.86798085  0.36949342  0.67009144  1
  H+  H3  1  0.27706213  0.64561725  0.67631506  1
  H+  H4  1  0.98876313  0.87194901  0.50779679  1
  H+  H5  1  0.60712565  0.91112530  0.33992216  1
  H+  H6  1  0.13492060  0.78115277  0.66664651  1
  H+  H7  1  0.33766306  0.91926170  0.09855653  1
  H+  H8  1  0.36092866  0.62436344  0.00386767  1
  H+  H9  1  0.90927517  0.57623783  0.89646681  1
  H+  H10  1  0.60586806  0.13198993  0.15131323  1
  H+  H11  1  0.63572842  0.12164252  0.32378257  1
  H+  H12  1  0.57042378  0.24356363  0.90836572  1
  H+  H13  1  0.20594543  0.59834397  0.50803232  1
  H+  H14  1  0.28283393  0.40965264  0.21591944  1
  H+  H15  1  0.11170909  0.73765400  0.83622441  1
  H+  H16  1  0.38528776  0.52032843  0.84062938  1
  H+  H17  1  0.00329332  0.59785973  0.00980871  1
  H+  H18  1  0.32989566  0.90925398  0.44697198  1
  H+  H19  1  0.51086675  0.12542256  0.81131560  1
  H+  H20  1  0.59520334  0.45175216  0.45774328  1
  H+  H21  1  0.86915517  0.64781198  0.48776251  1
  H+  H22  1  0.36072121  0.65728676  0.36703488  1
  H+  H23  1  0.35575223  0.21177868  0.15828407  1
  H+  H24  1  0.63847135  0.86302154  0.99121076  1
  H+  H25  1  0.27120349  0.63886705  0.83164485  1
  H+  H26  1  0.61566201  0.39073190  0.83382785  1
  H+  H27  1  0.61506081  0.89246568  0.15690231  1
  H+  H28  1  0.34495348  0.63083457  0.50245131  1
  H+  H29  1  0.60435721  0.99621788  0.34335950  1
  H+  H30  1  0.86519087  0.40769497  0.48897256  1
  H+  H31  1  0.33038465  0.16499384  0.40710638  1
  H+  H32  1  0.77569584  0.63325758  0.67565156  1
  H+  H33  1  0.89531615  0.51477747  0.66612574  1
  H+  H34  1  0.53563601  0.89436942  0.83288852  1
  H+  H35  1  0.21928562  0.37075550  0.36117365  1
  H+  H36  1  0.86629125  0.88217915  0.48963380  1
  H+  H37  1  0.61368356  0.22113169  0.66226004  1
  H+  H38  1  0.63166006  0.11534041  0.83819107  1
  H+  H39  1  0.90718174  0.83634432  0.37227274  1
  H+  H40  1  0.77258398  0.88039530  0.00618683  1
  H+  H41  1  0.11471527  0.13998316  0.82491325  1
  H+  H42  1  0.26534222  0.38123208  0.18843750  1
  H+  H43  1  0.77172265  0.39481950  0.48310864  1
  H+  H44  1  0.62900692  0.76844703  0.65882948  1
  H+  H45  1  0.87025048  0.38234985  0.33095568  1
  H+  H46  1  0.73167986  0.35401704  0.65647815  1
  H+  H47  1  0.89122115  0.11423333  0.31680905  1
  H+  H48  1  0.13214284  0.61056696  0.32653937  1
  H+  H49  1  0.41451935  0.83290513  0.26716385  1
  H+  H50  1  0.62476373  0.89195457  0.48968380  1
  H+  H51  1  1.01784141  0.88196930  0.67446594  1
  H+  H52  1  0.03319789  0.88490130  0.00016542  1
  H+  H53  1  0.83255740  0.16493658  0.72377419  1
  H+  H54  1  0.65891893  0.83106772  0.60121118  1
  H+  H55  1  0.61794087  0.97717247  0.67614550  1
  H+  H56  1  0.38973133  0.99701024  0.01253397  1
  H+  H57  1  0.24290918  0.87057263  0.50664260  1
  H+  H58  1  0.36437475  0.89458298  0.33935184  1
  H+  H59  1  0.61243098  0.80476115  0.31247106  1
  H+  H60  1  0.13769858  0.37834906  0.66890714  1
  H+  H61  1  0.54348907  0.36419794  0.30398816  1
  H+  H62  1  0.01965747  0.39669015  0.00773980  1
  H+  H63  1  0.10681997  -0.02195332  0.82706812  1
  H+  H64  1  0.26999756  0.89097487  0.67128119  1
  H+  H65  1  0.16753042  0.08476615  0.59451263  1
  H+  H66  1  0.72208313  0.11455589  0.32031375  1
  H+  H67  1  0.61381103  0.98036436  0.15838585  1
  H+  H68  1  0.10085222  0.48203372  0.15983759  1
  H+  H69  1  0.96870372  0.36868919  0.50417204  1
  H+  H70  1  0.34590533  0.88363569  0.82425787  1
  H+  H71  1  0.88428184  0.86003000  0.83751660  1
  H+  H72  1  0.87108680  0.88877557  0.15664116  1
  H+  H73  1  0.52890030  0.62093209  0.33516552  1
  H+  H74  1  0.34160549  0.16058321  0.09498902  1
  H+  H75  1  0.02669183  0.88475485  0.33168082  1
  H+  H76  1  0.96956898  0.11455319  0.65816531  1
  H+  H77  1  0.85959558  -0.02896446  0.66760899  1
  H+  H78  1  0.58749347  0.16771253  0.39875112  1
  H+  H79  1  0.89876765  0.78250625  0.50085987  1
  H+  H80  1  0.63936797  0.03183182  0.84677310  1
  H+  H81  1  0.74057717  0.10916504  0.50395058  1
  H+  H82  1  0.61019746  0.39830920  0.02147447  1
  H+  H83  1  0.37728579  0.22277512  1.00282930  1
  H+  H84  1  0.36481173  0.72367362  0.15643620  1
  H+  H85  1  0.47450112  0.61350005  0.98993352  1
  H+  H86  1  0.79114304  0.39198897  0.82659214  1
  H+  H87  1  0.19090986  0.02281437  0.56001888  1
  H+  H88  1  0.12146261  0.25636523  0.49339115  1
  H+  H89  1  0.86974129  0.23275422  0.66752988  1
  H+  H90  1  0.87493990  0.73051900  0.16445146  1
  H+  H91  1  0.41715944  0.52903198  0.15816843  1
  H+  H92  1  0.73590339  0.40254498  1.00743560  1
  H+  H93  1  0.10018249  0.62650963  1.00875389  1
  H+  H94  1  0.87163448  0.38083275  0.83509425  1
  H+  H95  1  0.00277077  0.37756171  0.67559057  1
  H+  H96  1  0.73611849  0.11540755  0.65516866  1
  H+  H97  1  0.28783290  0.12634250  0.63597871  1
  H+  H98  1  0.88530063  0.77164579  0.83926721  1
  H+  H99  1  1.01670674  0.88717188  0.82916823  1
  H+  H100  1  0.27635915  0.89335887  0.34064700  1
  H+  H101  1  0.21617805  0.35822891  0.49581384  1
  H+  H102  1  0.37846735  0.36224593  0.50571562  1
  H+  H103  1  0.14535642  0.88839981  0.99240432  1
  H+  H104  1  0.61389691  0.72757744  0.99848093  1
  H+  H105  1  0.02291484  0.63582738  0.68258553  1
  H+  H106  1  0.59547358  0.39125082  0.16028274  1
  H+  H107  1  0.89462202  0.52841994  0.83447064  1
  H+  H108  1  0.39023070  1.01229675  0.50017979  1
  H+  H109  1  0.89216516  0.77946328  0.99583507  1
  H+  H110  1  0.08584709  0.91821440  0.27428026  1
  H+  H111  1  0.63513178  0.77442150  0.83729097  1
  H+  H112  1  1.01090918  0.63398062  0.17761486  1
  H+  H113  1  0.11602610  0.63900257  0.17207121  1
  H+  H114  1  0.01773480  0.46221663  0.80353517  1
  H+  H115  1  0.09028831  0.11651132  0.65712981  1
  H+  H116  1  0.21867425  0.69003995  0.61348979  1
  H+  H117  1  0.97939421  0.86711134  0.19243303  1
  H+  H118  1  0.14712141  0.27775587  0.83985757  1
  H+  H119  1  0.88425306  0.34968291  1.05753880  1
  H+  H120  1  0.38708419  0.11499458  0.82228383  1
  H+  H121  1  0.09773734  0.46569845  0.49227544  1
  H+  H122  1  0.90037879  0.62170845  0.17540593  1
  H+  H123  1  0.89041540  0.26742997  0.20737300  1
  H+  H124  1  0.23506452  0.11215746  0.98975454  1
  H+  H125  1  0.38251127  0.60897006  0.84065352  1
  H+  H126  1  0.10254515  0.38450713  0.35260619  1
  H+  H127  1  0.76184956  0.89655536  0.33504620  1
  H+  H128  1  0.84033193  0.87934938  0.32954327  1
  H+  H129  1  0.63526725  -0.00638739  0.49639900  1
  H+  H130  1  0.11920245  0.89118687  0.18821158  1
  H+  H131  1  0.77006873  0.88232650  0.66856472  1
  H+  H132  1  0.47399712  0.44439626  0.12787627  1
  H+  H133  1  0.87407234  1.02532149  0.00381380  1
  H+  H134  1  0.47834296  0.35606516  0.65888033  1
  H+  H135  1  0.22536909  0.37605845  0.66931233  1
  H+  H136  1  0.65958805  0.54630832  0.52445644  1
  H+  H137  1  0.86276634  0.21957461  0.32684081  1
  H+  H138  1  0.61471853  0.48802938  0.16004309  1
  H+  H139  1  0.46181815  0.60889004  0.51095823  1
  H+  H140  1  0.21858371  0.87209195  0.83665907  1
  H+  H141  1  0.89230026  1.02337127  0.82777000  1
  H+  H142  1  0.87994046  0.10964619  0.65370415  1
  H+  H143  1  0.22487759  0.36000761  -0.00205768  1
  H+  H144  1  0.38155571  0.76846561  0.82836519  1
  H+  H145  1  0.78752575  0.64176853  0.16022901  1
  H+  H146  1  0.10160867  0.47176994  0.33609957  1
  H+  H147  1  0.60884840  0.63999643  0.50732808  1
  H+  H148  1  0.89288523  0.51865030  0.32483432  1
  H+  H149  1  0.38270749  0.61002078  0.66330776  1
  H+  H150  1  0.36575268  0.47238181  -0.00142112  1
  H+  H151  1  0.41803789  0.33326022  0.60032071  1
  H+  H152  1  0.22438594  0.10942770  0.83132677  1
  H+  H153  1  0.38557807  0.10573257  0.17272249  1
  H+  H154  1  0.47157159  0.87112354  0.32823693  1
  H+  H155  1  0.13685721  0.36169184  0.99626927  1
  H+  H156  1  0.84957676  0.67632307  0.06720109  1
  H+  H157  1  0.27614547  0.38694592  0.83036135  1
  H+  H158  1  0.13576506  0.87032860  0.66340233  1
  H+  H159  1  0.35397538  0.38829474  0.34059252  1
  H+  H160  1  0.38412172  0.52087729  0.66328887  1
  H+  H161  1  0.88811476  0.20727489  0.47651518  1
  H+  H162  1  0.02487069  0.64581394  0.83504385  1
  H+  H163  1  0.45524687  0.36623087  0.35114935  1
  H+  H164  1  0.62226733  0.27529768  0.16076479  1
  H+  H165  1  0.47394195  0.86033620  0.17147776  1
  H+  H166  1  0.25952337  0.61989862  0.00195113  1
  H+  H167  1  0.35847467  0.22251360  0.81246890  1
  H+  H168  1  0.02681842  0.13798410  0.33651574  1
  H+  H169  1  0.10786989  0.64052227  0.49097019  1
  H+  H170  1  0.86133843  0.21976192  0.82527249  1
  H+  H171  1  0.51380397  0.12656212  0.15893320  1
  H+  H172  1  0.40430968  0.83277216  0.60760488  1
  H+  H173  1  0.51766167  0.63162990  0.66891198  1
  H+  H174  1  0.64758678  0.26640494  0.32087483  1
  H+  H175  1  0.97673707  0.35629799  0.85430291  1
  H+  H176  1  0.23092181  0.86360728  0.17058457  1
  H+  H177  1  0.37244566  0.90117732  0.00287922  1
  H+  H178  1  0.63120940  0.77464865  0.50244887  1
  H+  H179  1  0.38763830  0.11296228  0.65844208  1
  H+  H180  1  0.36704033  0.63536677  0.15456014  1
  H+  H181  1  0.49223624  0.62446520  0.16018627  1
  H+  H182  1  0.47479792  0.35691298  0.83364481  1
  H+  H183  1  0.13368562  0.27906985  0.36328251  1
  H+  H184  1  0.88426306  0.02018448  0.16636538  1
  H+  H185  1  0.87157517  0.75161206  0.33496757  1
  H+  H186  1  0.83863344  0.41266784  0.39101428  1
  H+  H187  1  0.13784447  0.11296812  0.16287757  1
  H+  H188  1  0.29627447  0.27542594  0.21298866  1
  H+  H189  1  0.35908659  0.88717629  0.67405219  1
  H+  H190  1  0.75171232  0.86758620  0.17076646  1
  H+  H191  1  0.39174597  0.11795895  0.33076336  1
  H+  H192  1  0.87007353  0.11415955  0.48635280  1
  H+  H193  1  0.60783212  0.64040536  0.81784127  1
  H+  H194  1  0.72492452  0.11539518  0.17220071  1
  H+  H195  1  0.41125770  0.62066164  0.30005474  1
  H+  H196  1  0.14041547  0.85875881  0.32177723  1
  H+  H197  1  0.12670420  0.88576334  0.50181728  1
  H+  H198  1  0.36730919  0.72950965  0.67983064  1
  H+  H199  1  1.01521391  0.11691798  0.14508115  1
  H+  H200  1  0.01011840  0.39671399  0.16753160  1
  H+  H201  1  0.63944484  0.26734553  0.50123163  1
  H+  H202  1  0.77916509  0.64843323  1.01660495  1
  H+  H203  1  0.02635058  0.13609497  0.49479356  1
  H+  H204  1  0.59823899  0.21457574  0.81262668  1
  H+  H205  1  0.36628450  0.38774333  0.82812440  1
  H+  H206  1  0.38561183  0.01556288  0.66585176  1
  H+  H207  1  0.63629644  0.52027515  0.66522613  1
  H+  H208  1  -0.02202603  0.35677034  0.30554248  1
  H+  H209  1  0.66628461  0.27164278  0.89737169  1
  H+  H210  1  0.77521897  0.88254425  0.82275285  1
  H+  H211  1  0.70896864  0.11872933  1.00177473  1
  H+  H212  1  0.88816591  0.60520115  0.33030552  1
  H+  H213  1  0.64447933  0.86769986  0.84109365  1
  H+  H214  1  0.09295221  0.34569602  0.13272370  1
  H+  H215  1  0.64922008  0.62468332  0.16669609  1
  H+  H216  1  0.22021137  0.61136346  0.33040089  1
  H+  H217  1  0.91642411  0.07427456  0.56484198  1
  H+  H218  1  0.77017868  0.61888473  0.33873373  1
  H+  H219  1  0.36562074  0.38702564  0.67700260  1
  H+  H220  1  0.61935631  0.13472736  0.48965887  1
  H+  H221  1  -0.02353447  0.62849136  0.49341082  1
  H+  H222  1  0.89191911  0.60190667  0.66820044  1
  H+  H223  1  0.13602895  0.53811438  0.84181916  1
  H+  H224  1  0.89032820  0.01197398  0.50565212  1
  H+  H225  1  0.86222112  0.13644985  0.16497404  1
  H+  H226  1  0.12246255  0.35542163  0.49325394  1
  H+  H227  1  0.36358284  0.77166281  0.52498044  1
  H+  H228  1  0.78358041  0.65620479  0.49677957  1
  H+  H229  1  0.84406806  0.13548121  1.01716020  1
  H+  H230  1  0.63061814  0.35037581  0.49869348  1
  H+  H231  1  0.12151503  0.73692818  0.49144104  1
  H+  H232  1  0.11788187  0.73277451  0.17146404  1
  H+  H233  1  0.08412102  0.02376292  0.66120215  1
  H+  H234  1  0.62449127  0.73475815  0.14775000  1
  H+  H235  1  0.38429758  0.85808410  0.17026079  1
  H+  H236  1  0.88638917  0.54049922  0.49006628  1
  H+  H237  1  0.32816904  0.42146485  0.43549925  1
  H+  H238  1  0.63365532  0.58519753  0.32608556  1
  H+  H239  1  0.67129564  0.33019109  0.59718839  1
  H+  H240  1  0.07586918  0.91765136  0.73421966  1
  H+  H241  1  0.27819921  0.14323959  0.34337404  1
  H+  H242  1  0.47164805  0.86563709  0.66543922  1
  H+  H243  1  0.76975066  0.13734484  0.82433047  1
  H+  H244  1  0.36484042  -0.02776270  0.16082859  1
  H+  H245  1  0.85294893  0.35763337  0.17121207  1
  H+  H246  1  0.77549041  0.35994473  0.14016657  1
  H+  H247  1  0.72901109  0.62001377  0.82848622  1
  H+  H248  1  0.48417310  0.11067314  0.66008921  1
  H+  H249  1  0.62451413  0.69460989  0.35018223  1
  H+  H250  1  0.36068368  0.22383762  0.49714021  1
  H+  H251  1  0.10837939  0.24772573  0.67631089  1
  H+  H252  1  0.36514460  0.48142184  0.33302225  1
  H+  H253  1  0.38392710  0.35316750  0.98362998  1
  H+  H254  1  0.14624397  0.03637637  0.31977104  1
  H+  H255  1  0.38377531  1.02528578  0.82901015  1
  H+  H256  1  0.37934824  0.26826034  0.34252630  1
  H+  H257  1  0.39466990  0.14359895  0.01089629  1
  H+  H258  1  0.84344197  0.22450129  0.01779062  1
  H+  H259  1  0.58111962  0.11815723  1.00530478  1
  H+  H260  1  0.42540727  0.84559133  0.78351882  1
  H+  H261  1  0.61688024  0.47913486  0.82420375  1
  H+  H262  1  0.09063813  0.47391658  0.67302077  1
  H+  H263  1  0.14508138  0.64747649  0.66199329  1
  H+  H264  1  0.88382632  0.38486340  0.99425755  1
  H+  H265  1  0.34977982  0.47312432  0.49790181  1
  H+  H266  1  0.02684222  0.63638331  0.33948744  1
  H+  H267  1  0.61258954  -0.02107899  1.00349518  1
  H+  H268  1  0.46411657  0.35663711  0.49785267  1
  H+  H269  1  0.14126810  0.52368142  -0.00753972  1
  H+  H270  1  0.64257504  0.50277141  0.31280889  1
  H+  H271  1  0.91423246  0.31799649  0.91161586  1
  H+  H272  1  0.12061878  0.97773394  0.00062342  1
  H+  H273  1  0.11888169  0.14359506  0.33794351  1
  H+  H274  1  0.51757939  0.63764512  0.82466412  1
  H+  H275  1  0.61343894  0.63808270  -0.00183991  1
  H+  H276  1  0.35694778  0.74008375  0.34760494  1
  H+  H277  1  0.52512370  0.13976830  0.33963486  1
  H+  H278  1  0.22790185  0.11170275  0.16433163  1
  H+  H279  1  0.62609202  0.51608170  1.00188504  1
  H+  H280  1  0.72497092  0.85985874  0.50159279  1
  H+  H281  1  0.12818708  0.87115822  0.84148536  1
  H+  H282  1  0.64377503  0.11028843  0.65143860  1
  H+  H283  1  0.85947165  0.63545068  0.82587893  1
  H+  H284  1  0.91886518  0.83598722  0.93505507  1
  H+  H285  1  0.13222448  0.31589373  0.18208441  1
  H+  H286  1  0.61970868  0.38275469  0.66998067  1
  H+  H287  1  0.14065921  0.62885611  0.84735585  1
  H+  H288  1  0.83065321  0.17547331  0.11296767  1
  H+  H289  1  0.32928414  0.66157660  0.77100888  1
  H+  H290  1  0.56640397  0.42332179  0.07401353  1
  H+  H291  1  0.65624847  0.09171227  0.93855583  1
  H+  H292  1  0.07953936  0.18430569  0.73493686  1
  H+  H293  1  0.92314087  0.33408917  0.61012432  1
  H+  H294  1  0.47475572  0.36016510  0.99020922  1
  H+  H295  1  0.17622909  0.33558305  0.89925158  1
  H+  H296  1  0.32116633  0.91581907  0.76414412  1
  H+  H297  1  0.36601013  0.86386940  0.52006391  1
  H+  H298  1  0.17559861  0.58956331  0.93448407  1
  H+  H299  1  0.58411570  0.91762921  0.06106397  1
  H+  H300  1  0.17872264  0.09986977  0.26357573  1
  H+  H301  1  0.14150081  0.76989836  0.32702811  1
  H+  H302  1  0.57375239  0.65136752  0.44412131  1
  H+  H303  1  0.65898931  0.08444850  0.22724656  1
  H+  H304  1  0.38899232  0.02764784  0.33010502  1
  H+  H305  1  0.95851955  0.11317369  0.99178753  1
  H+  H306  1  0.48047990  0.87198779  0.98839024  1
  H+  H307  1  0.43749530  0.58123804  0.24712476  1
  H+  H308  1  0.32890927  0.65609066  0.06601508  1
  H+  H309  1  0.83168714  0.90819123  0.76163857  1
  H+  H310  1  0.66973467  0.86163711  0.25937147  1
  H+  H311  1  0.32460376  0.16182916  0.75313874  1
  H+  H312  1  0.67558686  0.60066548  0.58284611  1
  H+  H313  1  0.41544880  0.32207888  0.89238017  1
  H+  H314  1  0.39789658  0.10565652  0.49603702  1
  H+  H315  1  0.36610716  0.21831251  0.65721679  1
  H+  H316  1  0.59362423  0.92636198  0.77374278  1
  H+  H317  1  0.14310455  0.57404271  0.56318715  1
  H+  H318  1  0.12181430  0.29746480  0.26086971  1
  H+  H319  1  0.52522756  0.12727762  0.48766293  1
  H+  H320  1  0.67469341  0.58932412  0.22661340  1
  H+  H321  1  0.68070099  0.08145391  0.56535166  1
  H+  H322  1  0.70242564  0.56020212  0.95589704  1
  H+  H323  1  0.11011963  0.21794566  0.99506330  1
  H+  H324  1  0.70869478  0.78966468  0.21622748  1
  H+  H325  1  0.59191925  0.67268547  0.08890821  1
  H+  H326  1  0.35995952  0.41877193  0.05686939  1
  H+  H327  1  0.63206869  0.60863560  0.66904385  1
  H+  H328  1  0.09301996  0.20760067  0.13004368  1
  H+  H329  1  0.83552980  0.40334844  0.72650637  1
  H+  H330  1  0.14531113  0.11318158  0.98555687  1
  H+  H331  1  0.88253521  0.85550208  0.65667223  1
  H+  H332  1  0.08231315  0.16546786  0.43304640  1
  H+  H333  1  0.16929735  0.58325698  0.23407230  1
  H+  H334  1  0.41690066  0.08152772  0.23471740  1
  H+  H335  1  0.18276600  0.85834392  0.92837203  1
  H+  H336  1  0.09684552  0.32099809  0.26072944  1
  H+  H337  1  0.02572939  0.14037555  0.82473290  1
  H+  H338  1  0.92115950  0.08134141  0.22513727  1
  H+  H339  1  0.08608646  0.67508652  0.74121795  1
  H+  H340  1  0.06804829  0.42970692  0.76561444  1
  H+  H341  1  0.07565800  0.14798447  0.04760189  1
  H+  H342  1  0.58300586  0.15984083  0.72134026  1
  H+  H343  1  0.92543041  0.58797340  0.23715239  1
  H+  H344  1  0.07892426  0.42822450  0.06337593  1
  H+  H345  1  0.56967031  0.38060490  0.40983563  1
  H+  H346  1  0.31443127  0.67101815  0.44930014  1
  H+  H347  1  0.83593853  0.91210002  0.09431739  1
  H+  H348  1  0.17868203  0.83342876  0.23408887  1
  H+  H349  1  0.58869245  0.40998833  0.72996920  1
  H+  H350  1  0.83623461  0.15914107  0.38657476  1
  H+  H351  1  0.55082016  0.14635102  0.07039114  1
  H+  H352  1  0.11037175  0.94148682  0.45265070  1
  H+  H353  1  0.90376081  0.83046819  0.23945493  1
  H+  H354  1  0.86514672  0.72096119  0.67064529  1
  H+  H355  1  0.66313160  0.33051661  0.21954171  1
  H+  H356  1  0.40241702  0.57723795  0.56959106  1
  H+  H357  1  0.57493026  0.66594284  0.72915819  1
  H+  H358  1  0.38547494  0.38781528  0.15581475  1
  H+  H359  1  0.73942673  0.35548546  0.31752556  1
  H+  H360  1  0.42234117  0.85237200  0.93048670  1
  H+  H361  1  0.34044968  0.41967059  0.73746021  1
  H+  H362  1  0.83110244  0.91120282  0.43144897  1
  H+  H363  1  0.58992107  0.93184381  0.43185240  1
  H+  H364  1  0.41377561  0.58312508  0.93076875  1
  H+  H365  1  0.86530216  0.88570557  0.00501344  1
  H+  H366  1  0.08836168  0.67100054  0.39835206  1
  H+  H367  1  0.06454627  0.41034745  0.43068946  1
  H+  H368  1  0.82719423  0.65735796  0.40052626  1
  H+  H369  1  0.63126365  0.36933683  0.32175337  1
  H+  H370  1  0.17059014  0.83335025  0.56396441  1
  H+  H371  1  0.66422554  0.59794435  0.88425852  1
  H+  H372  1  0.38531479  0.31418577  0.24463714  1
  H+  H373  1  0.66908689  0.83249884  0.93234182  1
  H+  H374  1  0.11825590  -0.01807540  0.18839008  1
  H+  H375  1  0.17321431  0.08343624  0.89468130  1
  H+  H376  1  0.89036127  0.02587943  0.32027682  1
  H+  H377  1  0.88749396  0.10892263  0.82675139  1
  H+  H378  1  0.91802147  0.83091455  0.59813223  1
  H+  H379  1  0.65836841  0.34259989  0.96726839  1
  H+  H380  1  0.83529440  0.66665007  0.76439599  1
  H+  H381  1  0.61084258  0.88572873  0.67832401  1
  H+  H382  1  0.28285785  0.13213330  0.51134548  1
  H+  H383  1  0.25103421  0.89777253  0.98883455  1
  O2-  O384  1  0.07409056  0.14491581  0.12701676  1
  O2-  O385  1  0.08536968  0.17324232  0.47831312  1
  O2-  O386  1  0.08813962  0.17435689  0.81211348  1
  O2-  O387  1  0.06150345  0.42481303  0.14140042  1
  O2-  O388  1  0.06730519  0.40520294  0.47587613  1
  O2-  O389  1  0.05809851  0.44161775  0.80962320  1
  O2-  O390  1  0.08301208  0.66916383  0.16277792  1
  O2-  O391  1  0.08615105  0.67692776  0.47350996  1
  O2-  O392  1  0.08639825  0.67680074  0.82188791  1
  O2-  O393  1  0.08545975  0.91961840  0.20015933  1
  O2-  O394  1  0.09757419  0.92184926  0.49458438  1
  O2-  O395  1  0.07711489  0.91660688  0.81308147  1
  O2-  O396  1  0.33301044  0.15395120  0.14066274  1
  O2-  O397  1  0.33193563  0.16344379  0.48264704  1
  O2-  O398  1  0.32703884  0.16162686  0.79798894  1
  O2-  O399  1  0.41662767  0.43882833  0.12904291  1
  O2-  O400  1  0.32148350  0.41354842  0.48039339  1
  O2-  O401  1  0.33851270  0.42093396  0.81477250  1
  O2-  O402  1  0.33406959  0.66311408  0.14063648  1
  O2-  O403  1  0.30990367  0.65856371  0.49337984  1
  O2-  O404  1  0.33201527  0.66537751  0.81659231  1
  O2-  O405  1  0.33472227  0.91259614  0.14395797  1
  O2-  O406  1  0.32755431  0.91231621  0.49143782  1
  O2-  O407  1  0.31856273  0.91641300  0.80978275  1
  O2-  O408  1  0.57030393  0.15688230  0.13632721  1
  O2-  O409  1  0.58943333  0.16451810  0.47475461  1
  O2-  O410  1  0.57480086  0.15585543  0.79741336  1
  O2-  O411  1  0.57074808  0.42825128  0.14870403  1
  O2-  O412  1  0.56460811  0.38946160  0.45424704  1
  O2-  O413  1  0.58755823  0.41725751  0.81188334  1
  O2-  O414  1  0.59333788  0.67396115  0.13493697  1
  O2-  O415  1  0.57496809  0.66391053  0.48793078  1
  O2-  O416  1  0.57668533  0.67125181  0.80668054  1
  O2-  O417  1  0.58183974  0.91882110  0.14358944  1
  O2-  O418  1  0.59979967  0.93043897  0.47767700  1
  O2-  O419  1  0.59610061  0.92731045  0.81946706  1
  O2-  O420  1  0.83358065  0.17131135  0.15815795  1
  O2-  O421  1  0.84379025  0.14841325  0.46773732  1
  O2-  O422  1  0.82759374  0.16318383  0.80551484  1
  O2-  O423  1  0.82944640  0.36064931  0.13158877  1
  O2-  O424  1  0.83099440  0.42833644  0.46607623  1
  O2-  O425  1  0.85035497  0.41547448  0.81333965  1
  O2-  O426  1  0.84936612  0.67097867  0.14858693  1
  O2-  O427  1  0.83782121  0.68052982  0.47361421  1
  O2-  O428  1  0.82956852  0.66580100  0.81016151  1
  O2-  O429  1  0.83789185  0.91573957  0.14098706  1
  O2-  O430  1  0.83029456  0.90820327  0.47642410  1
  O2-  O431  1  0.83505950  0.90978816  0.80700122  1
  O2-  O432  1  0.17117969  0.09009881  0.18507110  1
  O2-  O433  1  0.21838510  0.08237887  0.57437585  1
  O2-  O434  1  0.16582788  0.08099335  0.84956035  1
  O2-  O435  1  0.12028474  0.31002004  0.13849480  1
  O2-  O436  1  0.15350004  0.32491194  0.50807367  1
  O2-  O437  1  0.18206921  0.33819091  0.85447308  1
  O2-  O438  1  0.16656441  0.58474499  0.18852258  1
  O2-  O439  1  0.14290712  0.56667090  0.51863581  1
  O2-  O440  1  0.17109331  0.59680042  0.85971754  1
  O2-  O441  1  0.17174430  0.83441757  0.18873370  1
  O2-  O442  1  0.17293989  0.83438923  0.51905258  1
  O2-  O443  1  0.16132175  0.84313824  0.85753116  1
  O2-  O444  1  0.41677445  0.07700098  0.18931356  1
  O2-  O445  1  0.43120892  0.07728215  0.50528004  1
  O2-  O446  1  0.42076833  0.08787676  0.83610655  1
  O2-  O447  1  0.35716329  0.29895053  0.20422360  1
  O2-  O448  1  0.40940803  0.33242436  0.52034203  1
  O2-  O449  1  0.41402206  0.32397203  0.84683107  1
  O2-  O450  1  0.43192957  0.58643055  0.17536620  1
  O2-  O451  1  0.40066495  0.57759069  0.52370506  1
  O2-  O452  1  0.41578461  0.58187343  0.85577401  1
  O2-  O453  1  0.41378483  0.82719835  0.18664256  1
  O2-  O454  1  0.39360890  0.83062476  0.54089401  1
  O2-  O455  1  0.41407370  0.83391133  0.82692859  1
  O2-  O456  1  0.66174872  0.08302887  0.18191779  1
  O2-  O457  1  0.68023977  0.07948133  0.51884018  1
  O2-  O458  1  0.66486964  0.09282851  0.86019805  1
  O2-  O459  1  0.65328919  0.33508036  0.17572028  1
  O2-  O460  1  0.66750026  0.32896184  0.51499755  1
  O2-  O461  1  0.62309973  0.28828199  0.88922053  1
  O2-  O462  1  0.67949225  0.59448211  0.18149448  1
  O2-  O463  1  0.67715157  0.60490833  0.53637090  1
  O2-  O464  1  0.66552553  0.58938569  0.84039728  1
  O2-  O465  1  0.69482469  0.82875403  0.19466769  1
  O2-  O466  1  0.66381563  0.83646328  0.51478391  1
  O2-  O467  1  0.67092726  0.83322557  0.85477445  1
  O2-  O468  1  0.91607467  0.08130636  0.17989423  1
  O2-  O469  1  0.91921505  0.07332434  0.51877934  1
  O2-  O470  1  0.92295072  0.08427298  0.84039822  1
  O2-  O471  1  0.92126324  0.32833352  0.22276095  1
  O2-  O472  1  0.91299879  0.35659991  0.52396942  1
  O2-  O473  1  0.91556014  0.32147567  0.86729123  1
  O2-  O474  1  0.93302974  0.59399050  0.19178552  1
  O2-  O475  1  0.91462505  0.60053063  0.50463571  1
  O2-  O476  1  0.91616965  0.58661643  0.85154551  1
  O2-  O477  1  0.91482786  0.83537627  0.19556550  1
  O2-  O478  1  0.92564977  0.84238766  0.51737365  1
  O2-  O479  1  0.91506655  0.83139045  0.85551984  1
  O2-  O480  1  0.17832321  0.09839426  0.30917841  1
  O2-  O481  1  0.09004597  0.06885562  0.63281533  1
  O2-  O482  1  0.17571181  0.08100982  0.97374120  1
  O2-  O483  1  0.15833568  0.34074393  0.37354560  1
  O2-  O484  1  0.16611691  0.34701790  0.65339365  1
  O2-  O485  1  0.16537077  0.33015738  0.98172127  1
  O2-  O486  1  0.16246081  0.57949272  0.31171178  1
  O2-  O487  1  0.18634065  0.63663966  0.63627508  1
  O2-  O488  1  0.17941014  0.58558980  0.98008305  1
  O2-  O489  1  0.17368105  0.83017099  0.31071022  1
  O2-  O490  1  0.16772503  0.84061500  0.64998132  1
  O2-  O491  1  0.18887596  0.86554029  0.97443323  1
  O2-  O492  1  0.42131794  0.08845734  0.31377754  1
  O2-  O493  1  0.41929995  0.07824929  0.65066932  1
  O2-  O494  1  0.45913650  0.10084134  0.99910659  1
  O2-  O495  1  0.40655018  0.32976754  0.32503062  1
  O2-  O496  1  0.41723520  0.32657062  0.64536098  1
  O2-  O497  1  0.41708064  0.32484976  0.97076011  1
  O2-  O498  1  0.43649645  0.58430544  0.29374318  1
  O2-  O499  1  0.41217122  0.58058933  0.64541011  1
  O2-  O500  1  0.41305724  0.58250128  0.97688486  1
  O2-  O501  1  0.41216106  0.83406294  0.31261721  1
  O2-  O502  1  0.40954898  0.83332551  0.65550602  1
  O2-  O503  1  0.42014306  0.84936939  0.97468181  1
  O2-  O504  1  0.66078650  0.08631219  0.30733575  1
  O2-  O505  1  0.67485103  0.08009062  0.63869085  1
  O2-  O506  1  0.64934961  0.08755168  0.98394557  1
  O2-  O507  1  0.67883130  0.32505996  0.30180744  1
  O2-  O508  1  0.66976655  0.32679542  0.64240251  1
  O2-  O509  1  0.67328213  0.36275362  1.00924810  1
  O2-  O510  1  0.66957211  0.56574251  0.30479521  1
  O2-  O511  1  0.66673274  0.58258707  0.65397539  1
  O2-  O512  1  0.66537493  0.57346463  0.98047416  1
  O2-  O513  1  0.65779962  0.86329584  0.30392459  1
  O2-  O514  1  0.65945626  0.83032874  0.64617654  1
  O2-  O515  1  0.66688777  0.82999788  0.97800161  1
  O2-  O516  1  0.92399494  0.08526239  0.30428514  1
  O2-  O517  1  0.91082926  0.07864958  0.64042993  1
  O2-  O518  1  0.89572049  0.08679268  0.99573336  1
  O2-  O519  1  0.91603296  0.32225925  0.28993955  1
  O2-  O520  1  0.91880512  0.32723988  0.65440654  1
  O2-  O521  1  0.90220437  0.34743683  1.01522869  1
  O2-  O522  1  0.92253667  0.58066330  0.31298693  1
  O2-  O523  1  0.92925661  0.57765754  0.65885053  1
  O2-  O524  1  0.89179400  0.53379669  0.96912669  1
  O2-  O525  1  0.89911088  0.81682619  0.33003969  1
  O2-  O526  1  0.91335124  0.82501887  0.64325335  1
  O2-  O527  1  0.92370579  0.84055180  0.98032872  1
  O2-  O528  1  0.08091060  0.15482087  0.00254368  1
  O2-  O529  1  0.08436751  0.16716208  0.35644737  1
  O2-  O530  1  0.07137822  0.18595449  0.69008938  1
  O2-  O531  1  0.08157393  0.42414896  0.01834251  1
  O2-  O532  1  0.06460449  0.41138564  0.35025608  1
  O2-  O533  1  0.06864848  0.41849836  0.69298202  1
  O2-  O534  1  0.05921273  0.64171393  0.02542629  1
  O2-  O535  1  0.08838756  0.66731234  0.35244510  1
  O2-  O536  1  0.08544790  0.67526130  0.69590732  1
  O2-  O537  1  0.09496255  0.91613343  0.01310623  1
  O2-  O538  1  0.08761094  0.91932109  0.32037733  1
  O2-  O539  1  0.07813650  0.91846695  0.68881347  1
  O2-  O540  1  0.35239911  0.16379417  0.02015487  1
  O2-  O541  1  0.33712178  0.17274116  0.36150738  1
  O2-  O542  1  0.33519414  0.15509015  0.66685269  1
  O2-  O543  1  0.33912186  0.41254119  0.01434976  1
  O2-  O544  1  0.33313479  0.42677267  0.35552923  1
  O2-  O545  1  0.34066975  0.42187029  0.69177580  1
  O2-  O546  1  0.32592573  0.65102659  0.02000407  1
  O2-  O547  1  0.32302891  0.68152287  0.36735893  1
  O2-  O548  1  0.33564224  0.66778831  0.69359353  1
  O2-  O549  1  0.34553373  0.93450798  0.01958509  1
  O2-  O550  1  0.33699679  0.92687654  0.35483581  1
  O2-  O551  1  0.33113620  0.92128886  0.68740710  1
  O2-  O552  1  0.54876644  0.14724341  0.02218307  1
  O2-  O553  1  0.58690210  0.16962009  0.35284535  1
  O2-  O554  1  0.58175373  0.15913089  0.67560165  1
  O2-  O555  1  0.57020437  0.42232122  0.02825966  1
  O2-  O556  1  0.59159535  0.39453054  0.33214913  1
  O2-  O557  1  0.58793199  0.41183181  0.68484107  1
  O2-  O558  1  0.58242428  0.66632275  0.01399348  1
  O2-  O559  1  0.58115219  0.63593091  0.36043728  1
  O2-  O560  1  0.57861270  0.66276867  0.68382171  1
  O2-  O561  1  0.58681029  0.91752919  0.01597351  1
  O2-  O562  1  0.57534558  0.93567627  0.36079905  1
  O2-  O563  1  0.58503987  0.91929547  0.69534296  1
  O2-  O564  1  0.81134886  0.16450423  0.03213010  1
  O2-  O565  1  0.83110141  0.15917751  0.34156248  1
  O2-  O566  1  0.83389078  0.16689432  0.67858512  1
  O2-  O567  1  0.84285172  0.45012095  -0.02973712  1
  O2-  O568  1  0.83951941  0.41182992  0.34519001  1
  O2-  O569  1  0.83324752  0.40066888  0.68186512  1
  O2-  O570  1  0.84143672  0.68038296  0.02296636  1
  O2-  O571  1  0.82997903  0.65327945  0.35468936  1
  O2-  O572  1  0.83665909  0.66216537  0.68907163  1
  O2-  O573  1  0.83192387  0.91151610  0.02324401  1
  O2-  O574  1  0.82225868  0.91811055  0.34754563  1
  O2-  O575  1  0.83094921  0.91025081  0.68226923  1
