# generated using pymatgen
data_H2O
_symmetry_space_group_name_H-M   'P 1'
_cell_length_a   18.00734161
_cell_length_b   18.00154147
_cell_length_c   22.01294597
_cell_angle_alpha   90.01123413
_cell_angle_beta   89.97791587
_cell_angle_gamma   120.00226262
_symmetry_Int_Tables_number   1
_chemical_formula_structural   H2O
_chemical_formula_sum   'H384 O192'
_cell_volume   6179.56868618
_cell_formula_units_Z   192
loop_
 _symmetry_equiv_pos_site_id
 _symmetry_equiv_pos_as_xyz
  1  'x, y, z'
loop_
 _atom_type_symbol
 _atom_type_oxidation_number
  H+  1.0
  O2-  -2.0
loop_
 _atom_site_type_symbol
 _atom_site_label
 _atom_site_symmetry_multiplicity
 _atom_site_fract_x
 _atom_site_fract_y
 _atom_site_fract_z
 _atom_site_occupancy
  H+  H0  1  0.86090934  0.48034797  0.83010732  1
  H+  H1  1  0.36790346  0.88525744  0.83569887  1
  H+  H2  1  0.74470200  0.61782723  0.50307006  1
  H+  H3  1  0.13870216  0.36597062  0.66444490  1
  H+  H4  1  0.65687253  1.03918761  0.49659838  1
  H+  H5  1  0.65565279  0.90512797  0.15340887  1
  H+  H6  1  0.39477697  0.62062066  0.15897786  1
  H+  H7  1  0.08404718  0.67123439  0.77153869  1
  H+  H8  1  0.39186919  0.26894968  0.66299755  1
  H+  H9  1  0.22338888  0.32502610  0.32578496  1
  H+  H10  1  0.11235878  -0.02614523  0.34416601  1
  H+  H11  1  0.14096681  1.02622387  0.65908461  1
  H+  H12  1  0.50778924  0.88827463  0.65726742  1
  H+  H13  1  0.83037571  0.61312435  0.17042131  1
  H+  H14  1  0.13946333  0.61322309  0.99491753  1
  H+  H15  1  0.88096209  0.09943061  0.99534219  1
  H+  H16  1  0.37768131  0.52894937  0.99116038  1
  H+  H17  1  0.76252106  0.11000989  0.82081919  1
  H+  H18  1  0.08102508  0.19547419  0.24479786  1
  H+  H19  1  0.14282586  0.27459941  -0.00783307  1
  H+  H20  1  0.27835489  0.64565953  0.00612692  1
  H+  H21  1  0.87155849  0.73729375  0.84875665  1
  H+  H22  1  0.68226808  0.10003218  0.55365684  1
  H+  H23  1  0.40617592  0.10888499  0.83698920  1
  H+  H24  1  0.42270850  0.33010313  0.60459245  1
  H+  H25  1  0.62311393  0.29638826  0.20598240  1
  H+  H26  1  0.51758798  0.39293775  0.14901287  1
  H+  H27  1  0.34722308  0.97753244  0.50495160  1
  H+  H28  1  0.36397432  0.37952180  0.67262684  1
  H+  H29  1  0.71411030  0.10570564  0.18483596  1
  H+  H30  1  0.22865258  0.60720379  0.32263916  1
  H+  H31  1  0.60885188  0.72511937  0.34553285  1
  H+  H32  1  0.23018491  0.44499821  0.53461957  1
  H+  H33  1  0.02170176  0.12587630  0.64403273  1
  H+  H34  1  0.14490393  0.36645221  1.00069671  1
  H+  H35  1  0.86448256  0.22639242  0.67730931  1
  H+  H36  1  0.58482375  0.63855933  0.86558220  1
  H+  H37  1  0.87269704  0.84245986  0.17205799  1
  H+  H38  1  0.60201763  0.62741648  0.01261247  1
  H+  H39  1  0.89416696  0.62134496  0.84678591  1
  H+  H40  1  0.36711677  0.39411114  0.00616487  1
  H+  H41  1  0.08678630  0.15446676  -0.06104161  1
  H+  H42  1  0.59513033  0.16419344  0.76412297  1
  H+  H43  1  0.19885740  0.09114280  1.04111548  1
  H+  H44  1  0.03417023  0.12724025  0.42991767  1
  H+  H45  1  0.88609026  0.35955676  0.66468741  1
  H+  H46  1  0.11038428  0.72840568  0.48447436  1
  H+  H47  1  0.26991493  0.88846446  0.33734121  1
  H+  H48  1  0.75531934  0.38434761  1.00399625  1
  H+  H49  1  0.38340957  0.62034497  -0.00867982  1
  H+  H50  1  0.40431358  0.51371183  0.51141888  1
  H+  H51  1  0.21196543  0.60956632  0.50586684  1
  H+  H52  1  0.28671180  0.86268543  0.69619989  1
  H+  H53  1  0.39629929  1.01366512  0.83361686  1
  H+  H54  1  0.72832020  0.61425356  0.99140332  1
  H+  H55  1  0.34566217  0.19263852  -0.04481028  1
  H+  H56  1  0.52067475  0.63688885  0.34377712  1
  H+  H57  1  0.52851843  0.38723617  0.67561389  1
  H+  H58  1  0.40360337  0.83443269  0.59652912  1
  H+  H59  1  0.10625138  0.72333003  0.67545532  1
  H+  H60  1  0.11724689  0.73249539  0.83093945  1
  H+  H61  1  0.61303140  0.38656636  0.00554336  1
  H+  H62  1  0.23929133  0.35133684  0.83990133  1
  H+  H63  1  0.92507691  0.32996100  0.23133250  1
  H+  H64  1  0.08880500  0.42567071  0.73806712  1
  H+  H65  1  0.61981247  0.52340511  0.17781202  1
  H+  H66  1  0.40730178  0.10267478  0.97819984  1
  H+  H67  1  0.12212447  0.14885907  0.20380045  1
  H+  H68  1  0.62015186  0.23739967  0.32401779  1
  H+  H69  1  0.36177438  0.72462304  0.66108508  1
  H+  H70  1  0.22176330  0.61309134  0.65773381  1
  H+  H71  1  0.62383228  -0.02492408  0.99921923  1
  H+  H72  1  0.23441000  0.62937161  0.83785414  1
  H+  H73  1  0.62746709  0.86214881  0.66274749  1
  H+  H74  1  0.88557720  0.23254324  0.50711540  1
  H+  H75  1  0.10331421  0.48046114  0.49181147  1
  H+  H76  1  0.77339316  0.38925467  0.83125375  1
  H+  H77  1  0.55999512  0.90033684  0.51468062  1
  H+  H78  1  0.67608964  0.83381642  0.57002157  1
  H+  H79  1  0.61174238  0.73145260  0.84201058  1
  H+  H80  1  -0.02287588  0.10101151  0.18683011  1
  H+  H81  1  0.85468801  0.56841747  0.49394020  1
  H+  H82  1  0.66213593  0.83848411  0.27080594  1
  H+  H83  1  0.23207714  0.86061352  0.99822501  1
  H+  H84  1  0.76231253  0.04867378  0.13116270  1
  H+  H85  1  0.45630535  0.85448995  0.33339848  1
  H+  H86  1  0.11420247  0.00311676  1.04044961  1
  H+  H87  1  0.61052561  0.22360469  0.67300924  1
  H+  H88  1  -0.02667427  0.11124658  0.85222400  1
  H+  H89  1  0.16997074  0.79019865  0.17980103  1
  H+  H90  1  0.36531268  0.47486716  0.82254918  1
  H+  H91  1  0.05586039  0.69997480  0.15325962  1
  H+  H92  1  0.12338739  0.48097327  0.00482362  1
  H+  H93  1  0.64034549  0.03361036  0.64413327  1
  H+  H94  1  0.38920609  0.24219412  0.83078124  1
  H+  H95  1  0.11743862  0.86221274  0.66385219  1
  H+  H96  1  0.84303601  0.71072351  0.33968097  1
  H+  H97  1  0.12001097  0.21451504  0.85551687  1
  H+  H98  1  0.90847799  0.86304839  0.32880097  1
  H+  H99  1  0.97032591  0.10154710  0.98560964  1
  H+  H100  1  0.89548481  0.86177924  -0.03106677  1
  H+  H101  1  0.94529762  0.58843954  0.16807778  1
  H+  H102  1  0.77490143  0.87002094  0.00494757  1
  H+  H103  1  0.02834029  0.87911346  0.33788151  1
  H+  H104  1  0.86109481  0.96099427  0.00343287  1
  H+  H105  1  0.47788491  0.38287660  0.99397434  1
  H+  H106  1  0.62900182  0.85449090  0.85548211  1
  H+  H107  1  0.86544959  0.96030191  0.15716900  1
  H+  H108  1  0.62123738  0.48683071  0.50142335  1
  H+  H109  1  -0.00858935  0.85871625  0.86822911  1
  H+  H110  1  0.51747599  0.62983893  0.67914162  1
  H+  H111  1  0.38583327  0.60531665  0.65687754  1
  H+  H112  1  0.23736532  0.11717261  0.18436292  1
  H+  H113  1  0.79503376  0.38515602  0.32926420  1
  H+  H114  1  0.96951476  0.60770033  0.66341750  1
  H+  H115  1  0.63227583  0.64419408  0.49723795  1
  H+  H116  1  0.10731044  0.39453683  0.49305106  1
  H+  H117  1  0.88336409  0.08782993  0.17017654  1
  H+  H118  1  0.40505774  0.29563794  0.18469823  1
  H+  H119  1  0.34070991  0.16139457  0.40970059  1
  H+  H120  1  0.89099131  0.27091318  0.17203313  1
  H+  H121  1  0.98043781  0.61662980  0.84415113  1
  H+  H122  1  0.49104440  0.37308065  0.84021183  1
  H+  H123  1  0.14304382  0.61389711  0.32257657  1
  H+  H124  1  0.00646686  0.26201672  0.29246715  1
  H+  H125  1  0.14513627  0.62876551  0.84264656  1
  H+  H126  1  0.90544185  0.34754223  1.02455277  1
  H+  H127  1  0.38671756  0.77480283  0.17800045  1
  H+  H128  1  0.39117032  0.86557412  0.17762729  1
  H+  H129  1  0.86728448  0.22303427  0.34914810  1
  H+  H130  1  0.64401715  0.52708268  0.66428738  1
  H+  H131  1  0.62259579  0.60661863  0.32683198  1
  H+  H132  1  0.77161417  0.88213748  0.83347916  1
  H+  H133  1  0.99305985  0.36165346  1.00041576  1
  H+  H134  1  0.17470575  0.05992519  0.81335020  1
  H+  H135  1  0.40454948  0.82803134  0.26881586  1
  H+  H136  1  0.37027243  -0.03019384  1.00388479  1
  H+  H137  1  0.33315773  0.66661497  0.72044160  1
  H+  H138  1  0.26519637  0.38149145  0.01075633  1
  H+  H139  1  0.36781346  0.48496036  0.15071133  1
  H+  H140  1  0.40415742  0.52363504  0.32668800  1
  H+  H141  1  0.88612036  0.86785682  0.51119136  1
  H+  H142  1  0.58308119  0.87486051  0.34269997  1
  H+  H143  1  0.36350861  0.63111065  0.33812817  1
  H+  H144  1  0.37326874  0.13657589  0.50311615  1
  H+  H145  1  0.97680049  0.37738418  0.50673207  1
  H+  H146  1  0.39840156  0.02984017  0.17662866  1
  H+  H147  1  0.36374388  0.64046004  0.81856035  1
  H+  H148  1  0.36410241  0.46914126  0.67268803  1
  H+  H149  1  0.13770279  0.85793865  0.17009914  1
  H+  H150  1  0.85981552  0.96946279  0.82935461  1
  H+  H151  1  0.88191514  0.01313185  0.66671321  1
  H+  H152  1  0.23208255  0.86850077  0.84181104  1
  H+  H153  1  0.10995400  0.63934485  0.48709888  1
  H+  H154  1  0.11488140  0.72474340  0.00788566  1
  H+  H155  1  0.63165776  0.76128601  1.00308132  1
  H+  H156  1  0.47646744  0.61430384  0.13855020  1
  H+  H157  1  0.27618989  0.13365944  0.35315648  1
  H+  H158  1  0.27706908  0.63708506  0.16045722  1
  H+  H159  1  0.88290408  0.60911371  0.66742705  1
  H+  H160  1  0.84816925  0.12923937  0.35310625  1
  H+  H161  1  0.69923243  0.88307200  0.33462267  1
  H+  H162  1  0.27369670  0.39374312  0.15455817  1
  H+  H163  1  0.64128883  -0.01341425  0.15665168  1
  H+  H164  1  0.38482377  0.09586310  0.66804786  1
  H+  H165  1  0.77705685  0.64187984  0.68768751  1
  H+  H166  1  0.85869075  0.50254440  0.17750294  1
  H+  H167  1  0.34011602  0.41339999  0.76378306  1
  H+  H168  1  0.96353256  0.12724134  0.32114222  1
  H+  H169  1  0.53216560  0.12581481  -0.00080395  1
  H+  H170  1  0.84994905  0.37041252  0.16229466  1
  H+  H171  1  0.46635400  0.61561979  0.83861321  1
  H+  H172  1  0.48804165  0.11644819  0.18167514  1
  H+  H173  1  0.36716724  0.98202326  0.33741235  1
  H+  H174  1  0.51635382  0.63135238  0.00673374  1
  H+  H175  1  0.13681628  0.61248169  0.17413242  1
  H+  H176  1  0.85846652  0.47051740  0.67333502  1
  H+  H177  1  0.35614337  0.71664682  0.33819434  1
  H+  H178  1  0.64053295  0.26688330  0.84067491  1
  H+  H179  1  0.30446936  0.15387710  0.83770632  1
  H+  H180  1  0.65803940  0.60892453  0.82675603  1
  H+  H181  1  0.16954863  0.58412605  0.23298660  1
  H+  H182  1  0.63024380  0.21259021  0.14786716  1
  H+  H183  1  0.09539232  0.11444386  0.84285663  1
  H+  H184  1  0.48456603  0.36644326  0.51272174  1
  H+  H185  1  0.52456704  0.12952694  0.67484854  1
  H+  H186  1  0.65129654  0.77375635  0.51053293  1
  H+  H187  1  0.38361569  0.86454896  0.66441174  1
  H+  H188  1  0.06402085  0.88437831  0.09693941  1
  H+  H189  1  0.37623342  0.73444030  0.81135419  1
  H+  H190  1  0.11415247  0.48104354  0.16116530  1
  H+  H191  1  0.39862755  0.39680250  0.33815209  1
  H+  H192  1  0.14950888  0.28839962  0.17953368  1
  H+  H193  1  0.17479077  0.59132424  0.93481491  1
  H+  H194  1  0.62795506  0.47339027  0.82538984  1
  H+  H195  1  0.08298152  0.41782637  0.39710493  1
  H+  H196  1  0.64608761  0.11310550  0.98766170  1
  H+  H197  1  0.13271839  0.10702419  0.35408034  1
  H+  H198  1  0.60739321  1.01188877  0.32810735  1
  H+  H199  1  0.89116684  0.37284122  0.84275497  1
  H+  H200  1  0.71878986  0.35526844  0.66195548  1
  H+  H201  1  0.88821312  0.68611781  0.47041098  1
  H+  H202  1  0.25252418  0.89169434  0.50308948  1
  H+  H203  1  0.10866085  0.21841884  0.64308575  1
  H+  H204  1  0.13333527  0.52410687  0.66432085  1
  H+  H205  1  0.14189172  0.11442367  0.64612676  1
  H+  H206  1  0.74642590  0.61780312  0.84464420  1
  H+  H207  1  0.49099613  0.35566653  0.33656861  1
  H+  H208  1  0.11365152  0.87700973  0.00571179  1
  H+  H209  1  0.84574176  0.39934686  -0.01351160  1
  H+  H210  1  0.14133154  0.02883107  0.50411478  1
  H+  H211  1  0.43334407  0.85749630  0.48916923  1
  H+  H212  1  0.81374933  0.89016340  0.33512187  1
  H+  H213  1  0.50200425  0.86701104  0.84555496  1
  H+  H214  1  0.21420588  0.32211488  0.35929014  1
  H+  H215  1  0.37269763  0.37817525  0.49528193  1
  H+  H216  1  0.89021381  0.98579947  0.34201706  1
  H+  H217  1  0.13654290  0.85984234  0.84864897  1
  H+  H218  1  0.80809832  0.14262420  0.49498133  1
  H+  H219  1  0.38641459  1.00632488  0.66951255  1
  H+  H220  1  0.77793084  0.13277317  0.00083618  1
  H+  H221  1  0.86129634  0.11697222  0.82403497  1
  H+  H222  1  0.33355941  0.72263453  0.49072812  1
  H+  H223  1  1.01240612  0.88802600  0.67911019  1
  H+  H224  1  0.37952103  0.10414458  0.33671779  1
  H+  H225  1  0.62961068  0.00826998  0.83952413  1
  H+  H226  1  0.11030852  0.63628826  0.67673398  1
  H+  H227  1  0.62445097  0.48633823  0.00422245  1
  H+  H228  1  0.02376263  0.87501627  -0.00537232  1
  H+  H229  1  0.34692666  0.92711665  0.10039346  1
  H+  H230  1  0.09609028  0.67104967  0.39385829  1
  H+  H231  1  0.11782212  0.47345446  0.33647658  1
  H+  H232  1  0.53629405  0.12938103  0.82341498  1
  H+  H233  1  0.36908590  0.88224327  0.01200877  1
  H+  H234  1  0.87639214  0.77480066  0.51214298  1
  H+  H235  1  0.57547164  0.72236794  0.20030463  1
  H+  H236  1  0.92114545  1.04228194  0.48020544  1
  H+  H237  1  0.87962000  0.86106653  0.66845439  1
  H+  H238  1  0.10416065  0.13000012  1.00662148  1
  H+  H239  1  0.83526337  0.70578538  0.17023945  1
  H+  H240  1  0.71585966  0.61148538  0.32750075  1
  H+  H241  1  0.20754399  0.87323380  0.64697665  1
  H+  H242  1  0.61131506  0.23064526  0.50046170  1
  H+  H243  1  0.36052616  0.88016773  0.33398428  1
  H+  H244  1  0.16019460  0.15687368  0.47447674  1
  H+  H245  1  0.47937004  0.11328472  0.51378987  1
  H+  H246  1  0.98966526  0.61101774  0.32511370  1
  H+  H247  1  0.72335027  0.61089980  0.18003717  1
  H+  H248  1  0.39573544  0.37687855  0.16374329  1
  H+  H249  1  0.63557416  0.35397267  0.83972988  1
  H+  H250  1  0.85680952  0.72746652  0.98461215  1
  H+  H251  1  0.95483015  0.83076350  0.17012150  1
  H+  H252  1  0.40024471  0.37143147  0.83647865  1
  H+  H253  1  0.28479091  0.13813380  0.49920751  1
  H+  H254  1  0.08440233  -0.02006622  0.81804233  1
  H+  H255  1  0.38251794  0.14407877  0.18439232  1
  H+  H256  1  0.63970677  0.85490807  0.99898144  1
  H+  H257  1  0.65213983  0.32683492  0.60468297  1
  H+  H258  1  0.11818277  0.49232554  0.82715500  1
  H+  H259  1  0.62362006  0.10817466  0.31615465  1
  H+  H260  1  0.28884070  0.90522122  0.15987719  1
  H+  H261  1  0.22479822  0.36004644  0.66209041  1
  H+  H262  1  0.90028746  0.35618486  0.31116102  1
  H+  H263  1  0.48728040  0.86784205  1.00136744  1
  H+  H264  1  0.02594233  0.83223380  0.80195994  1
  H+  H265  1  0.76555568  0.87882497  0.68106993  1
  H+  H266  1  0.35199664  0.86453136  0.50700848  1
  H+  H267  1  0.61604650  0.14616259  0.49069066  1
  H+  H268  1  0.40002785  0.27027205  0.33631217  1
  H+  H269  1  0.62554459  0.77208821  0.66787779  1
  H+  H270  1  0.02971095  0.40367403  0.82790967  1
  H+  H271  1  0.14348893  0.87234412  0.33213647  1
  H+  H272  1  0.18511946  0.33778359  0.89994577  1
  H+  H273  1  0.61089086  0.11876319  0.16233681  1
  H+  H274  1  0.01625608  0.89197278  0.49439934  1
  H+  H275  1  0.78624205  0.89483297  0.49588283  1
  H+  H276  1  0.11767322  0.86244027  0.50427037  1
  H+  H277  1  0.65195111  0.37727355  0.34680578  1
  H+  H278  1  0.61581503  0.47855372  0.34840388  1
  H+  H279  1  0.87140255  0.21788757  0.00777350  1
  H+  H280  1  0.15959594  0.08222900  0.13943877  1
  H+  H281  1  0.64316483  0.12259209  0.65218554  1
  H+  H282  1  0.08908602  0.94298342  0.15624518  1
  H+  H283  1  0.64054757  0.61370354  0.66553614  1
  H+  H284  1  0.49013205  0.60492199  0.51562365  1
  H+  H285  1  0.52974368  0.14934366  0.32607769  1
  H+  H286  1  0.85952908  0.64308485  -0.00149570  1
  H+  H287  1  0.99276486  0.36393733  0.32059760  1
  H+  H288  1  0.68422275  0.36521336  0.28382593  1
  H+  H289  1  0.81797723  0.39920972  0.10306786  1
  H+  H290  1  0.31404280  0.65866944  0.43521603  1
  H+  H291  1  0.08514821  0.20812676  0.09229811  1
  H+  H292  1  0.88534239  0.10257364  0.66136715  1
  H+  H293  1  0.58653574  0.15432406  0.06110364  1
  H+  H294  1  0.88581674  0.54694357  0.55420611  1
  H+  H295  1  0.15248629  0.57956548  0.56624307  1
  H+  H296  1  0.34705581  0.91385952  0.77005985  1
  H+  H297  1  0.39873568  0.27259906  0.51131570  1
  H+  H298  1  0.56858204  0.90632446  0.40656676  1
  H+  H299  1  0.42391144  0.57269933  0.60328050  1
  H+  H300  1  0.76512900  0.41885992  0.50215718  1
  H+  H301  1  0.90614943  0.06771088  0.26777284  1
  H+  H302  1  0.14593822  0.37434658  0.16494021  1
  H+  H303  1  0.17675787  0.06089123  0.93011165  1
  H+  H304  1  0.91872474  0.58383613  0.27364195  1
  H+  H305  1  0.83247046  0.90049257  0.09688032  1
  H+  H306  1  0.63648468  0.88750889  0.49649225  1
  H+  H307  1  0.40318845  0.58313733  0.89506326  1
  H+  H308  1  0.61659766  0.38579954  0.67530981  1
  H+  H309  1  0.67413094  0.08140578  0.92795212  1
  H+  H310  1  0.82541230  0.90618832  0.74104284  1
  H+  H311  1  0.61348705  0.39779953  0.15352776  1
  H+  H312  1  0.36821650  0.42792255  0.39658338  1
  H+  H313  1  0.80935741  0.64936330  0.40040893  1
  H+  H314  1  0.08172892  0.25781303  0.76195786  1
  H+  H315  1  0.06949602  0.65516242  0.09584309  1
  H+  H316  1  0.91797415  0.82094106  0.26753473  1
  H+  H317  1  0.91320395  0.83456793  0.60874549  1
  H+  H318  1  0.71657371  0.36325563  0.17832752  1
  H+  H319  1  0.56111496  0.87798963  0.78715197  1
  H+  H320  1  0.41342540  0.07875285  0.27552049  1
  H+  H321  1  0.88797426  0.37570250  0.50739505  1
  H+  H322  1  0.61159560  0.92756553  0.06178355  1
  H+  H323  1  0.90057810  0.07315068  0.90134617  1
  H+  H324  1  0.36606103  0.77794546  0.87683573  1
  H+  H325  1  0.61356984  0.39354011  0.50592776  1
  H+  H326  1  0.42404167  0.35809920  0.93224986  1
  H+  H327  1  0.36057967  0.18314833  0.12883785  1
  H+  H328  1  0.59288192  0.42585125  0.41176008  1
  H+  H329  1  0.92226369  0.34303184  0.90025272  1
  H+  H330  1  0.91940500  0.58808088  0.93573716  1
  H+  H331  1  0.27642042  0.13244386  0.67471353  1
  H+  H332  1  0.64984838  0.57629577  0.24543414  1
  H+  H333  1  0.42080007  0.07867504  0.57447110  1
  H+  H334  1  0.84674359  0.68666724  0.78251437  1
  H+  H335  1  0.66569231  0.82418143  0.91128169  1
  H+  H336  1  0.15912667  0.09235391  0.28698882  1
  H+  H337  1  0.28803650  0.38551271  0.48898955  1
  H+  H338  1  0.33870911  0.16428929  0.73352719  1
  H+  H339  1  0.12555523  0.73053019  0.33451499  1
  H+  H340  1  0.84716725  0.91844559  0.43681810  1
  H+  H341  1  0.82334533  0.13310952  0.09565183  1
  H+  H342  1  0.17469595  0.83304540  0.93754476  1
  H+  H343  1  0.17563207  0.08728855  0.56374404  1
  H+  H344  1  0.58800158  0.42388352  0.07747997  1
  H+  H345  1  0.92967298  0.13471903  0.48035026  1
  H+  H346  1  0.07590723  0.92114604  0.73655242  1
  H+  H347  1  0.07589334  0.91782036  0.43434006  1
  H+  H348  1  0.86499642  0.73044459  0.68439405  1
  H+  H349  1  0.22065016  0.07915253  0.91603458  1
  H+  H350  1  0.02324194  0.63738095  0.00506678  1
  H+  H351  1  0.36981376  0.73477429  0.00764832  1
  H+  H352  1  0.02544140  0.39031145  0.15863750  1
  H+  H353  1  0.68837937  0.59542368  0.56613763  1
  H+  H354  1  0.56235420  0.94856009  0.71161585  1
  H+  H355  1  0.62776024  0.26777695  -0.00483122  1
  H+  H356  1  0.43561908  0.06619677  0.92377767  1
  H+  H357  1  0.83080997  0.41398768  0.73346230  1
  H+  H358  1  0.09389413  0.42476547  0.06664278  1
  H+  H359  1  0.88553363  0.47166479  0.32055117  1
  H+  H360  1  0.73365468  0.85336067  0.17615391  1
  H+  H361  1  0.59283983  0.66959892  0.44069147  1
  H+  H362  1  0.64671947  0.06672678  0.24222693  1
  H+  H363  1  0.17706903  0.85024947  0.27019028  1
  H+  H364  1  0.35272135  0.18536350  0.02457031  1
  H+  H365  1  0.13737667  0.82493550  0.56400839  1
  H+  H366  1  0.03710800  0.18388329  0.09107120  1
  H+  H367  1  0.65483850  0.32581230  0.93436561  1
  H+  H368  1  0.91745586  0.33442410  0.60514316  1
  H+  H369  1  0.59072657  0.41462587  0.76579662  1
  H+  H370  1  0.08474729  0.28101824  0.33155569  1
  H+  H371  1  0.17848110  0.36012574  0.57151892  1
  H+  H372  1  0.33543137  0.67180284  0.10050005  1
  H+  H373  1  0.06622894  0.22203243  0.73913876  1
  H+  H374  1  0.02828016  0.38876434  0.67881283  1
  H+  H375  1  0.77358272  0.13873623  0.67162335  1
  H+  H376  1  0.57619740  0.66036259  0.73870635  1
  H+  H377  1  0.64064589  0.10330085  0.83228198  1
  H+  H378  1  0.42845908  0.84559150  0.94098394  1
  H+  H379  1  0.66448329  0.57616265  0.93479515  1
  H+  H380  1  0.33333608  0.41964267  0.07621927  1
  H+  H381  1  0.88288543  0.53283043  -0.00335208  1
  H+  H382  1  0.82806240  0.15076154  0.75707949  1
  H+  H383  1  0.42685868  0.58420142  0.26695372  1
  O2-  O384  1  0.08628344  0.17636186  0.20349332  1
  O2-  O385  1  0.15913149  0.19963740  0.44567209  1
  O2-  O386  1  0.07858524  0.15204378  0.86545542  1
  O2-  O387  1  0.08558693  0.42171377  0.14325177  1
  O2-  O388  1  0.07345889  0.41946503  0.47590722  1
  O2-  O389  1  0.08835978  0.43388461  0.80991521  1
  O2-  O390  1  0.06207804  0.65110325  0.14183976  1
  O2-  O391  1  0.08881800  0.67241673  0.46395584  1
  O2-  O392  1  0.08459036  0.67119966  0.81714788  1
  O2-  O393  1  0.06513060  0.88325735  0.14292971  1
  O2-  O394  1  0.07666942  0.92307128  0.47961543  1
  O2-  O395  1  0.05606202  0.87827468  0.83144027  1
  O2-  O396  1  0.35243818  0.17722812  0.17267023  1
  O2-  O397  1  0.34588669  0.16871355  0.48515041  1
  O2-  O398  1  0.36031012  0.17986942  0.81799851  1
  O2-  O399  1  0.33649811  0.42310959  0.13710720  1
  O2-  O400  1  0.34857241  0.41229993  0.47625238  1
  O2-  O401  1  0.34435072  0.41466562  0.80960663  1
  O2-  O402  1  0.33774749  0.66832809  0.14582278  1
  O2-  O403  1  0.30684237  0.66125665  0.47955820  1
  O2-  O404  1  0.33771705  0.67369907  0.80064163  1
  O2-  O405  1  0.34919565  0.93199863  0.14608614  1
  O2-  O406  1  0.31326694  0.91772814  0.48951215  1
  O2-  O407  1  0.34027167  0.91705852  0.81619161  1
  O2-  O408  1  0.58602448  0.15312537  0.14147893  1
  O2-  O409  1  0.57848991  0.17137645  0.48486302  1
  O2-  O410  1  0.59773568  0.16249251  0.80986661  1
  O2-  O411  1  0.58296840  0.42474202  0.13248840  1
  O2-  O412  1  0.58618634  0.42574635  0.48754462  1
  O2-  O413  1  0.59153337  0.41290281  0.81193833  1
  O2-  O414  1  0.62526910  0.74541479  0.17306884  1
  O2-  O415  1  0.59941130  0.67396703  0.48568923  1
  O2-  O416  1  0.57931097  0.66750084  0.82985559  1
  O2-  O417  1  0.65949437  0.95372387  0.12950161  1
  O2-  O418  1  0.60371063  0.91723229  0.48331294  1
  O2-  O419  1  0.56569734  0.89569911  0.82946767  1
  O2-  O420  1  0.80974312  0.10885594  0.13781205  1
  O2-  O421  1  0.86760872  0.17126483  0.50968620  1
  O2-  O422  1  0.82414783  0.14080018  0.80483958  1
  O2-  O423  1  0.81392393  0.39506098  0.14784852  1
  O2-  O424  1  0.73925857  0.41002960  0.54257234  1
  O2-  O425  1  0.83247576  0.42045083  0.81431659  1
  O2-  O426  1  0.79846179  0.64348988  0.15900832  1
  O2-  O427  1  0.82695842  0.64694428  0.46661522  1
  O2-  O428  1  0.84545981  0.67990532  0.82792001  1
  O2-  O429  1  0.83029300  0.89963470  0.14251739  1
  O2-  O430  1  0.84704872  0.92325506  0.48176021  1
  O2-  O431  1  0.82860574  0.90997831  0.81388821  1
  O2-  O432  1  0.17342756  0.08523391  0.18326629  1
  O2-  O433  1  0.17842372  0.08909266  0.51822408  1
  O2-  O434  1  0.11486184  0.04272173  0.80695410  1
  O2-  O435  1  0.18444077  0.35170083  0.17639964  1
  O2-  O436  1  0.19181251  0.38372031  0.52847865  1
  O2-  O437  1  0.18114799  0.31807967  0.85789629  1
  O2-  O438  1  0.16962117  0.58461364  0.18652882  1
  O2-  O439  1  0.15020645  0.57722766  0.52104768  1
  O2-  O440  1  0.17795739  0.60147392  0.85870812  1
  O2-  O441  1  0.18258874  0.84815609  0.18989402  1
  O2-  O442  1  0.14576739  0.82994762  0.51942205  1
  O2-  O443  1  0.17374970  0.83473110  0.86050127  1
  O2-  O444  1  0.42795395  0.08786917  0.19697839  1
  O2-  O445  1  0.41839680  0.08222991  0.52933731  1
  O2-  O446  1  0.43385798  0.07561503  0.84913365  1
  O2-  O447  1  0.43679902  0.35766168  0.17553342  1
  O2-  O448  1  0.42397044  0.33211362  0.52811567  1
  O2-  O449  1  0.43059972  0.34328316  0.85634039  1
  O2-  O450  1  0.42811124  0.58987984  0.16688388  1
  O2-  O451  1  0.43158374  0.57021686  0.53242960  1
  O2-  O452  1  0.40447732  0.58269620  0.84952810  1
  O2-  O453  1  0.41417560  0.83207894  0.19772429  1
  O2-  O454  1  0.38454338  0.83126918  0.51657855  1
  O2-  O455  1  0.41262005  0.83524196  0.86700447  1
  O2-  O456  1  0.65224953  0.07255094  0.19382249  1
  O2-  O457  1  0.68145048  0.09963556  0.50850448  1
  O2-  O458  1  0.66865792  0.07049270  0.84836811  1
  O2-  O459  1  0.66129994  0.35624588  0.19496507  1
  O2-  O460  1  0.65175204  0.33720094  0.53747230  1
  O2-  O461  1  0.66505296  0.32532364  0.85920142  1
  O2-  O462  1  0.65284695  0.58067884  0.19665087  1
  O2-  O463  1  0.68385654  0.59366961  0.52134579  1
  O2-  O464  1  0.68202241  0.58142012  0.85212074  1
  O2-  O465  1  0.67556948  0.83446450  0.19557592  1
  O2-  O466  1  0.68169687  0.83571168  0.52488727  1
  O2-  O467  1  0.66268090  0.82574795  0.86537308  1
  O2-  O468  1  0.91408971  0.06050055  0.18975882  1
  O2-  O469  1  0.95981964  0.10243173  0.46870020  1
  O2-  O470  1  0.90885612  0.08036908  0.85601948  1
  O2-  O471  1  0.91701375  0.33079337  0.18459450  1
  O2-  O472  1  0.91800850  0.34895637  0.52579951  1
  O2-  O473  1  0.92544175  0.34630937  0.85593821  1
  O2-  O474  1  0.88824607  0.56481238  0.18700148  1
  O2-  O475  1  0.87584324  0.53093049  0.51114901  1
  O2-  O476  1  0.92018702  0.58629555  0.86018138  1
  O2-  O477  1  0.89773489  0.80803148  0.18930207  1
  O2-  O478  1  0.91256018  0.83354017  0.52763454  1
  O2-  O479  1  0.92779987  0.83248405  0.95565582  1
  O2-  O480  1  0.16252842  0.08175455  0.33007756  1
  O2-  O481  1  0.17756454  0.08443405  0.64236258  1
  O2-  O482  1  0.13992544  0.06388153  1.05567898  1
  O2-  O483  1  0.04381733  0.23875146  0.30295706  1
  O2-  O484  1  0.16663845  0.33650451  0.64391033  1
  O2-  O485  1  0.17903820  0.33861513  0.98802581  1
  O2-  O486  1  0.16895793  0.57979148  0.30564326  1
  O2-  O487  1  0.15925616  0.58410861  0.64771389  1
  O2-  O488  1  0.17288593  0.58608235  0.98046888  1
  O2-  O489  1  0.17760874  0.84604682  0.31510758  1
  O2-  O490  1  0.14622276  0.83191138  0.64488053  1
  O2-  O491  1  0.17132875  0.83105442  0.98328493  1
  O2-  O492  1  0.40891671  0.07239739  0.32057822  1
  O2-  O493  1  0.41692315  0.06745073  0.65386432  1
  O2-  O494  1  0.43432795  0.06747753  0.96971118  1
  O2-  O495  1  0.43291070  0.32792172  0.31787784  1
  O2-  O496  1  0.42148916  0.33044180  0.65034653  1
  O2-  O497  1  0.41935344  0.36000954  0.97770900  1
  O2-  O498  1  0.42412137  0.58571703  0.31133560  1
  O2-  O499  1  0.41844873  0.57480853  0.64958054  1
  O2-  O500  1  0.40958689  0.58688772  0.97347033  1
  O2-  O501  1  0.39730188  0.82574058  0.31518812  1
  O2-  O502  1  0.41309390  0.83241582  0.64080703  1
  O2-  O503  1  0.42628078  0.83913426  0.98711690  1
  O2-  O504  1  0.64394209  0.06655654  0.30687826  1
  O2-  O505  1  0.67644727  0.09579099  0.63550535  1
  O2-  O506  1  0.67695230  0.08306362  0.97324883  1
  O2-  O507  1  0.68174211  0.34875062  0.32656432  1
  O2-  O508  1  0.65643778  0.32505924  0.65202133  1
  O2-  O509  1  0.65316833  0.32863633  0.98035417  1
  O2-  O510  1  0.65179708  0.57630517  0.30996220  1
  O2-  O511  1  0.67630579  0.58890935  0.65241671  1
  O2-  O512  1  0.66445795  0.57540798  0.97990117  1
  O2-  O513  1  0.64918681  0.83580179  0.31546715  1
  O2-  O514  1  0.65808623  0.83151060  0.65103454  1
  O2-  O515  1  0.66704468  0.82081721  0.98580753  1
  O2-  O516  1  0.90991522  0.07282222  0.31304685  1
  O2-  O517  1  0.91275713  0.07034727  0.64712934  1
  O2-  O518  1  0.90734322  0.06656567  0.97775866  1
  O2-  O519  1  0.93513429  0.32629928  0.30045762  1
  O2-  O520  1  0.91681956  0.32925713  0.65033339  1
  O2-  O521  1  0.92907082  0.32833482  0.99236776  1
  O2-  O522  1  0.92745380  0.57496102  0.31640093  1
  O2-  O523  1  0.90896548  0.57704273  0.64951199  1
  O2-  O524  1  0.91957077  0.59188402  0.98158780  1
  O2-  O525  1  0.92842622  0.82461418  0.31220804  1
  O2-  O526  1  0.91450205  0.83439128  0.65401859  1
  O2-  O527  1  0.92375721  0.83367351  0.88867115  1
  O2-  O528  1  0.08360904  0.16363261  -0.01579638  1
  O2-  O529  1  0.08980161  0.14490523  0.40377109  1
  O2-  O530  1  0.08564070  0.15595394  0.64109043  1
  O2-  O531  1  0.09500463  0.42067031  0.02106136  1
  O2-  O532  1  0.08707002  0.41360732  0.35214889  1
  O2-  O533  1  0.08934170  0.42160305  0.69162748  1
  O2-  O534  1  0.08284638  0.66370912  0.02232323  1
  O2-  O535  1  0.09840807  0.66992216  0.34717144  1
  O2-  O536  1  0.07914693  0.66522196  0.69351640  1
  O2-  O537  1  0.07539472  0.89873260  0.02160438  1
  O2-  O538  1  0.08672612  0.91268060  0.35721873  1
  O2-  O539  1  0.07492265  0.91712034  0.69209481  1
  O2-  O540  1  0.37298853  0.17572236  -0.01385727  1
  O2-  O541  1  0.33742869  0.15817455  0.36386686  1
  O2-  O542  1  0.33788146  0.16087098  0.68876275  1
  O2-  O543  1  0.33008841  0.41782393  0.02570602  1
  O2-  O544  1  0.37924795  0.43742287  0.35230646  1
  O2-  O545  1  0.33277050  0.40867116  0.68837125  1
  O2-  O546  1  0.33849730  0.67331473  0.02195035  1
  O2-  O547  1  0.32823249  0.65628430  0.35262484  1
  O2-  O548  1  0.33154455  0.66338582  0.67531862  1
  O2-  O549  1  0.33730258  0.91285069  0.02452659  1
  O2-  O550  1  0.33367022  0.91648131  0.34948249  1
  O2-  O551  1  0.34713245  0.90606073  0.69700520  1
  O2-  O552  1  0.59163110  0.16299572  0.01624278  1
  O2-  O553  1  0.58832385  0.17688070  0.30965449  1
  O2-  O554  1  0.58629440  0.16235599  0.68748322  1
  O2-  O555  1  0.58988269  0.42379221  0.02229213  1
  O2-  O556  1  0.59473138  0.42057775  0.36637085  1
  O2-  O557  1  0.58889521  0.41911233  0.69095447  1
  O2-  O558  1  0.57250448  0.65750316  0.02779460  1
  O2-  O559  1  0.58101966  0.66548723  0.36029149  1
  O2-  O560  1  0.57868685  0.66413052  0.69420629  1
  O2-  O561  1  0.59446936  0.91679669  0.01785575  1
  O2-  O562  1  0.55496702  0.90388707  0.36251914  1
  O2-  O563  1  0.57018590  0.92557247  0.67362186  1
  O2-  O564  1  0.83613061  0.15663990  0.02007600  1
  O2-  O565  1  0.83711264  0.17077370  0.37378151  1
  O2-  O566  1  0.83111681  0.16512951  0.69212313  1
  O2-  O567  1  0.81738215  0.41543637  0.01737152  1
  O2-  O568  1  0.85518324  0.40709523  0.31714305  1
  O2-  O569  1  0.82962421  0.40983228  0.68834745  1
  O2-  O570  1  0.82508733  0.67140681  0.00556987  1
  O2-  O571  1  0.79862554  0.65402713  0.35387746  1
  O2-  O572  1  0.83668700  0.67298410  0.70454455  1
  O2-  O573  1  0.83705144  0.90010203  0.01674094  1
  O2-  O574  1  0.86680875  0.92421190  0.35752393  1
  O2-  O575  1  0.82596565  0.90540820  0.69488423  1
