# generated using pymatgen
data_H2O
_symmetry_space_group_name_H-M   'P 1'
_cell_length_a   17.98988986
_cell_length_b   18.00062200
_cell_length_c   22.01937136
_cell_angle_alpha   90.00379483
_cell_angle_beta   89.99342317
_cell_angle_gamma   119.99760709
_symmetry_Int_Tables_number   1
_chemical_formula_structural   H2O
_chemical_formula_sum   'H384 O192'
_cell_volume   6175.35648116
_cell_formula_units_Z   192
loop_
 _symmetry_equiv_pos_site_id
 _symmetry_equiv_pos_as_xyz
  1  'x, y, z'
loop_
 _atom_type_symbol
 _atom_type_oxidation_number
  H+  1.0
  O2-  -2.0
loop_
 _atom_site_type_symbol
 _atom_site_label
 _atom_site_symmetry_multiplicity
 _atom_site_fract_x
 _atom_site_fract_y
 _atom_site_fract_z
 _atom_site_occupancy
  H+  H0  1  0.15499026  0.62405202  0.17599793  1
  H+  H1  1  0.15663541  0.13199100  0.50796334  1
  H+  H2  1  -0.02308526  0.86330969  0.83477607  1
  H+  H3  1  0.13224705  0.39828089  0.13422424  1
  H+  H4  1  0.28228585  0.64531801  0.00155754  1
  H+  H5  1  0.77552999  0.14079940  0.49303437  1
  H+  H6  1  0.14203380  0.35211914  0.66001068  1
  H+  H7  1  0.33198622  0.91894241  0.42045572  1
  H+  H8  1  0.47749598  0.11451940  0.50066963  1
  H+  H9  1  1.02132934  0.40437203  0.99749952  1
  H+  H10  1  0.60857484  0.88834047  -0.00799427  1
  H+  H11  1  0.16675246  0.58381034  0.23706951  1
  H+  H12  1  0.85967258  0.37255718  0.83020983  1
  H+  H13  1  0.14799374  0.54942126  -0.01063040  1
  H+  H14  1  0.10194822  0.70647351  0.82677334  1
  H+  H15  1  0.87072457  0.89006710  0.50138022  1
  H+  H16  1  0.13496592  1.01789512  0.83381870  1
  H+  H17  1  0.62771025  0.91356816  0.51460001  1
  H+  H18  1  0.63575308  0.77003604  0.19177201  1
  H+  H19  1  0.29366826  0.42585944  0.99911267  1
  H+  H20  1  0.13475176  0.51521338  0.51236042  1
  H+  H21  1  0.46452022  0.86791303  0.52821881  1
  H+  H22  1  0.63180249  0.86238260  0.81930104  1
  H+  H23  1  0.88187724  0.60803246  0.99400118  1
  H+  H24  1  0.11572787  0.45556406  0.68009175  1
  H+  H25  1  0.63635560  0.27211547  0.50816227  1
  H+  H26  1  0.63019272  0.89828028  0.35455064  1
  H+  H27  1  0.86314121  0.89310191  0.34462122  1
  H+  H28  1  0.01582030  0.40414660  0.15785064  1
  H+  H29  1  0.88817057  0.27211785  -0.00608711  1
  H+  H30  1  0.71708298  0.61109996  0.83193956  1
  H+  H31  1  0.63659757  0.27055553  -0.00515030  1
  H+  H32  1  0.52571600  0.38350142  0.15040499  1
  H+  H33  1  0.84562871  0.63279639  0.51254141  1
  H+  H34  1  0.96622707  0.85037469  0.50754314  1
  H+  H35  1  0.33084804  0.17061790  0.06594456  1
  H+  H36  1  0.67425212  0.84108841  0.28130250  1
  H+  H37  1  0.84868808  0.96272753  0.15642602  1
  H+  H38  1  0.63539190  0.61246328  -0.01009547  1
  H+  H39  1  0.39455113  0.36952576  0.51429108  1
  H+  H40  1  0.10675973  0.49448426  0.16096855  1
  H+  H41  1  0.60402907  0.21551044  0.33635982  1
  H+  H42  1  0.53564253  0.39951242  0.67427025  1
  H+  H43  1  0.50151155  0.86806415  0.80967211  1
  H+  H44  1  0.80505763  0.50750512  0.56387137  1
  H+  H45  1  0.14249348  0.53473925  0.33372204  1
  H+  H46  1  0.59253249  -0.03638547  0.19900332  1
  H+  H47  1  0.12867674  0.86087488  0.17668310  1
  H+  H48  1  0.12796989  0.10405069  0.32549949  1
  H+  H49  1  0.64695267  0.37330197  0.66324597  1
  H+  H50  1  0.86103008  0.88286426  0.81686053  1
  H+  H51  1  0.73519992  0.87327905  0.34019546  1
  H+  H52  1  0.85582071  0.48074996  0.32969563  1
  H+  H53  1  0.86677533  0.09475021  0.84006397  1
  H+  H54  1  0.40168667  0.54402474  -0.00580486  1
  H+  H55  1  0.36061054  0.14020149  0.16412554  1
  H+  H56  1  0.60367446  0.64208915  0.69074812  1
  H+  H57  1  0.13671004  0.80137141  0.66017014  1
  H+  H58  1  0.11263859  0.88757313  0.00088073  1
  H+  H59  1  0.85289370  0.72648634  0.50877408  1
  H+  H60  1  0.89483105  0.02399755  0.65892520  1
  H+  H61  1  0.40950774  0.83486869  0.89096536  1
  H+  H62  1  0.47175125  0.60716576  0.66270329  1
  H+  H63  1  0.89008910  0.60152055  0.83876922  1
  H+  H64  1  0.14398694  0.37034330  0.35869088  1
  H+  H65  1  0.35884330  0.39976807  0.14259439  1
  H+  H66  1  0.88668082  0.02786339  0.33181149  1
  H+  H67  1  0.90787166  0.42206198  0.47255486  1
  H+  H68  1  0.01974335  0.13510797  0.33874192  1
  H+  H69  1  0.18026606  0.71411377  0.66861722  1
  H+  H70  1  0.13204243  0.60139228  0.51344028  1
  H+  H71  1  0.88153980  0.98506356  0.49833532  1
  H+  H72  1  0.38818269  1.02371061  0.49491779  1
  H+  H73  1  0.33876218  0.41913156  0.28917806  1
  H+  H74  1  0.94266929  0.73299306  0.38874102  1
  H+  H75  1  0.63453873  0.61528044  0.32843538  1
  H+  H76  1  0.10079767  0.10551863  0.15702100  1
  H+  H77  1  0.83471416  0.47214546  0.15805000  1
  H+  H78  1  0.17590220  0.33909409  0.41406334  1
  H+  H79  1  0.63827432  0.11292001  0.33024279  1
  H+  H80  1  0.00384413  0.61293349  0.66442789  1
  H+  H81  1  0.09978639  0.87462412  0.48920342  1
  H+  H82  1  0.59594941  0.92763366  0.45027828  1
  H+  H83  1  0.86022390  0.47116903  0.00733460  1
  H+  H84  1  0.62672166  0.71604149  0.04120578  1
  H+  H85  1  0.35887361  -0.02035988  1.00170288  1
  H+  H86  1  0.82881218  0.65859902  0.88361529  1
  H+  H87  1  1.02981046  0.13893251  0.49800532  1
  H+  H88  1  0.41157670  0.88505234  0.32199315  1
  H+  H89  1  0.39344115  0.37456303  0.98863488  1
  H+  H90  1  0.87048678  0.29331777  0.19334037  1
  H+  H91  1  0.38640808  0.27650797  0.83889587  1
  H+  H92  1  0.61684925  0.38733663  1.00468792  1
  H+  H93  1  0.12996543  0.77471108  1.00136182  1
  H+  H94  1  0.27481624  0.37654629  0.34377116  1
  H+  H95  1  0.88082876  0.35738159  0.99386571  1
  H+  H96  1  0.25114672  0.10301283  0.34093520  1
  H+  H97  1  0.61573471  0.23451829  0.82751962  1
  H+  H98  1  0.54247152  0.89965283  0.35773082  1
  H+  H99  1  0.77874011  0.14584556  0.33875731  1
  H+  H100  1  0.50234824  0.87791755  0.18707187  1
  H+  H101  1  0.85799730  0.20894908  0.68690574  1
  H+  H102  1  0.89418811  0.11864101  0.50838878  1
  H+  H103  1  0.61946028  0.23074700  0.67219783  1
  H+  H104  1  0.10665666  0.87513265  0.82777773  1
  H+  H105  1  0.38592218  0.62562198  0.32933571  1
  H+  H106  1  0.35870218  0.98442759  0.15521041  1
  H+  H107  1  0.26957367  0.13321013  0.49862785  1
  H+  H108  1  0.22775917  0.87095207  0.32819109  1
  H+  H109  1  0.65411637  0.87060581  0.62724068  1
  H+  H110  1  0.86035339  0.72417794  1.00697919  1
  H+  H111  1  1.00820154  0.87944521  0.33053225  1
  H+  H112  1  -0.03409735  0.08971459  0.17025525  1
  H+  H113  1  0.98211963  0.11469364  0.66221959  1
  H+  H114  1  0.64573437  0.53473462  0.67844238  1
  H+  H115  1  0.37381341  0.74002568  0.33707793  1
  H+  H116  1  0.86108514  0.12238589  0.67918509  1
  H+  H117  1  0.87747974  0.38142813  0.17808571  1
  H+  H118  1  0.51072217  0.34941287  0.35060377  1
  H+  H119  1  0.11009550  0.22169170  0.35133721  1
  H+  H120  1  0.86757825  0.20003241  0.14434010  1
  H+  H121  1  0.72682523  0.36170718  0.84112539  1
  H+  H122  1  0.22169559  0.86448421  0.99747795  1
  H+  H123  1  0.37216986  0.08153680  0.32725148  1
  H+  H124  1  0.26801154  0.13170398  0.16319272  1
  H+  H125  1  0.14580026  1.02743994  -0.02142093  1
  H+  H126  1  0.37211006  0.39280570  0.82584200  1
  H+  H127  1  0.81249469  0.66285819  0.06386330  1
  H+  H128  1  0.11813657  1.00975613  0.32554733  1
  H+  H129  1  0.23512659  0.36351647  0.50112522  1
  H+  H130  1  0.03034960  0.39642783  0.34433601  1
  H+  H131  1  0.52443999  0.38478328  0.82705295  1
  H+  H132  1  0.87699254  0.77516522  0.32976900  1
  H+  H133  1  0.61487811  0.46269886  0.48203103  1
  H+  H134  1  0.03212732  0.65211126  0.50476329  1
  H+  H135  1  0.88632104  0.61995362  0.32903435  1
  H+  H136  1  0.37814621  0.33249628  0.32821070  1
  H+  H137  1  0.66216204  0.59207776  0.89132155  1
  H+  H138  1  0.87683411  0.26872063  0.49322259  1
  H+  H139  1  0.39605401  0.53569652  0.17352973  1
  H+  H140  1  0.46939583  0.60640034  0.84092058  1
  H+  H141  1  0.86553827  0.72774329  0.83374433  1
  H+  H142  1  0.60772459  0.36000748  0.34190305  1
  H+  H143  1  0.35777906  0.88946652  0.00123227  1
  H+  H144  1  0.38371620  0.65009635  0.15202900  1
  H+  H145  1  0.61488438  0.14530014  0.82806523  1
  H+  H146  1  0.60515246  0.72533416  0.83056770  1
  H+  H147  1  0.88862575  0.35302435  0.67720822  1
  H+  H148  1  0.13743947  0.62120171  0.32886481  1
  H+  H149  1  0.37069874  0.24289403  0.67810170  1
  H+  H150  1  0.11085030  0.73624097  0.33724771  1
  H+  H151  1  0.13437407  0.58998793  0.66645097  1
  H+  H152  1  -0.01147845  0.87411082  0.66885858  1
  H+  H153  1  0.24705509  0.13185818  0.66440923  1
  H+  H154  1  1.11452429  0.14232673  0.82703609  1
  H+  H155  1  0.17652541  1.03546020  0.64527865  1
  H+  H156  1  -0.01206422  0.85949935  0.16977642  1
  H+  H157  1  0.17612779  0.36331836  0.04371855  1
  H+  H158  1  0.53068062  0.39082615  1.00502458  1
  H+  H159  1  0.14392985  0.27102422  0.49999159  1
  H+  H160  1  0.90974430  0.61473643  0.16289413  1
  H+  H161  1  0.12308970  1.00040497  0.17518263  1
  H+  H162  1  0.14399754  0.32138167  0.15595814  1
  H+  H163  1  0.47678242  0.35891777  0.51114910  1
  H+  H164  1  0.27271740  0.13694640  0.82645057  1
  H+  H165  1  0.38187242  -0.00057101  0.32151959  1
  H+  H166  1  0.36645261  0.98079905  0.67087821  1
  H+  H167  1  0.34249786  0.18793334  0.34731748  1
  H+  H168  1  0.48543100  0.10590388  0.65469122  1
  H+  H169  1  0.71599394  0.09752830  0.17384372  1
  H+  H170  1  0.83433915  0.16768387  0.43216833  1
  H+  H171  1  0.73322545  0.36731820  0.66272142  1
  H+  H172  1  0.87981499  0.46992224  0.68317503  1
  H+  H173  1  0.63224109  0.11853185  -0.00259377  1
  H+  H174  1  0.86747831  0.14538475  0.33751703  1
  H+  H175  1  0.47499690  0.60576749  0.50769518  1
  H+  H176  1  0.72358987  0.86501502  0.82336862  1
  H+  H177  1  0.58136040  0.91125878  0.05458540  1
  H+  H178  1  0.85294651  0.12218858  0.99811631  1
  H+  H179  1  0.61559789  0.14056170  0.49452698  1
  H+  H180  1  0.75456188  0.87049751  -0.00024154  1
  H+  H181  1  0.15290726  0.41469141  0.99980491  1
  H+  H182  1  0.64833720  0.02969335  0.33513529  1
  H+  H183  1  0.77076584  0.38190637  0.00623733  1
  H+  H184  1  0.76983110  0.12583664  0.83243067  1
  H+  H185  1  0.40064919  0.37525589  0.66628653  1
  H+  H186  1  0.27920281  0.41721349  0.13468171  1
  H+  H187  1  0.27572180  0.14328248  1.00426730  1
  H+  H188  1  0.60646736  0.13048987  0.16339419  1
  H+  H189  1  1.02774294  0.37588005  0.83256539  1
  H+  H190  1  0.35699469  0.71276542  0.82594845  1
  H+  H191  1  0.60482294  0.63515945  0.82918103  1
  H+  H192  1  0.60647223  0.21988411  0.16322114  1
  H+  H193  1  0.79566703  0.64306903  0.67659847  1
  H+  H194  1  0.22555681  0.87578957  0.16920452  1
  H+  H195  1  0.87188556  0.51526010  0.51417114  1
  H+  H196  1  0.92253712  0.35166082  0.27663741  1
  H+  H197  1  0.52667038  0.65236600  0.34358751  1
  H+  H198  1  0.88417669  0.64227603  0.67234944  1
  H+  H199  1  0.13465743  0.10853416  0.98330541  1
  H+  H200  1  0.27983735  0.65398475  0.33618311  1
  H+  H201  1  0.10248597  0.19248464  0.16160894  1
  H+  H202  1  -0.03060414  0.61630624  0.31437120  1
  H+  H203  1  0.27796103  0.90186471  0.48382365  1
  H+  H204  1  0.10827397  0.62017222  0.81747351  1
  H+  H205  1  1.11830843  0.22137670  0.67011116  1
  H+  H206  1  0.21739958  0.80858907  0.85913005  1
  H+  H207  1  0.64475959  0.59384417  0.26204046  1
  H+  H208  1  0.26607593  0.90859103  0.67702736  1
  H+  H209  1  0.53219167  0.63154785  0.17980068  1
  H+  H210  1  0.87555760  0.88885543  0.66893088  1
  H+  H211  1  0.51912937  0.13597837  1.00865293  1
  H+  H212  1  0.88531896  0.26148569  0.84169806  1
  H+  H213  1  0.61140962  0.47528325  0.82718747  1
  H+  H214  1  0.37895039  0.86351718  0.83181070  1
  H+  H215  1  0.47238501  0.11286683  0.17305897  1
  H+  H216  1  0.46971368  0.86763851  -0.01474727  1
  H+  H217  1  0.27861116  0.38273726  0.67331181  1
  H+  H218  1  0.11544623  0.13273411  0.67629871  1
  H+  H219  1  0.04930806  0.64721319  0.17381469  1
  H+  H220  1  0.86378273  0.46420552  0.82996373  1
  H+  H221  1  0.51670851  0.12352679  0.33811104  1
  H+  H222  1  0.36023582  0.62077554  0.67813505  1
  H+  H223  1  0.71999198  0.60466608  0.50076303  1
  H+  H224  1  0.39264092  0.63781261  0.99936700  1
  H+  H225  1  0.96874919  0.86309776  0.98867493  1
  H+  H226  1  0.36480714  0.14222369  0.83011776  1
  H+  H227  1  0.87594254  0.85534892  0.99047231  1
  H+  H228  1  0.39534855  1.03496421  0.83825801  1
  H+  H229  1  0.92739850  0.57373712  0.61588686  1
  H+  H230  1  1.02106380  0.38055646  0.49725821  1
  H+  H231  1  0.37707764  0.50045910  0.82972734  1
  H+  H232  1  0.86733468  -0.00152144  0.83344982  1
  H+  H233  1  0.72014874  0.64613264  0.15389935  1
  H+  H234  1  0.89176887  0.28458399  0.33201286  1
  H+  H235  1  0.10071621  0.88235026  0.33306680  1
  H+  H236  1  1.02017960  0.63922497  1.00957423  1
  H+  H237  1  0.38626684  0.11742702  0.99428476  1
  H+  H238  1  0.83400161  0.91516409  0.75588953  1
  H+  H239  1  0.12684614  0.88572541  0.66767931  1
  H+  H240  1  0.63774990  0.11092166  0.66197315  1
  H+  H241  1  0.08529028  0.42609927  0.40514729  1
  H+  H242  1  0.84201987  0.92547737  0.40739483  1
  H+  H243  1  0.59958048  0.62483304  0.49125455  1
  H+  H244  1  0.64199917  0.03481933  0.50945708  1
  H+  H245  1  0.62380023  0.35151147  0.17122188  1
  H+  H246  1  0.61703361  0.37228759  0.49407091  1
  H+  H247  1  0.16064383  0.78987246  0.52072407  1
  H+  H248  1  0.72224023  0.10253140  0.66427304  1
  H+  H249  1  0.57450518  0.94638197  0.77214966  1
  H+  H250  1  0.87797902  0.09192424  0.16813108  1
  H+  H251  1  0.33351449  0.93043973  0.76049098  1
  H+  H252  1  0.07137114  0.18380095  -0.02119242  1
  H+  H253  1  0.66751330  0.32962389  0.93480589  1
  H+  H254  1  0.21699006  0.60132002  0.82913300  1
  H+  H255  1  0.37606433  0.60251658  0.83651288  1
  H+  H256  1  0.84873105  0.75714167  0.17141765  1
  H+  H257  1  0.75637363  0.87849514  0.16080074  1
  H+  H258  1  0.63007839  0.02643651  0.85087099  1
  H+  H259  1  0.86242031  0.39534580  0.33870206  1
  H+  H260  1  0.12925834  0.51082697  0.83146689  1
  H+  H261  1  0.16918594  0.84207155  0.26812153  1
  H+  H262  1  0.78943817  0.89428856  0.65760997  1
  H+  H263  1  1.02879895  0.36651793  0.68801722  1
  H+  H264  1  0.97727273  0.59886513  0.83488328  1
  H+  H265  1  0.36491024  0.72813547  0.14950736  1
  H+  H266  1  0.95575520  0.08369978  0.98651073  1
  H+  H267  1  0.36464962  0.47587633  0.67292549  1
  H+  H268  1  0.62088629  0.85163383  0.19843154  1
  H+  H269  1  0.37022672  0.48203573  0.49762405  1
  H+  H270  1  0.71259156  0.35112430  0.17291531  1
  H+  H271  1  0.37433687  0.27542247  0.16348670  1
  H+  H272  1  0.27040390  0.62291826  0.49330518  1
  H+  H273  1  0.38560445  0.87570876  0.50715779  1
  H+  H274  1  0.08805436  0.23342058  0.89028767  1
  H+  H275  1  0.15758997  0.64024406  -0.00361957  1
  H+  H276  1  0.86186919  0.85117210  0.17102102  1
  H+  H277  1  0.90100075  0.78258008  0.65762562  1
  H+  H278  1  0.30546644  0.83589800  0.35515308  1
  H+  H279  1  0.61044667  -0.03830110  0.65145429  1
  H+  H280  1  0.12693997  0.74143744  0.16373402  1
  H+  H281  1  0.72088998  0.35750908  0.32466487  1
  H+  H282  1  0.63886894  0.36594958  0.84118773  1
  H+  H283  1  0.79606442  0.62325316  0.16010293  1
  H+  H284  1  0.27983581  0.91848841  0.82089982  1
  H+  H285  1  0.36361841  0.86271598  0.16490096  1
  H+  H286  1  0.39244877  0.54034634  0.33635825  1
  H+  H287  1  0.16773394  0.08281759  0.89010848  1
  H+  H288  1  0.33603779  0.18112623  0.73662103  1
  H+  H289  1  0.76032422  0.90579904  0.53028385  1
  H+  H290  1  0.89013531  0.82261768  0.26517131  1
  H+  H291  1  0.61758589  0.73781830  0.34980382  1
  H+  H292  1  0.91886875  0.83589274  0.57260743  1
  H+  H293  1  0.91578484  0.57808750  0.93607442  1
  H+  H294  1  0.35647789  0.44831198  0.05474249  1
  H+  H295  1  0.34826756  0.67644992  0.06095477  1
  H+  H296  1  0.87338068  0.45792927  0.42003357  1
  H+  H297  1  0.33987187  0.42097004  0.76488526  1
  H+  H298  1  0.67798563  0.61686704  0.63490713  1
  H+  H299  1  0.07321424  0.66964984  0.39318559  1
  H+  H300  1  0.65927425  0.32562259  0.26506693  1
  H+  H301  1  0.91351601  0.83748477  0.89216809  1
  H+  H302  1  0.64743730  0.55213459  0.54999747  1
  H+  H303  1  0.87150808  0.33177968  0.54134979  1
  H+  H304  1  0.17165652  0.85673688  0.57086816  1
  H+  H305  1  0.66488353  0.09081644  0.90624045  1
  H+  H306  1  0.59001407  0.41002202  0.09552797  1
  H+  H307  1  0.41673581  0.35870783  0.20733247  1
  H+  H308  1  0.36534184  0.12336802  0.49341203  1
  H+  H309  1  0.83573498  0.40628617  0.73931806  1
  H+  H310  1  0.57826635  0.16362857  0.06874573  1
  H+  H311  1  0.80871563  0.89792833  0.06282827  1
  H+  H312  1  0.48274959  0.87877715  0.27816385  1
  H+  H313  1  0.32720047  0.92480608  0.09452967  1
  H+  H314  1  0.07247131  0.44521883  0.05878855  1
  H+  H315  1  0.11173041  0.38198241  0.49519198  1
  H+  H316  1  0.40981183  0.28349058  0.28375307  1
  H+  H317  1  0.92485788  0.31895587  0.62421675  1
  H+  H318  1  0.76878663  0.13244125  0.00143341  1
  H+  H319  1  0.41428228  0.57489275  0.60087726  1
  H+  H320  1  0.37075087  0.81648678  0.22415913  1
  H+  H321  1  0.00027902  0.56825503  0.46697224  1
  H+  H322  1  0.59166401  0.42158075  0.73492779  1
  H+  H323  1  0.82303266  0.41298678  0.09933479  1
  H+  H324  1  0.30733615  0.82878291  0.65220047  1
  H+  H325  1  0.91306224  0.32376628  0.89938373  1
  H+  H326  1  0.38661445  0.28186608  0.99374531  1
  H+  H327  1  0.38432077  0.77701310  0.98696766  1
  H+  H328  1  0.73161054  0.63383127  0.98361123  1
  H+  H329  1  0.33052708  0.65777710  0.43437596  1
  H+  H330  1  0.08164141  0.15799760  0.43545284  1
  H+  H331  1  0.61416275  0.77301098  0.96265617  1
  H+  H332  1  0.85194167  0.67948905  0.41692441  1
  H+  H333  1  0.57913221  0.38891303  0.41517683  1
  H+  H334  1  0.86277590  -0.00124318  0.99012801  1
  H+  H335  1  0.27168526  0.61935073  0.68068450  1
  H+  H336  1  0.08049729  0.67168223  0.06934291  1
  H+  H337  1  0.17309168  0.27426111  0.23462368  1
  H+  H338  1  0.43053450  0.34572541  0.60669439  1
  H+  H339  1  0.57940659  0.65250704  0.09348810  1
  H+  H340  1  0.41922720  0.58993931  0.23661695  1
  H+  H341  1  0.41807617  0.08934999  0.93478656  1
  H+  H342  1  0.67466980  0.09609593  0.56666696  1
  H+  H343  1  0.06326300  0.89718309  0.42957051  1
  H+  H344  1  0.03873663  0.85980873  0.11232807  1
  H+  H345  1  0.42459693  0.07429268  0.59607864  1
  H+  H346  1  0.41887172  0.33758328  0.89739431  1
  H+  H347  1  0.06747721  0.14781597  0.04936161  1
  H+  H348  1  0.16276046  0.56273223  0.60654560  1
  H+  H349  1  0.07695384  0.90640603  0.76643098  1
  H+  H350  1  0.82257243  0.14124798  0.08880677  1
  H+  H351  1  0.56239181  0.87613860  0.69074081  1
  H+  H352  1  0.57399587  0.66709288  0.43919444  1
  H+  H353  1  0.41071381  0.07626068  0.23156689  1
  H+  H354  1  0.48828147  0.63434426  0.01455158  1
  H+  H355  1  0.66531417  0.33307382  0.56724471  1
  H+  H356  1  0.66186756  0.84279789  0.91297654  1
  H+  H357  1  0.82786677  0.14690830  0.77174259  1
  H+  H358  1  0.11561604  0.68008030  0.72847060  1
  H+  H359  1  0.12527028  0.30272222  -0.05425496  1
  H+  H360  1  0.66894975  0.08520707  0.23810266  1
  H+  H361  1  0.89267057  0.05469825  0.90265395  1
  H+  H362  1  0.09286117  0.39875369  0.77848346  1
  H+  H363  1  0.08294785  0.18374786  0.77877242  1
  H+  H364  1  0.63243779  0.02895983  0.99305121  1
  H+  H365  1  0.09771281  0.94467531  0.05013874  1
  H+  H366  1  0.31671687  0.78397113  0.59472772  1
  H+  H367  1  0.33136350  0.65120992  0.76685379  1
  H+  H368  1  0.91225344  0.07817994  0.26849136  1
  H+  H369  1  0.17298077  0.32984662  0.59767542  1
  H+  H370  1  0.87877592  0.58159430  0.23012330  1
  H+  H371  1  0.58813362  0.17237306  0.73168902  1
  H+  H372  1  0.21145454  0.31881923  0.23764758  1
  H+  H373  1  0.38140901  0.59965710  0.50613271  1
  H+  H374  1  0.58294917  0.16535380  0.43407059  1
  H+  H375  1  0.19158159  0.10887364  0.56935641  1
  H+  H376  1  0.92387435  0.09085512  0.56905323  1
  H+  H377  1  0.35163286  0.42333983  0.43763951  1
  H+  H378  1  0.09232821  0.97659584  0.69877465  1
  H+  H379  1  0.31970163  0.13582995  0.43064812  1
  H+  H380  1  0.15325457  0.06322856  0.23290921  1
  H+  H381  1  0.55935010  0.66554832  0.74128325  1
  H+  H382  1  0.48273320  0.12477379  0.84085449  1
  H+  H383  1  0.16169224  0.82002440  0.90914253  1
  O2-  O384  1  0.07110992  0.13691112  0.14154852  1
  O2-  O385  1  0.08929493  0.16754420  0.48020128  1
  O2-  O386  1  0.08465516  0.17560815  0.82274917  1
  O2-  O387  1  0.07200744  0.43766698  0.13752839  1
  O2-  O388  1  0.08118553  0.41337697  0.48287836  1
  O2-  O389  1  0.08957866  0.40645821  0.82268719  1
  O2-  O390  1  0.09930520  0.68027557  0.14817309  1
  O2-  O391  1  0.05168068  0.62640021  0.47425285  1
  O2-  O392  1  0.07650938  0.65247049  0.80351453  1
  O2-  O393  1  0.04882845  0.88520328  0.15276289  1
  O2-  O394  1  0.05684682  0.88917255  0.47406402  1
  O2-  O395  1  0.07820807  0.90685264  0.81481354  1
  O2-  O396  1  0.32821946  0.16893067  0.14964298  1
  O2-  O397  1  0.33075902  0.15071478  0.47531351  1
  O2-  O398  1  0.33500947  0.17301163  0.81561552  1
  O2-  O399  1  0.34275351  0.44339915  0.13078750  1
  O2-  O400  1  0.33945100  0.41899643  0.48100645  1
  O2-  O401  1  0.34367554  0.42541542  0.81080017  1
  O2-  O402  1  0.35368222  0.67458835  0.12907075  1
  O2-  O403  1  0.32767878  0.63967506  0.47685128  1
  O2-  O404  1  0.33072710  0.65199659  0.81391811  1
  O2-  O405  1  0.32459229  0.92365243  0.14009942  1
  O2-  O406  1  0.33654709  0.92976099  0.46670662  1
  O2-  O407  1  0.33701585  0.93154452  0.80772047  1
  O2-  O408  1  0.57580874  0.15938895  0.14688525  1
  O2-  O409  1  0.58303485  0.16881425  0.47926393  1
  O2-  O410  1  0.58440327  0.17387132  0.81148365  1
  O2-  O411  1  0.58592689  0.40293213  0.14123968  1
  O2-  O412  1  0.58428655  0.39950692  0.47242175  1
  O2-  O413  1  0.58563625  0.41451589  0.81284819  1
  O2-  O414  1  0.59337898  0.66549062  0.16442783  1
  O2-  O415  1  0.56980571  0.65720064  0.48412787  1
  O2-  O416  1  0.56973298  0.66338809  0.82083570  1
  O2-  O417  1  0.55768720  0.90138937  0.20916472  1
  O2-  O418  1  0.59054364  0.93247672  0.49490210  1
  O2-  O419  1  0.55949472  0.89092721  0.78956915  1
  O2-  O420  1  0.82459892  0.14088223  0.13519921  1
  O2-  O421  1  0.83670906  0.17110260  0.47758611  1
  O2-  O422  1  0.82995810  0.14889896  0.81792241  1
  O2-  O423  1  0.81933955  0.41305014  0.14514857  1
  O2-  O424  1  0.90587884  0.47396215  0.45964047  1
  O2-  O425  1  0.82998435  0.40375584  0.81475939  1
  O2-  O426  1  0.78295341  0.66420870  0.13982239  1
  O2-  O427  1  0.82277096  0.66567545  0.49114933  1
  O2-  O428  1  0.83411821  0.66359976  0.83949084  1
  O2-  O429  1  0.81347837  0.90311139  0.13991369  1
  O2-  O430  1  0.84485458  0.92429949  0.48490250  1
  O2-  O431  1  0.82955005  0.91264310  0.80206275  1
  O2-  O432  1  0.15492489  0.06150675  0.18709465  1
  O2-  O433  1  0.19312035  0.10908162  0.52375669  1
  O2-  O434  1  0.16619272  0.08005791  0.84488066  1
  O2-  O435  1  0.16889001  0.36986051  0.12822045  1
  O2-  O436  1  0.17148074  0.33436500  0.50859812  1
  O2-  O437  1  0.07751896  0.24681276  0.93217390  1
  O2-  O438  1  0.16692970  0.57998046  0.19201974  1
  O2-  O439  1  0.16474749  0.57484824  0.52894576  1
  O2-  O440  1  0.15456973  0.57461933  0.83662749  1
  O2-  O441  1  0.16758038  0.83914207  0.18865420  1
  O2-  O442  1  0.17376352  0.84884056  0.52548462  1
  O2-  O443  1  0.16666858  0.81439551  0.86385848  1
  O2-  O444  1  0.41074654  0.08420972  0.18645291  1
  O2-  O445  1  0.41602048  0.08308479  0.51419798  1
  O2-  O446  1  0.42256484  0.09315120  0.85710091  1
  O2-  O447  1  0.40449879  0.34009600  0.16525711  1
  O2-  O448  1  0.42234976  0.33938322  0.53282389  1
  O2-  O449  1  0.41937359  0.33834130  0.85186773  1
  O2-  O450  1  0.42908138  0.59411918  0.19179982  1
  O2-  O451  1  0.41309104  0.57100795  0.52330907  1
  O2-  O452  1  0.40635227  0.56985266  0.85075425  1
  O2-  O453  1  0.38787048  0.82698958  0.18147377  1
  O2-  O454  1  0.40238621  0.84250497  0.53387547  1
  O2-  O455  1  0.40757522  0.83134134  0.84566330  1
  O2-  O456  1  0.65925499  0.07652474  0.19299747  1
  O2-  O457  1  0.67554163  0.09791466  0.52120366  1
  O2-  O458  1  0.66562249  0.08736525  0.86018626  1
  O2-  O459  1  0.65352900  0.32050734  0.19013116  1
  O2-  O460  1  0.66490077  0.33327956  0.52192616  1
  O2-  O461  1  0.66640929  0.33295060  0.85673826  1
  O2-  O462  1  0.63205780  0.61339127  0.18165243  1
  O2-  O463  1  0.65644905  0.56217968  0.50652344  1
  O2-  O464  1  0.65655544  0.58159495  0.84593798  1
  O2-  O465  1  0.66387935  0.83229090  0.20217519  1
  O2-  O466  1  0.71774336  0.91450001  0.55436874  1
  O2-  O467  1  0.66422860  0.83875615  0.84082618  1
  O2-  O468  1  0.90663925  0.06269826  0.18733831  1
  O2-  O469  1  0.92735251  0.09178522  0.52342853  1
  O2-  O470  1  0.89185601  0.05718066  0.85569884  1
  O2-  O471  1  0.91040399  0.35458689  0.19719889  1
  O2-  O472  1  0.90526699  0.33200492  0.50671712  1
  O2-  O473  1  0.91244810  0.32251225  0.85395484  1
  O2-  O474  1  0.86059149  0.57276777  0.18621113  1
  O2-  O475  1  0.86072645  0.54811111  0.54646930  1
  O2-  O476  1  0.91828185  0.56993631  0.85401898  1
  O2-  O477  1  0.88750662  0.81715648  0.18800949  1
  O2-  O478  1  0.90771797  0.82631497  0.52751664  1
  O2-  O479  1  0.91413780  0.83591494  0.84695364  1
  O2-  O480  1  0.15442162  0.07038907  0.30968803  1
  O2-  O481  1  0.18626824  0.09392313  0.64446740  1
  O2-  O482  1  0.17579468  0.08953967  0.96907230  1
  O2-  O483  1  0.17457653  0.33794961  0.36930965  1
  O2-  O484  1  0.17473983  0.32524547  0.64220650  1
  O2-  O485  1  0.18758475  0.38487895  1.00156672  1
  O2-  O486  1  0.17160109  0.59401180  0.31656102  1
  O2-  O487  1  0.15906365  0.55504342  0.65166349  1
  O2-  O488  1  0.18910476  0.61139941  0.98300519  1
  O2-  O489  1  0.16540238  0.84193843  0.31323517  1
  O2-  O490  1  0.16247522  0.86129731  0.64656062  1
  O2-  O491  1  0.16014585  0.83479339  0.98365251  1
  O2-  O492  1  0.40952170  0.06102365  0.30926431  1
  O2-  O493  1  0.42562976  0.06946452  0.64071277  1
  O2-  O494  1  0.41509100  0.08517345  0.98033646  1
  O2-  O495  1  0.40626400  0.29617782  0.32638000  1
  O2-  O496  1  0.43463845  0.34812735  0.65255649  1
  O2-  O497  1  0.41977337  0.34017795  0.97546412  1
  O2-  O498  1  0.41719187  0.59510377  0.31483407  1
  O2-  O499  1  0.41139581  0.57204474  0.64631631  1
  O2-  O500  1  0.43429656  0.61029053  0.98890807  1
  O2-  O501  1  0.44281543  0.85290153  0.31282620  1
  O2-  O502  1  0.27864784  0.77358769  0.63007780  1
  O2-  O503  1  0.40936968  0.83726461  0.97105498  1
  O2-  O504  1  0.67374307  0.08780678  0.31543761  1
  O2-  O505  1  0.66470118  0.07830856  0.64502829  1
  O2-  O506  1  0.66400060  0.08999779  0.97984857  1
  O2-  O507  1  0.65988231  0.32338208  0.31111786  1
  O2-  O508  1  0.67370983  0.34030499  0.64656002  1
  O2-  O509  1  0.67032874  0.33093989  0.98022778  1
  O2-  O510  1  0.65750075  0.58523342  0.30427151  1
  O2-  O511  1  0.67858274  0.59970812  0.67666111  1
  O2-  O512  1  0.68170834  0.62870151  0.96039059  1
  O2-  O513  1  0.67371486  0.84350645  0.32654708  1
  O2-  O514  1  0.69861324  0.85856401  0.60766494  1
  O2-  O515  1  0.65368518  0.83458524  0.95893056  1
  O2-  O516  1  0.91641834  0.08698291  0.31328868  1
  O2-  O517  1  0.92136398  0.08576222  0.64648652  1
  O2-  O518  1  0.89430684  0.05819578  0.97222003  1
  O2-  O519  1  0.92256872  0.34743713  0.32169192  1
  O2-  O520  1  0.91717869  0.31760849  0.66803659  1
  O2-  O521  1  0.91454630  0.33122612  0.97754309  1
  O2-  O522  1  0.90706824  0.58745838  0.30414848  1
  O2-  O523  1  0.94089027  0.57676580  0.65965822  1
  O2-  O524  1  0.91464308  0.57925315  0.98141256  1
  O2-  O525  1  0.90056522  0.83204510  0.31001309  1
  O2-  O526  1  0.92836763  0.84513304  0.64787076  1
  O2-  O527  1  0.90869943  0.82841831  0.97413055  1
  O2-  O528  1  0.05897709  0.13135820  0.00629789  1
  O2-  O529  1  0.07937847  0.15843193  0.35552475  1
  O2-  O530  1  0.08417114  0.16278580  0.68810248  1
  O2-  O531  1  0.07953499  0.44480596  0.01393083  1
  O2-  O532  1  0.09073446  0.42693156  0.35986166  1
  O2-  O533  1  0.09140573  0.39518530  0.69540878  1
  O2-  O534  1  0.08053891  0.67531775  0.02431024  1
  O2-  O535  1  0.07710197  0.67360496  0.34837750  1
  O2-  O536  1  0.11920239  0.68276310  0.68300204  1
  O2-  O537  1  0.08139677  0.92068165  0.00943412  1
  O2-  O538  1  0.06741049  0.90973275  0.34809447  1
  O2-  O539  1  0.07442847  0.91588357  0.70072567  1
  O2-  O540  1  0.33547387  0.17351389  0.02097225  1
  O2-  O541  1  0.31096125  0.12605378  0.35765907  1
  O2-  O542  1  0.33324848  0.18252924  0.69158680  1
  O2-  O543  1  0.35618927  0.44906879  0.00905187  1
  O2-  O544  1  0.33682600  0.40099392  0.33120952  1
  O2-  O545  1  0.33747932  0.41587558  0.69087450  1
  O2-  O546  1  0.34658476  0.67561196  0.01385972  1
  O2-  O547  1  0.34034641  0.67969011  0.35084923  1
  O2-  O548  1  0.33016052  0.64827786  0.69789359  1
  O2-  O549  1  0.32721198  0.91901730  0.01730987  1
  O2-  O550  1  0.32546598  0.89688209  0.35029430  1
  O2-  O551  1  0.32465626  0.92423529  0.69181528  1
  O2-  O552  1  0.58007348  0.16479623  0.02319581  1
  O2-  O553  1  0.57680899  0.15651624  0.35376024  1
  O2-  O554  1  0.59188084  0.17027807  0.68659267  1
  O2-  O555  1  0.58955219  0.41884668  0.02177792  1
  O2-  O556  1  0.57206287  0.38259414  0.36337172  1
  O2-  O557  1  0.59701087  0.42915838  0.68966506  1
  O2-  O558  1  0.57810481  0.65864917  0.04746134  1
  O2-  O559  1  0.58366393  0.67672374  0.36306767  1
  O2-  O560  1  0.56439811  0.66472252  0.69644689  1
  O2-  O561  1  0.58036387  0.91889937  0.01080423  1
  O2-  O562  1  0.60327492  0.93191279  0.37079207  1
  O2-  O563  1  0.58681824  0.89865158  0.65085423  1
  O2-  O564  1  0.82905410  0.15657457  0.01667724  1
  O2-  O565  1  0.83977148  0.17774194  0.35345130  1
  O2-  O566  1  0.82674901  0.14698671  0.69790900  1
  O2-  O567  1  0.83098707  0.41115113  0.02324714  1
  O2-  O568  1  0.82893990  0.42392642  0.35066292  1
  O2-  O569  1  0.84136578  0.40811525  0.69355639  1
  O2-  O570  1  0.82835129  0.66299479  0.02019468  1
  O2-  O571  1  0.88294364  0.69571757  0.37677830  1
  O2-  O572  1  0.85573653  0.67539198  0.66269023  1
  O2-  O573  1  0.81317559  0.89852966  0.01720018  1
  O2-  O574  1  0.83890737  0.92788447  0.36190924  1
  O2-  O575  1  0.84311649  0.91960022  0.68214627  1
