# generated using pymatgen
data_H2O
_symmetry_space_group_name_H-M   'P 1'
_cell_length_a   17.99600592
_cell_length_b   17.99232881
_cell_length_c   22.00379586
_cell_angle_alpha   90.00781772
_cell_angle_beta   90.00198376
_cell_angle_gamma   120.01714544
_symmetry_Int_Tables_number   1
_chemical_formula_structural   H2O
_chemical_formula_sum   'H384 O192'
_cell_volume   6169.02712374
_cell_formula_units_Z   192
loop_
 _symmetry_equiv_pos_site_id
 _symmetry_equiv_pos_as_xyz
  1  'x, y, z'
loop_
 _atom_type_symbol
 _atom_type_oxidation_number
  H+  1.0
  O2-  -2.0
loop_
 _atom_site_type_symbol
 _atom_site_label
 _atom_site_symmetry_multiplicity
 _atom_site_fract_x
 _atom_site_fract_y
 _atom_site_fract_z
 _atom_site_occupancy
  H+  H0  1  0.32488704  0.42395362  0.76192662  1
  H+  H1  1  0.24824739  0.87657217  0.32663456  1
  H+  H2  1  0.27808919  0.15040229  0.67078139  1
  H+  H3  1  0.72763612  0.60244175  0.47180686  1
  H+  H4  1  0.63602683  0.77055157  0.66931166  1
  H+  H5  1  0.44253339  0.04935618  0.34169974  1
  H+  H6  1  0.82570808  0.92246825  0.40473656  1
  H+  H7  1  0.28606462  0.64371415  0.34198054  1
  H+  H8  1  0.86901359  0.97175265  0.16696191  1
  H+  H9  1  0.13281807  0.77198458  0.84078367  1
  H+  H10  1  0.67495786  0.54581736  0.73079972  1
  H+  H11  1  0.64908732  0.01075401  0.16194595  1
  H+  H12  1  0.02013410  0.63084464  0.16672875  1
  H+  H13  1  0.35433415  0.14340083  0.49262338  1
  H+  H14  1  0.22050742  0.86403312  0.49948657  1
  H+  H15  1  0.37177564  0.38766627  0.15946685  1
  H+  H16  1  0.76598447  0.11343973  0.50079778  1
  H+  H17  1  0.02780825  0.14867589  0.51528882  1
  H+  H18  1  0.63803762  0.61548127  0.17584029  1
  H+  H19  1  0.86214643  0.62409261  0.01658170  1
  H+  H20  1  0.64365533  0.02535521  0.31938144  1
  H+  H21  1  0.52652653  0.63193162  0.00871497  1
  H+  H22  1  0.86895055  0.98281485  0.50891210  1
  H+  H23  1  0.86577945  0.63169857  0.49749200  1
  H+  H24  1  0.72458113  0.12662373  0.96750397  1
  H+  H25  1  0.63781599  0.12396922  0.16339129  1
  H+  H26  1  0.33424200  0.67152444  0.73796197  1
  H+  H27  1  0.63280686  0.01894537  0.66454203  1
  H+  H28  1  0.88207104  0.51473983  0.18290700  1
  H+  H29  1  0.61972715  0.39501943  0.00731676  1
  H+  H30  1  0.14081280  0.27961891  0.83892314  1
  H+  H31  1  0.60946446  0.14471050  1.00464519  1
  H+  H32  1  0.26363834  0.62350589  0.16373748  1
  H+  H33  1  0.27248985  0.65057056  0.82857008  1
  H+  H34  1  0.45019587  0.19071984  0.78947517  1
  H+  H35  1  0.41570474  0.05586555  0.94244233  1
  H+  H36  1  0.11627877  0.38953380  0.82528558  1
  H+  H37  1  0.85105204  0.95032834  0.02867342  1
  H+  H38  1  0.64805771  0.37649734  0.65925203  1
  H+  H39  1  0.34190559  0.23753053  0.82566398  1
  H+  H40  1  0.11297682  0.89087934  0.49512779  1
  H+  H41  1  0.27017912  0.88068560  0.00754178  1
  H+  H42  1  0.39284878  0.52051163  0.99344976  1
  H+  H43  1  0.47225818  0.10792122  0.99988410  1
  H+  H44  1  0.87327597  0.39780218  0.82630281  1
  H+  H45  1  0.88385738  0.12388174  0.62327662  1
  H+  H46  1  0.11102748  0.38399383  0.66325298  1
  H+  H47  1  0.87182079  0.24094022  -0.03816023  1
  H+  H48  1  0.03733054  0.15325282  0.00231696  1
  H+  H49  1  0.38322959  0.64197215  1.01334501  1
  H+  H50  1  -0.02174598  0.86501954  0.50437111  1
  H+  H51  1  0.61354599  0.87238083  0.49630616  1
  H+  H52  1  0.65410003  0.78067141  0.51673391  1
  H+  H53  1  0.77348607  0.39121763  -0.00433184  1
  H+  H54  1  0.63616005  0.77737330  0.84261783  1
  H+  H55  1  0.41475105  0.90148146  0.85384010  1
  H+  H56  1  0.22271729  0.11697941  0.50524410  1
  H+  H57  1  0.48366373  0.60600095  0.51337171  1
  H+  H58  1  0.16953735  0.33978219  0.89881474  1
  H+  H59  1  0.86037120  0.45995126  0.49584199  1
  H+  H60  1  0.60525828  0.71785771  0.33086299  1
  H+  H61  1  0.36215282  0.13976597  1.00839429  1
  H+  H62  1  0.36653637  0.38943860  0.00901576  1
  H+  H63  1  0.60973513  0.72574292  0.00913530  1
  H+  H64  1  0.97989869  0.36835626  0.98854099  1
  H+  H65  1  0.62926561  0.90578637  0.00433597  1
  H+  H66  1  0.47066429  0.35581969  0.16772994  1
  H+  H67  1  0.09916291  0.68073915  0.42286796  1
  H+  H68  1  0.37591982  0.26631758  0.16224227  1
  H+  H69  1  0.51129673  0.37496102  0.87464433  1
  H+  H70  1  0.36033689  0.74216036  0.82710862  1
  H+  H71  1  0.35670863  0.14903423  0.15045730  1
  H+  H72  1  1.02326855  0.88900717  0.67138117  1
  H+  H73  1  0.11492881  0.22588515  0.66036216  1
  H+  H74  1  0.16131832  0.65149472  0.34778411  1
  H+  H75  1  0.11167851  0.72205114  0.00832546  1
  H+  H76  1  0.74442842  0.62763893  0.84983655  1
  H+  H77  1  0.11396148  0.14353562  0.51071615  1
  H+  H78  1  0.86589066  0.72373486  0.16581096  1
  H+  H79  1  0.33968720  0.88008737  0.16478091  1
  H+  H80  1  0.96270360  0.34460090  0.50762905  1
  H+  H81  1  0.61105091  0.23949522  0.82513605  1
  H+  H82  1  0.35645459  0.39119008  0.66327036  1
  H+  H83  1  0.52535418  0.64229334  0.16383530  1
  H+  H84  1  -0.02154372  0.12215382  0.82052324  1
  H+  H85  1  0.71836067  0.85071877  -0.00133657  1
  H+  H86  1  0.98506874  0.36991131  0.82978422  1
  H+  H87  1  0.39799771  0.07785525  0.22418261  1
  H+  H88  1  0.12806263  0.88751151  0.34359259  1
  H+  H89  1  0.76982307  0.63257324  0.01819297  1
  H+  H90  1  0.38380417  0.61053092  0.17563812  1
  H+  H91  1  0.77990921  0.89606930  0.50783286  1
  H+  H92  1  0.63417904  0.36228169  0.50354670  1
  H+  H93  1  0.66464854  0.82840686  0.27026076  1
  H+  H94  1  0.76374413  0.88592306  0.34674387  1
  H+  H95  1  0.09550357  0.13189166  0.82728240  1
  H+  H96  1  0.63217357  0.51749142  0.46932760  1
  H+  H97  1  0.66484622  0.83187136  0.93610436  1
  H+  H98  1  0.09018114  0.00414302  0.85091676  1
  H+  H99  1  0.63137310  0.95542159  0.06429555  1
  H+  H100  1  0.97137293  0.62083929  0.84171650  1
  H+  H101  1  0.35490271  0.89514750  0.49161479  1
  H+  H102  1  0.02053272  0.69526402  0.43375961  1
  H+  H103  1  0.62471553  0.34261024  0.17052448  1
  H+  H104  1  0.36620612  0.63721635  0.67996523  1
  H+  H105  1  0.36949223  1.01964635  0.16668119  1
  H+  H106  1  0.78557588  0.14436685  0.18295180  1
  H+  H107  1  0.11335910  0.96192993  0.00715695  1
  H+  H108  1  0.87966111  0.61767439  0.84380026  1
  H+  H109  1  0.63153814  1.00405665  0.50723717  1
  H+  H110  1  0.48887637  0.85660659  0.66954612  1
  H+  H111  1  0.02749406  0.63597531  0.67202100  1
  H+  H112  1  0.89568559  0.51798923  0.65904461  1
  H+  H113  1  0.24186602  0.12705589  0.16038466  1
  H+  H114  1  -0.01713325  0.37881533  0.16455383  1
  H+  H115  1  0.17813266  0.08779749  0.22191030  1
  H+  H116  1  0.77733799  0.62613160  0.67625041  1
  H+  H117  1  0.60954680  0.63864274  0.83983433  1
  H+  H118  1  0.88918885  0.86483207  0.50643135  1
  H+  H119  1  0.77234035  0.63577207  0.16797177  1
  H+  H120  1  0.91164690  0.33706101  0.39431564  1
  H+  H121  1  0.28370404  0.38734181  0.16397066  1
  H+  H122  1  0.88096312  0.59226291  0.33522319  1
  H+  H123  1  0.78308954  0.39526473  0.67294862  1
  H+  H124  1  0.65925286  0.38795961  0.83125809  1
  H+  H125  1  0.72534072  0.60266921  0.32808287  1
  H+  H126  1  0.10879903  0.39194911  0.00689592  1
  H+  H127  1  0.15327796  0.36816957  0.33358230  1
  H+  H128  1  0.64461753  0.64939379  0.46675601  1
  H+  H129  1  0.38271710  0.12111365  0.64647440  1
  H+  H130  1  0.37847598  0.02938739  0.65022303  1
  H+  H131  1  0.12356552  0.14867992  0.00850706  1
  H+  H132  1  0.89233390  0.28285021  0.83014350  1
  H+  H133  1  0.57034835  0.91454804  0.14698227  1
  H+  H134  1  0.90111555  0.13840907  0.96237181  1
  H+  H135  1  0.47368781  0.36073225  0.31835131  1
  H+  H136  1  0.14850239  0.51991488  0.32581586  1
  H+  H137  1  0.12915732  0.85795468  0.84317071  1
  H+  H138  1  0.96974300  0.60236708  0.49906647  1
  H+  H139  1  0.88326287  0.84959206  1.00027273  1
  H+  H140  1  0.12205509  0.98042524  0.15745362  1
  H+  H141  1  0.62796792  0.15273843  0.67189238  1
  H+  H142  1  0.73408318  0.10949962  0.32025152  1
  H+  H143  1  0.88121196  0.52303333  -0.00768917  1
  H+  H144  1  0.35337956  0.47841423  0.66504889  1
  H+  H145  1  0.13745938  0.27335895  0.54465195  1
  H+  H146  1  0.35858427  0.97119116  0.01327583  1
  H+  H147  1  0.83671432  0.17960177  -0.09588347  1
  H+  H148  1  0.63087273  0.27462828  -0.00431437  1
  H+  H149  1  0.47796858  0.61361040  0.66711547  1
  H+  H150  1  0.61005189  0.46060286  0.33337146  1
  H+  H151  1  0.15821762  0.07349547  1.05273137  1
  H+  H152  1  0.88803294  0.77609241  0.65390093  1
  H+  H153  1  0.64326021  0.03671087  0.98445153  1
  H+  H154  1  0.38054999  0.85483990  0.99198329  1
  H+  H155  1  0.12255963  0.51867802  -0.01541644  1
  H+  H156  1  0.27048744  0.13749053  0.33949209  1
  H+  H157  1  0.33355245  0.31985703  0.83148259  1
  H+  H158  1  0.27097318  0.97400544  0.80420286  1
  H+  H159  1  0.60952752  0.88902880  0.82867724  1
  H+  H160  1  0.92242725  0.07562806  0.26969087  1
  H+  H161  1  0.37489002  1.03223608  0.49865804  1
  H+  H162  1  0.12505573  0.13613876  0.15895644  1
  H+  H163  1  0.87400493  0.77279903  0.84933720  1
  H+  H164  1  0.16941143  0.74531952  0.34851582  1
  H+  H165  1  0.23838593  0.61260970  0.46896904  1
  H+  H166  1  0.38919324  0.77081108  0.99213730  1
  H+  H167  1  0.64127656  0.77864410  0.17491464  1
  H+  H168  1  0.47390615  0.60700899  0.32376530  1
  H+  H169  1  0.89989036  0.05014161  0.97040128  1
  H+  H170  1  0.39123520  0.28291305  -0.00020097  1
  H+  H171  1  0.64841078  0.62662564  0.00586708  1
  H+  H172  1  0.02027939  0.11789316  0.34949841  1
  H+  H173  1  0.69655758  0.33137482  0.31968578  1
  H+  H174  1  0.38766551  0.75874048  0.66873665  1
  H+  H175  1  0.63392112  0.49878267  0.81171322  1
  H+  H176  1  0.63730062  0.51601682  0.66850105  1
  H+  H177  1  0.14122648  0.53102169  0.83479301  1
  H+  H178  1  0.22899123  0.36596138  0.64093812  1
  H+  H179  1  0.61208528  0.63113633  0.68915199  1
  H+  H180  1  0.23330361  0.37599196  0.99311649  1
  H+  H181  1  0.27625305  0.39919801  0.52596505  1
  H+  H182  1  0.12669416  0.76850572  0.17939873  1
  H+  H183  1  0.44232192  0.85785272  0.17563942  1
  H+  H184  1  0.85574913  0.88500931  0.67338203  1
  H+  H185  1  0.76753244  0.13670760  0.81937125  1
  H+  H186  1  0.11086535  0.88620375  0.67197781  1
  H+  H187  1  0.88244393  0.01570006  0.32914941  1
  H+  H188  1  0.37890164  0.27816191  0.50368947  1
  H+  H189  1  0.89312750  0.60535661  0.65057638  1
  H+  H190  1  0.13941024  0.02370398  0.66246237  1
  H+  H191  1  0.89391870  0.85871720  0.17880558  1
  H+  H192  1  0.86172872  0.22618677  0.66509662  1
  H+  H193  1  0.62740614  0.85409700  0.32747839  1
  H+  H194  1  0.39074933  0.52438385  0.17319622  1
  H+  H195  1  0.08853639  0.41664081  0.76335510  1
  H+  H196  1  0.63026476  0.02795338  0.82856884  1
  H+  H197  1  0.09202355  0.38900297  0.13939393  1
  H+  H198  1  1.02227190  0.38317414  0.66866158  1
  H+  H199  1  0.38672236  0.52920097  0.51565379  1
  H+  H200  1  0.09771672  0.59198971  0.51551980  1
  H+  H201  1  0.13625893  0.85193672  -0.00680203  1
  H+  H202  1  0.48977256  0.38974635  0.85224588  1
  H+  H203  1  0.33234461  -0.03921267  0.72740843  1
  H+  H204  1  0.12466886  0.51442356  0.16549120  1
  H+  H205  1  0.16739242  0.08203251  0.56673099  1
  H+  H206  1  0.87772399  0.12104401  0.52203954  1
  H+  H207  1  0.47340821  0.88944387  0.52461499  1
  H+  H208  1  0.51950707  0.88949547  0.82933218  1
  H+  H209  1  0.23947158  0.09047688  0.83570514  1
  H+  H210  1  0.38436927  0.28884929  0.65479558  1
  H+  H211  1  0.08569407  0.46003943  0.50496835  1
  H+  H212  1  0.60912442  0.87705941  0.67837236  1
  H+  H213  1  0.86702235  0.72293647  0.49591093  1
  H+  H214  1  0.13575258  0.11070561  0.65839313  1
  H+  H215  1  0.14283816  1.01954733  0.32058575  1
  H+  H216  1  0.13286061  0.60728760  0.17412078  1
  H+  H217  1  0.66989774  0.83507157  0.57888185  1
  H+  H218  1  0.36900497  0.47911916  0.33112727  1
  H+  H219  1  0.27009358  0.39846215  0.82262665  1
  H+  H220  1  -0.01433911  0.84366893  0.32944750  1
  H+  H221  1  0.11671119  0.63855169  0.67713610  1
  H+  H222  1  0.73467776  0.37072198  0.84108108  1
  H+  H223  1  0.77924187  0.88188851  0.17375034  1
  H+  H224  1  0.60366627  0.22165428  0.49117476  1
  H+  H225  1  0.08029147  0.15315701  0.40776658  1
  H+  H226  1  0.91210672  0.59478608  0.93987333  1
  H+  H227  1  0.25368421  0.07936683  0.86466249  1
  H+  H228  1  0.39043431  0.70889503  0.42716885  1
  H+  H229  1  0.13537485  0.77440271  0.65913614  1
  H+  H230  1  0.10697045  0.38417733  0.51163038  1
  H+  H231  1  0.12819167  0.77770885  0.49722998  1
  H+  H232  1  0.38198510  0.00875126  0.83758041  1
  H+  H233  1  0.89270467  0.25896015  0.35213088  1
  H+  H234  1  0.52408745  0.88974643  0.33549978  1
  H+  H235  1  0.14405372  0.34803793  0.18824021  1
  H+  H236  1  0.31746067  0.90827122  0.10072762  1
  H+  H237  1  0.11507034  0.88741154  0.16370605  1
  H+  H238  1  0.52047153  0.82620059  0.46860674  1
  H+  H239  1  0.86400754  -0.01991119  0.82424090  1
  H+  H240  1  0.38613035  0.62384486  0.84164059  1
  H+  H241  1  0.58165238  0.66227386  0.39008882  1
  H+  H242  1  0.11216893  0.98006862  0.49434246  1
  H+  H243  1  0.62900002  0.25333712  0.16596520  1
  H+  H244  1  0.21458853  0.85856222  0.17461873  1
  H+  H245  1  0.85568816  0.38739929  0.16734900  1
  H+  H246  1  0.65858823  0.87675531  0.17586965  1
  H+  H247  1  0.51652248  0.38304402  0.48663533  1
  H+  H248  1  0.25156380  0.59888447  0.49728454  1
  H+  H249  1  0.36015622  0.39687634  0.50615724  1
  H+  H250  1  0.65775615  0.29255125  0.65880910  1
  H+  H251  1  0.56068373  0.18604468  0.33809323  1
  H+  H252  1  0.01925832  0.63742257  0.01119150  1
  H+  H253  1  0.10605340  0.63445168  0.82850016  1
  H+  H254  1  0.01266953  0.87740943  0.82620907  1
  H+  H255  1  0.68600294  0.74337706  0.44027175  1
  H+  H256  1  0.22616301  0.61053246  0.66285377  1
  H+  H257  1  0.63574514  0.60187544  0.32563027  1
  H+  H258  1  0.72566130  0.86169525  0.66947235  1
  H+  H259  1  -0.02485671  0.85693392  -0.00540348  1
  H+  H260  1  0.38324447  0.53352998  0.83557443  1
  H+  H261  1  0.37296069  0.64281131  0.33685624  1
  H+  H262  1  0.65758190  0.08775016  0.88740068  1
  H+  H263  1  0.87078058  0.12671740  0.34138983  1
  H+  H264  1  0.14629746  0.28674810  0.99380538  1
  H+  H265  1  -0.01760851  0.10879858  0.17315664  1
  H+  H266  1  0.34793691  0.71516741  0.16986683  1
  H+  H267  1  0.86587518  0.71085314  0.33860833  1
  H+  H268  1  0.27610678  0.90167121  0.67247586  1
  H+  H269  1  0.39057506  0.78254117  0.32742187  1
  H+  H270  1  0.40338866  0.79627314  0.51222031  1
  H+  H271  1  0.62480295  0.48721942  1.01037927  1
  H+  H272  1  0.59879604  0.18790486  0.72860634  1
  H+  H273  1  0.61105946  0.47218882  0.16337350  1
  H+  H274  1  0.89453123  0.11146402  0.18371307  1
  H+  H275  1  0.14533254  0.26089816  0.17864724  1
  H+  H276  1  -0.01644375  0.86098900  0.17255593  1
  H+  H277  1  0.86421735  0.39400000  0.99140110  1
  H+  H278  1  0.26859666  0.38280435  0.33301161  1
  H+  H279  1  0.51149904  0.13890364  0.49384121  1
  H+  H280  1  0.36997795  0.38565096  0.32723840  1
  H+  H281  1  0.87621771  0.23164049  0.18591238  1
  H+  H282  1  0.92700392  0.81491073  0.27056820  1
  H+  H283  1  0.76476433  0.38185848  0.17176570  1
  H+  H284  1  0.41866221  0.67824774  0.48710182  1
  H+  H285  1  0.85882947  0.13582078  0.81894866  1
  H+  H286  1  0.76978606  0.37419760  0.49550260  1
  H+  H287  1  0.88942402  0.36233582  0.65990328  1
  H+  H288  1  0.07678352  0.91359336  0.76886650  1
  H+  H289  1  0.72508189  0.86702120  0.84187867  1
  H+  H290  1  0.58433384  0.67066313  0.10430946  1
  H+  H291  1  0.12551240  0.60821656  -0.01176946  1
  H+  H292  1  0.17756629  0.83697305  0.27230689  1
  H+  H293  1  0.12202335  0.56417256  0.57744560  1
  H+  H294  1  0.53725636  0.33265746  0.70044065  1
  H+  H295  1  0.09853643  0.41587883  0.40553876  1
  H+  H296  1  0.72352925  0.10514899  0.65765752  1
  H+  H297  1  0.40012777  0.83199902  0.24121098  1
  H+  H298  1  0.13642493  0.10366054  0.32588374  1
  H+  H299  1  0.39193737  0.87589692  0.32812512  1
  H+  H300  1  0.91603824  0.83925004  0.90325668  1
  H+  H301  1  0.41872319  0.83920993  0.90215188  1
  H+  H302  1  0.86187163  0.88975757  0.83115143  1
  H+  H303  1  0.60765023  0.43256193  0.74985242  1
  H+  H304  1  0.47954524  0.37209950  1.00358264  1
  H+  H305  1  0.57518465  0.90734895  0.73729908  1
  H+  H306  1  0.88864640  0.60671734  0.18440279  1
  H+  H307  1  0.52258523  0.64366911  0.83213331  1
  H+  H308  1  0.66700339  0.58153795  0.23404052  1
  H+  H309  1  0.42233921  0.58310462  0.93483649  1
  H+  H310  1  0.41255752  0.33121123  0.25838708  1
  H+  H311  1  0.47408292  0.37687941  0.65763479  1
  H+  H312  1  0.58615518  0.16891303  0.07125789  1
  H+  H313  1  0.60511761  0.53239187  0.88393020  1
  H+  H314  1  0.81986926  0.16258139  0.05670831  1
  H+  H315  1  0.41563302  0.34100390  0.56176234  1
  H+  H316  1  0.85960298  0.66418938  0.71825768  1
  H+  H317  1  0.58090306  0.66591364  0.74353497  1
  H+  H318  1  0.84258504  0.36326748  0.32756629  1
  H+  H319  1  0.66863517  0.09264632  0.22758310  1
  H+  H320  1  0.59957476  0.36511095  0.33125130  1
  H+  H321  1  0.85090338  0.21038615  0.49985276  1
  H+  H322  1  0.82748277  0.91214918  0.73444423  1
  H+  H323  1  0.66161473  0.57073047  0.57511521  1
  H+  H324  1  0.92950981  0.09813540  0.88266599  1
  H+  H325  1  0.57190059  0.39926084  0.42564788  1
  H+  H326  1  0.65960098  0.61129666  0.57877767  1
  H+  H327  1  0.83103345  0.65562104  0.39955486  1
  H+  H328  1  0.07882274  0.66418092  0.10644402  1
  H+  H329  1  0.42371655  0.59428427  0.60512001  1
  H+  H330  1  0.09402469  0.17330304  0.10306390  1
  H+  H331  1  0.58557335  0.41894547  0.10196496  1
  H+  H332  1  0.67932873  0.60367969  0.94360522  1
  H+  H333  1  0.86784565  0.48469173  0.82941207  1
  H+  H334  1  0.84461756  0.45232995  0.32819124  1
  H+  H335  1  0.83648452  0.16272498  0.72081104  1
  H+  H336  1  0.48135404  0.06007262  0.85866099  1
  H+  H337  1  0.34830192  0.66828442  0.07145163  1
  H+  H338  1  0.82287080  0.89117220  0.08502616  1
  H+  H339  1  0.83345301  0.14490541  0.40280236  1
  H+  H340  1  0.84243890  0.42208869  0.73330804  1
  H+  H341  1  0.17859204  0.32864006  0.27545803  1
  H+  H342  1  0.92913089  0.35129514  0.92441891  1
  H+  H343  1  0.35562728  0.18160898  0.72039619  1
  H+  H344  1  0.33480863  0.92462758  0.42745994  1
  H+  H345  1  0.92136440  0.57286243  0.56314238  1
  H+  H346  1  0.08899567  0.17008851  0.76185232  1
  H+  H347  1  0.36167611  0.09953936  0.78822722  1
  H+  H348  1  0.79024663  0.67513984  0.78997035  1
  H+  H349  1  0.33608844  0.42190301  0.06674158  1
  H+  H350  1  0.12754799  0.06801341  0.90653106  1
  H+  H351  1  0.91273028  0.32745288  0.59913514  1
  H+  H352  1  0.93577690  0.36046615  0.23022321  1
  H+  H353  1  0.66887614  0.34030680  0.56424628  1
  H+  H354  1  0.41364299  0.57993705  0.26436865  1
  H+  H355  1  0.02650392  0.14147493  0.65452820  1
  H+  H356  1  0.32363417  0.17355614  0.43368318  1
  H+  H357  1  0.07734890  0.66488114  0.76918260  1
  H+  H358  1  0.58423815  0.91327652  0.39419780  1
  H+  H359  1  0.17123934  0.57478245  0.26385925  1
  H+  H360  1  0.91972414  0.57060402  0.27868127  1
  H+  H361  1  0.65988213  0.33422857  0.93518372  1
  H+  H362  1  0.16112517  0.58539256  0.89665374  1
  H+  H363  1  0.41664350  0.83067726  0.60929596  1
  H+  H364  1  0.23732537  0.11851427  1.00894305  1
  H+  H365  1  0.83044485  0.65400466  0.08508377  1
  H+  H366  1  0.13733022  0.52080770  0.66530726  1
  H+  H367  1  0.54790310  0.14552405  0.40415106  1
  H+  H368  1  0.16137273  0.83163676  0.59852422  1
  H+  H369  1  0.53430464  0.13301927  0.15340243  1
  H+  H370  1  0.33339932  0.17479836  0.06972048  1
  H+  H371  1  0.91814690  0.83837680  0.59711015  1
  H+  H372  1  0.03483575  0.37993452  0.35096734  1
  H+  H373  1  0.06993180  0.42232537  0.06399270  1
  H+  H374  1  0.09133818  0.91811094  0.39889626  1
  H+  H375  1  0.83790749  0.16591665  0.08824582  1
  H+  H376  1  0.66273930  0.06263432  0.56714443  1
  H+  H377  1  0.40384567  0.08737060  0.56112725  1
  H+  H378  1  0.16641759  0.82568560  0.93227193  1
  H+  H379  1  0.87400202  0.34858121  0.50844662  1
  H+  H380  1  0.35609648  0.22783260  0.34004504  1
  H+  H381  1  0.08456225  0.90655678  0.06754826  1
  H+  H382  1  0.63680553  0.30297835  0.26274110  1
  H+  H383  1  0.61134971  0.15157141  0.82048395  1
  O2-  O384  1  0.09350856  0.16861357  0.14818383  1
  O2-  O385  1  0.08933392  0.18229079  0.50414876  1
  O2-  O386  1  0.08234768  0.17365473  0.80619035  1
  O2-  O387  1  0.06745921  0.42559702  0.13312906  1
  O2-  O388  1  0.07558625  0.40459927  0.48625658  1
  O2-  O389  1  0.08665632  0.41999494  0.80846078  1
  O2-  O390  1  0.08104124  0.66526008  0.15187733  1
  O2-  O391  1  0.05866208  0.68167084  0.45664073  1
  O2-  O392  1  0.07327499  0.66307597  0.81452128  1
  O2-  O393  1  0.08813421  0.91881717  0.14402080  1
  O2-  O394  1  0.08132740  0.91933433  0.47900276  1
  O2-  O395  1  0.07449323  0.91093117  0.81423687  1
  O2-  O396  1  0.32613711  0.17827533  0.13564672  1
  O2-  O397  1  0.32282178  0.17427723  0.47987638  1
  O2-  O398  1  0.38854338  0.16748236  0.78595822  1
  O2-  O399  1  0.34240332  0.42144800  0.14723487  1
  O2-  O400  1  0.33062426  0.43147762  0.50358244  1
  O2-  O401  1  0.33009978  0.43017355  0.80659149  1
  O2-  O402  1  0.32685361  0.65643015  0.15388087  1
  O2-  O403  1  0.42120270  0.72899233  0.46690930  1
  O2-  O404  1  0.33312568  0.68158370  0.81263789  1
  O2-  O405  1  0.31290207  0.91158303  0.14655718  1
  O2-  O406  1  0.32303785  0.92039019  0.47263680  1
  O2-  O407  1  0.32976951  1.00670452  0.78974893  1
  O2-  O408  1  0.59350974  0.16378347  0.13829790  1
  O2-  O409  1  0.57028008  0.16165796  0.47685170  1
  O2-  O410  1  0.57842854  0.18002930  0.80856890  1
  O2-  O411  1  0.57965898  0.41272891  0.14717878  1
  O2-  O412  1  0.57650967  0.40877467  0.47071342  1
  O2-  O413  1  0.65256896  0.46783401  0.78463218  1
  O2-  O414  1  0.58648471  0.67337882  0.14992286  1
  O2-  O415  1  0.63479859  0.70176961  0.46227954  1
  O2-  O416  1  0.58385138  0.67179569  0.81856420  1
  O2-  O417  1  0.63247936  0.94764751  0.14525337  1
  O2-  O418  1  0.57130850  0.88447095  0.47500912  1
  O2-  O419  1  0.57916309  0.91723774  0.81021405  1
  O2-  O420  1  0.84869346  0.16803851  0.18589507  1
  O2-  O421  1  0.82931411  0.14901724  0.48778414  1
  O2-  O422  1  0.83092608  0.17121847  0.81076473  1
  O2-  O423  1  0.82571371  0.42002304  0.15958014  1
  O2-  O424  1  0.83165638  0.39839063  0.48459898  1
  O2-  O425  1  0.84003526  0.42548263  0.81205715  1
  O2-  O426  1  0.83286508  0.66206046  0.15201058  1
  O2-  O427  1  0.83809049  0.66312700  0.47991526  1
  O2-  O428  1  0.80453415  0.66141115  0.82951486  1
  O2-  O429  1  0.83861401  0.90896518  0.15573803  1
  O2-  O430  1  0.83902851  0.92506627  0.49024527  1
  O2-  O431  1  0.82984286  0.91764979  0.81451400  1
  O2-  O432  1  0.17644976  0.08826589  0.17661066  1
  O2-  O433  1  0.16194395  0.08342066  0.52151648  1
  O2-  O434  1  0.08839925  0.05231541  0.87217768  1
  O2-  O435  1  0.17769269  0.32085199  0.19782117  1
  O2-  O436  1  0.16626060  0.33576134  0.55971759  1
  O2-  O437  1  0.16715557  0.34005393  0.85326220  1
  O2-  O438  1  0.16059859  0.57336321  0.18632534  1
  O2-  O439  1  0.08629984  0.54240220  0.54005760  1
  O2-  O440  1  0.16747211  0.59083291  0.85006759  1
  O2-  O441  1  0.15615042  0.82954831  0.19417732  1
  O2-  O442  1  0.16151727  0.83437367  0.51781938  1
  O2-  O443  1  0.16201004  0.83081546  0.85818544  1
  O2-  O444  1  0.40319201  0.08081175  0.17998792  1
  O2-  O445  1  0.40381585  0.09174869  0.51425012  1
  O2-  O446  1  0.42629256  0.01344236  0.87307844  1
  O2-  O447  1  0.40985003  0.32836441  0.18173866  1
  O2-  O448  1  0.41328754  0.34030029  0.51629305  1
  O2-  O449  1  0.30621277  0.25931325  0.84312657  1
  O2-  O450  1  0.41910054  0.58449475  0.18975766  1
  O2-  O451  1  0.42642842  0.59378908  0.52529125  1
  O2-  O452  1  0.41567617  0.59216247  0.85426927  1
  O2-  O453  1  0.38715669  0.82370798  0.19533010  1
  O2-  O454  1  0.41392582  0.84820880  0.53622218  1
  O2-  O455  1  0.42345532  0.85119527  0.85595848  1
  O2-  O456  1  0.67298387  0.09453614  0.18191565  1
  O2-  O457  1  0.67307469  0.06057841  0.52282594  1
  O2-  O458  1  0.66215022  0.08938396  0.84158580  1
  O2-  O459  1  0.65396173  0.31303972  0.18724609  1
  O2-  O460  1  0.66559639  0.33369838  0.51913535  1
  O2-  O461  1  0.67332896  0.34768265  0.85264654  1
  O2-  O462  1  0.66866593  0.58458303  0.18830219  1
  O2-  O463  1  0.66663574  0.58057055  0.46078349  1
  O2-  O464  1  0.65128730  0.58910810  0.87234112  1
  O2-  O465  1  0.67698140  0.83700671  0.19340321  1
  O2-  O466  1  0.67509992  0.83939909  0.53317018  1
  O2-  O467  1  0.66488416  0.83815251  0.85776839  1
  O2-  O468  1  0.92275421  0.07492728  0.18876109  1
  O2-  O469  1  0.91482605  0.09403415  0.54125931  1
  O2-  O470  1  0.91842615  0.09083659  0.83820919  1
  O2-  O471  1  0.92373952  0.34429390  0.18761941  1
  O2-  O472  1  0.90271750  0.31422047  0.52304495  1
  O2-  O473  1  0.92425857  0.34282048  0.84544489  1
  O2-  O474  1  0.91997513  0.57717428  0.19682352  1
  O2-  O475  1  0.91216412  0.57138497  0.51816990  1
  O2-  O476  1  0.91138892  0.58966969  0.85875139  1
  O2-  O477  1  0.92384814  0.82612855  0.18869766  1
  O2-  O478  1  0.91781319  0.83246916  0.52039068  1
  O2-  O479  1  0.91080073  0.83517969  0.85714230  1
  O2-  O480  1  0.16904179  0.07940661  0.30478868  1
  O2-  O481  1  0.16961617  0.08342013  0.64565067  1
  O2-  O482  1  0.17014200  0.08288711  1.00925776  1
  O2-  O483  1  0.18744785  0.34107126  0.31982589  1
  O2-  O484  1  0.16523784  0.33111114  0.62696998  1
  O2-  O485  1  0.17271135  0.34610616  0.97730888  1
  O2-  O486  1  0.18069301  0.57899294  0.30908077  1
  O2-  O487  1  0.16486138  0.58159511  0.65069041  1
  O2-  O488  1  0.15014357  0.57719427  0.96651191  1
  O2-  O489  1  0.18508709  0.83973528  0.31739872  1
  O2-  O490  1  0.16081741  0.83429161  0.64370095  1
  O2-  O491  1  0.16770671  0.82308817  0.97835977  1
  O2-  O492  1  0.38795854  0.00556288  0.31900038  1
  O2-  O493  1  0.40733094  0.08733141  0.62948985  1
  O2-  O494  1  0.41154024  0.07344935  0.98513011  1
  O2-  O495  1  0.41266391  0.33640848  0.30404092  1
  O2-  O496  1  0.41379982  0.35045849  0.64025671  1
  O2-  O497  1  0.41930990  0.34490234  0.98946336  1
  O2-  O498  1  0.41202128  0.57767472  0.31037041  1
  O2-  O499  1  0.41842607  0.58900697  0.65038938  1
  O2-  O500  1  0.42830747  0.58186023  0.97974033  1
  O2-  O501  1  0.42044449  0.84191715  0.31043110  1
  O2-  O502  1  0.42339239  0.82245388  0.65415069  1
  O2-  O503  1  0.40927363  0.82720111  0.97142767  1
  O2-  O504  1  0.67603097  0.08391999  0.30250401  1
  O2-  O505  1  0.66196459  0.07622052  0.64523608  1
  O2-  O506  1  0.66150307  0.09376530  0.96333015  1
  O2-  O507  1  0.63440329  0.30354897  0.30846956  1
  O2-  O508  1  0.68587405  0.35421631  0.64349744  1
  O2-  O509  1  0.66216129  0.33578680  0.98027624  1
  O2-  O510  1  0.66593397  0.57240920  0.30992824  1
  O2-  O511  1  0.67335194  0.57062628  0.69022919  1
  O2-  O512  1  0.68298444  0.60063833  0.98998388  1
  O2-  O513  1  0.65715166  0.82154642  0.31538832  1
  O2-  O514  1  0.66295013  0.83083936  0.65436560  1
  O2-  O515  1  0.65998645  0.82777159  0.98153385  1
  O2-  O516  1  0.91930489  0.07705612  0.31486677  1
  O2-  O517  1  0.93056448  0.11501798  0.60660406  1
  O2-  O518  1  0.93867630  0.11053629  0.96228995  1
  O2-  O519  1  0.92322419  0.32437496  0.35340494  1
  O2-  O520  1  0.91808712  0.33034249  0.64481922  1
  O2-  O521  1  0.92023189  0.34030697  0.96897698  1
  O2-  O522  1  0.91267417  0.56240348  0.32345795  1
  O2-  O523  1  0.92712929  0.57740195  0.64039660  1
  O2-  O524  1  0.91043865  0.58878665  0.98498443  1
  O2-  O525  1  0.92577322  0.80671707  0.31504767  1
  O2-  O526  1  0.91689514  0.83755835  0.64288061  1
  O2-  O527  1  0.91749330  0.83189076  0.97568518  1
  O2-  O528  1  0.09478529  0.18111163  0.02181068  1
  O2-  O529  1  0.08016191  0.14151306  0.36433809  1
  O2-  O530  1  0.08161544  0.16667028  0.67667321  1
  O2-  O531  1  0.07207629  0.41694977  0.01683548  1
  O2-  O532  1  0.09765447  0.41406277  0.36026670  1
  O2-  O533  1  0.08343970  0.41324978  0.68335704  1
  O2-  O534  1  0.07903370  0.66318934  0.02667495  1
  O2-  O535  1  0.16316442  0.69697171  0.37448145  1
  O2-  O536  1  0.08621751  0.66942920  0.69017988  1
  O2-  O537  1  0.08147799  0.90200160  0.02185329  1
  O2-  O538  1  0.09314696  0.91498691  0.35374048  1
  O2-  O539  1  0.08254528  0.91797698  0.68855706  1
  O2-  O540  1  0.33320151  0.17184166  0.02118283  1
  O2-  O541  1  0.32700120  0.17128803  0.36017777  1
  O2-  O542  1  0.34081710  0.18805568  0.67698407  1
  O2-  O543  1  0.33464970  0.42083096  0.02147526  1
  O2-  O544  1  0.33917644  0.41667156  0.34485265  1
  O2-  O545  1  0.31871990  0.41615975  0.67519609  1
  O2-  O546  1  0.35853150  0.67727305  0.02733282  1
  O2-  O547  1  0.34778476  0.67692086  0.35397254  1
  O2-  O548  1  0.33594735  0.66926309  0.69189664  1
  O2-  O549  1  0.32786770  0.90987779  0.02754030  1
  O2-  O550  1  0.35052996  0.92390598  0.35217061  1
  O2-  O551  1  0.33593565  0.93745947  0.68593553  1
  O2-  O552  1  0.57992161  0.17286806  0.02357626  1
  O2-  O553  1  0.52848148  0.13168767  0.36053538  1
  O2-  O554  1  0.61567544  0.19784156  0.68517683  1
  O2-  O555  1  0.59192005  0.42683769  0.02460578  1
  O2-  O556  1  0.57312870  0.40024460  0.34706572  1
  O2-  O557  1  0.56734546  0.39347068  0.69000478  1
  O2-  O558  1  0.58585741  0.66671750  0.02676635  1
  O2-  O559  1  0.57527168  0.65611075  0.34527775  1
  O2-  O560  1  0.58132143  0.66280936  0.69748799  1
  O2-  O561  1  0.61859977  0.95102729  0.02024509  1
  O2-  O562  1  0.58519257  0.91462680  0.34918928  1
  O2-  O563  1  0.57394141  0.90423855  0.69097162  1
  O2-  O564  1  0.84111956  0.17765503  -0.05145932  1
  O2-  O565  1  0.84003945  0.15629631  0.35852466  1
  O2-  O566  1  0.83288379  0.16342331  0.67604921  1
  O2-  O567  1  0.83626150  0.42764224  0.00244954  1
  O2-  O568  1  0.80552882  0.38860316  0.32726989  1
  O2-  O569  1  0.84436367  0.42070079  0.68783903  1
  O2-  O570  1  0.82969416  0.65230322  0.03735676  1
  O2-  O571  1  0.82719061  0.65027591  0.35458085  1
  O2-  O572  1  0.84226429  0.66186392  0.67601969  1
  O2-  O573  1  0.81899291  0.88961369  0.03852177  1
  O2-  O574  1  0.82418720  0.92168812  0.35994962  1
  O2-  O575  1  0.82120849  0.90963991  0.68943363  1
