# generated using pymatgen
data_H2O
_symmetry_space_group_name_H-M   'P 1'
_cell_length_a   17.98828458
_cell_length_b   17.98763034
_cell_length_c   22.00685195
_cell_angle_alpha   90.00570938
_cell_angle_beta   89.99284195
_cell_angle_gamma   120.01527375
_symmetry_Int_Tables_number   1
_chemical_formula_structural   H2O
_chemical_formula_sum   'H384 O192'
_cell_volume   6165.74260970
_cell_formula_units_Z   192
loop_
 _symmetry_equiv_pos_site_id
 _symmetry_equiv_pos_as_xyz
  1  'x, y, z'
loop_
 _atom_type_symbol
 _atom_type_oxidation_number
  H+  1.0
  O2-  -2.0
loop_
 _atom_site_type_symbol
 _atom_site_label
 _atom_site_symmetry_multiplicity
 _atom_site_fract_x
 _atom_site_fract_y
 _atom_site_fract_z
 _atom_site_occupancy
  H+  H0  1  0.85727554  0.96425578  0.48925006  1
  H+  H1  1  0.09795478  0.72640176  1.00907510  1
  H+  H2  1  0.60821130  0.97362470  0.17438565  1
  H+  H3  1  0.52296175  0.40051980  0.01260996  1
  H+  H4  1  0.51566779  0.66938365  0.13798823  1
  H+  H5  1  0.12727088  0.39136553  0.16800018  1
  H+  H6  1  0.37784108  0.35959231  0.52164961  1
  H+  H7  1  0.59154236  0.88988169  0.82625323  1
  H+  H8  1  0.88967889  0.85009567  0.17339060  1
  H+  H9  1  0.90529501  0.28588100  0.82605009  1
  H+  H10  1  0.60002491  0.03415973  0.79652575  1
  H+  H11  1  0.36042070  0.72075383  0.33242696  1
  H+  H12  1  0.88572620  0.85835183  0.50376475  1
  H+  H13  1  0.09484400  -0.04258297  0.35595261  1
  H+  H14  1  0.63493229  0.16785527  0.82517482  1
  H+  H15  1  0.03290889  0.90299160  0.02463592  1
  H+  H16  1  0.12707059  0.85047724  0.51477860  1
  H+  H17  1  0.01506446  0.63675991  0.34219041  1
  H+  H18  1  0.83802881  0.97123505  0.66350694  1
  H+  H19  1  0.36919008  0.99205703  0.82598481  1
  H+  H20  1  1.01014495  0.87043821  0.67474559  1
  H+  H21  1  0.38497847  0.10491390  0.51766044  1
  H+  H22  1  0.72744135  0.11929225  0.17866472  1
  H+  H23  1  0.62010429  0.23675460  0.33979512  1
  H+  H24  1  0.86371117  0.84862052  0.65816698  1
  H+  H25  1  0.14327927  0.15768510  0.15332856  1
  H+  H26  1  0.87881404  0.11576158  0.64732205  1
  H+  H27  1  0.83728659  0.61937962  0.16920693  1
  H+  H28  1  0.18470947  0.06487521  0.45314798  1
  H+  H29  1  0.92497076  0.05195834  0.19628367  1
  H+  H30  1  0.88734845  0.53133008  0.67769779  1
  H+  H31  1  0.87964939  0.61674355  0.32506372  1
  H+  H32  1  0.10109818  0.72927286  0.49835922  1
  H+  H33  1  0.27275809  0.12913343  0.50981329  1
  H+  H34  1  0.90751202  1.07711231  -0.03061510  1
  H+  H35  1  0.36662633  0.47199481  0.83181050  1
  H+  H36  1  0.15718598  1.03888246  0.83369950  1
  H+  H37  1  0.12344993  0.14747894  -0.00058371  1
  H+  H38  1  0.51803709  0.64457737  0.66864386  1
  H+  H39  1  0.11383924  0.71550083  0.34344305  1
  H+  H40  1  0.26650738  0.63564668  0.33972313  1
  H+  H41  1  0.39267916  0.37134617  0.84264489  1
  H+  H42  1  0.58857573  0.73150869  0.81602169  1
  H+  H43  1  0.11220915  0.96201333  0.49920445  1
  H+  H44  1  0.32350810  0.20107053  0.28696777  1
  H+  H45  1  0.66750440  0.60630967  0.89273149  1
  H+  H46  1  0.90404308  0.08999820  0.87934058  1
  H+  H47  1  0.29535497  0.37404812  0.14941596  1
  H+  H48  1  0.61411613  0.60973333  0.17218415  1
  H+  H49  1  0.86007742  0.50017764  0.17578703  1
  H+  H50  1  0.58618233  -0.05170214  0.98806796  1
  H+  H51  1  1.01339568  0.65049822  0.82838347  1
  H+  H52  1  0.34680190  0.66417759  0.82023686  1
  H+  H53  1  0.85972051  0.59123473  0.83691823  1
  H+  H54  1  0.38458480  0.50480878  0.51425424  1
  H+  H55  1  0.01659869  0.14025503  0.67352514  1
  H+  H56  1  0.10858328  0.22760417  0.67022289  1
  H+  H57  1  0.69777256  0.60214592  0.17537877  1
  H+  H58  1  0.17917087  0.27902347  0.34408181  1
  H+  H59  1  0.35164411  0.58996013  0.32823410  1
  H+  H60  1  0.25716218  0.09397189  0.66914558  1
  H+  H61  1  0.47917173  0.85277989  0.17124223  1
  H+  H62  1  0.97453621  0.54243150  0.69623415  1
  H+  H63  1  0.87436071  -0.01600569  0.34008396  1
  H+  H64  1  0.88745062  0.84879128  1.01892283  1
  H+  H65  1  0.56832986  0.45083455  0.17302919  1
  H+  H66  1  0.25283754  0.89304594  0.01596620  1
  H+  H67  1  0.90790124  0.82659684  0.85787880  1
  H+  H68  1  0.41532181  0.81335530  1.07814909  1
  H+  H69  1  0.64089384  0.52358754  1.00813969  1
  H+  H70  1  0.89416268  0.52884090  0.84195107  1
  H+  H71  1  0.63943867  0.11994293  0.17402788  1
  H+  H72  1  0.40135563  0.10962985  0.16214841  1
  H+  H73  1  0.16967492  0.84023791  0.23933104  1
  H+  H74  1  0.98093359  0.36573642  0.34021360  1
  H+  H75  1  0.29461020  0.15333893  0.14311978  1
  H+  H76  1  0.09067541  0.16941952  0.75690039  1
  H+  H77  1  0.59269626  0.39876264  0.68421474  1
  H+  H78  1  0.89677485  0.12503191  0.34303695  1
  H+  H79  1  0.37884368  0.01250809  0.50871505  1
  H+  H80  1  0.16959199  1.05051670  0.16707260  1
  H+  H81  1  0.90522323  0.40147271  0.65645381  1
  H+  H82  1  0.15451447  0.80554160  0.17272367  1
  H+  H83  1  0.52439011  0.38942516  0.53406228  1
  H+  H84  1  0.21439697  0.64032080  0.84060721  1
  H+  H85  1  0.47362191  0.85980392  0.32018985  1
  H+  H86  1  0.06654688  0.67114566  0.17435007  1
  H+  H87  1  0.62950039  0.36773568  0.99206799  1
  H+  H88  1  0.75105795  0.62055261  0.01508964  1
  H+  H89  1  0.60527536  0.86487020  -0.01244400  1
  H+  H90  1  0.37870309  0.71707090  0.48737939  1
  H+  H91  1  0.49123442  0.12817461  0.83379286  1
  H+  H92  1  1.05373673  0.15611452  0.16242726  1
  H+  H93  1  0.12340649  0.48351574  0.64411819  1
  H+  H94  1  0.27565606  0.87345240  0.67999204  1
  H+  H95  1  0.31608504  0.43422994  0.33607897  1
  H+  H96  1  0.79871555  0.08227572  0.12757580  1
  H+  H97  1  0.17068779  0.30529547  1.00701795  1
  H+  H98  1  0.22963532  0.35527979  0.83324127  1
  H+  H99  1  0.86175961  0.75594017  0.32866907  1
  H+  H100  1  0.63024229  0.94738346  0.66133446  1
  H+  H101  1  0.87330201  0.61583347  0.60345362  1
  H+  H102  1  0.86980464  0.74196351  0.80853958  1
  H+  H103  1  0.30826825  0.75026335  0.54152531  1
  H+  H104  1  0.04630464  0.91559067  0.83493540  1
  H+  H105  1  0.85324426  0.23881224  0.65393231  1
  H+  H106  1  0.51593509  0.38682813  0.84044675  1
  H+  H107  1  0.87316747  0.86204718  0.32522498  1
  H+  H108  1  0.89197488  0.36619374  0.33450952  1
  H+  H109  1  0.72095878  0.37498634  0.99502293  1
  H+  H110  1  0.35563577  0.97021918  0.33806183  1
  H+  H111  1  0.85890644  0.47351399  0.01316392  1
  H+  H112  1  0.27629567  0.05459051  0.72573731  1
  H+  H113  1  0.60818813  0.11140110  0.67612265  1
  H+  H114  1  0.96990111  0.52547306  0.95498478  1
  H+  H115  1  0.65362053  0.82103467  0.25450808  1
  H+  H116  1  0.39136250  0.73929933  0.02843188  1
  H+  H117  1  1.03449364  0.39422212  0.50534152  1
  H+  H118  1  0.02700209  0.63015861  0.01569115  1
  H+  H119  1  0.87569040  0.61926446  0.49877720  1
  H+  H120  1  0.14520081  0.62516203  0.00143169  1
  H+  H121  1  0.97866666  0.37930140  0.64371826  1
  H+  H122  1  0.59631293  0.48919881  0.68963923  1
  H+  H123  1  0.37836433  0.88294785  0.83989545  1
  H+  H124  1  0.98107133  0.09451620  0.50953778  1
  H+  H125  1  0.41989471  0.32971681  0.25139932  1
  H+  H126  1  0.71529158  0.35708226  0.17651795  1
  H+  H127  1  0.85554250  0.37747192  0.16825511  1
  H+  H128  1  0.12046078  -0.00889436  1.01189452  1
  H+  H129  1  -0.00258009  0.63789121  0.49711731  1
  H+  H130  1  0.40333786  1.02153600  0.16176099  1
  H+  H131  1  0.10414353  0.47548755  1.01049046  1
  H+  H132  1  0.16082580  0.54348965  0.51291780  1
  H+  H133  1  0.60771242  -0.02858880  0.33267226  1
  H+  H134  1  0.35998099  0.48324123  0.67368553  1
  H+  H135  1  0.84708437  0.18386990  0.71085889  1
  H+  H136  1  0.37107643  0.88867593  0.34204554  1
  H+  H137  1  0.88663285  0.14947925  0.80272342  1
  H+  H138  1  0.09057922  0.41903114  0.58995953  1
  H+  H139  1  0.93710342  0.58952251  0.15772885  1
  H+  H140  1  0.50966078  0.11919679  0.48699684  1
  H+  H141  1  0.38275497  0.27289161  0.53410878  1
  H+  H142  1  0.41743317  0.35133456  0.93989556  1
  H+  H143  1  0.40844002  0.86615470  0.66750254  1
  H+  H144  1  0.71137992  0.84501860  0.19389719  1
  H+  H145  1  0.11211769  0.47448633  0.35106701  1
  H+  H146  1  0.48532086  -0.01482259  0.99273660  1
  H+  H147  1  0.62813982  0.62463630  0.66626732  1
  H+  H148  1  0.35166415  0.18281475  0.46649887  1
  H+  H149  1  0.39566848  0.24161349  0.14175831  1
  H+  H150  1  0.34304454  0.17589831  0.76894422  1
  H+  H151  1  0.60115947  0.20646147  0.48617763  1
  H+  H152  1  0.60466711  0.88144449  0.33566692  1
  H+  H153  1  0.40260695  0.60010009  0.50703855  1
  H+  H154  1  0.12705767  0.10866974  0.50013775  1
  H+  H155  1  0.53016248  0.13352847  0.15248835  1
  H+  H156  1  0.50831330  0.82598446  0.51270226  1
  H+  H157  1  0.56886303  0.67215697  0.75717926  1
  H+  H158  1  0.85317664  0.01497296  0.82943128  1
  H+  H159  1  0.52197377  0.11602443  0.67873103  1
  H+  H160  1  0.77484714  0.38797884  0.34029815  1
  H+  H161  1  0.85915752  0.72858558  0.49000080  1
  H+  H162  1  0.61275780  0.47663521  0.32129550  1
  H+  H163  1  0.37789111  0.89032394  0.14904523  1
  H+  H164  1  0.37352600  0.73049630  0.67218313  1
  H+  H165  1  0.63637621  0.36153747  0.32178450  1
  H+  H166  1  0.64294030  0.29037356  0.83413465  1
  H+  H167  1  0.38139123  0.09143033  0.66445831  1
  H+  H168  1  0.36877680  0.60988961  1.01333028  1
  H+  H169  1  0.48123732  0.61223778  0.83608355  1
  H+  H170  1  0.10283423  0.64957394  0.83549884  1
  H+  H171  1  0.91483433  0.18977185  0.00672649  1
  H+  H172  1  0.89237627  0.37219880  0.49909461  1
  H+  H173  1  0.22157310  0.76741585  0.28172882  1
  H+  H174  1  0.97293286  0.85490576  0.51229849  1
  H+  H175  1  0.86179617  0.47941609  0.33927926  1
  H+  H176  1  0.81749983  0.91673240  0.12883327  1
  H+  H177  1  0.11658011  0.18537341  0.53295889  1
  H+  H178  1  0.39055434  0.59815174  0.86050626  1
  H+  H179  1  0.21566926  0.84883610  0.50851657  1
  H+  H180  1  0.16531078  0.60485705  0.90359539  1
  H+  H181  1  0.89477956  0.36964767  0.82895992  1
  H+  H182  1  0.72530647  0.86710313  0.33202746  1
  H+  H183  1  0.65079740  0.63262531  0.51455495  1
  H+  H184  1  0.64563326  0.77114229  0.98144380  1
  H+  H185  1  0.69618025  0.86544722  0.81921826  1
  H+  H186  1  0.14346889  0.36337657  0.64843942  1
  H+  H187  1  0.61446365  0.38804738  0.83448477  1
  H+  H188  1  0.62273615  0.35109283  0.18139430  1
  H+  H189  1  0.66666392  0.32239921  0.27070326  1
  H+  H190  1  0.64012308  0.64225394  0.83614267  1
  H+  H191  1  0.15477945  0.61647640  0.17445996  1
  H+  H192  1  0.85662299  0.97915648  0.03318860  1
  H+  H193  1  0.79225937  0.14654860  0.50864546  1
  H+  H194  1  0.64359304  0.77005589  0.34309718  1
  H+  H195  1  0.37121467  0.24437488  0.00166798  1
  H+  H196  1  0.66736091  0.59355340  0.57413296  1
  H+  H197  1  0.49309456  0.14177789  -0.01265495  1
  H+  H198  1  0.61151326  0.88690397  0.17921073  1
  H+  H199  1  0.89334733  0.27656318  0.18680213  1
  H+  H200  1  0.41064837  0.05179862  0.98624707  1
  H+  H201  1  0.74211556  0.59691805  0.81235812  1
  H+  H202  1  0.92351247  0.57296302  0.93044903  1
  H+  H203  1  0.32631624  0.90958141  0.43681669  1
  H+  H204  1  0.62352429  0.23700969  0.00037077  1
  H+  H205  1  0.23504121  0.87139024  1.04589214  1
  H+  H206  1  0.13268156  0.14433856  0.81743542  1
  H+  H207  1  0.80751761  0.85747563  0.80206461  1
  H+  H208  1  0.13735823  0.35102366  0.82530136  1
  H+  H209  1  0.12627437  0.60401775  0.33145259  1
  H+  H210  1  0.46845802  0.37935613  0.67622266  1
  H+  H211  1  0.34422717  0.08111673  0.29982206  1
  H+  H212  1  0.12080295  0.91182828  0.17428325  1
  H+  H213  1  0.10895850  0.85357531  -0.00832634  1
  H+  H214  1  0.69721406  0.39597180  0.64062978  1
  H+  H215  1  0.58499722  0.91803676  0.50491723  1
  H+  H216  1  0.76936825  0.64036160  0.49152803  1
  H+  H217  1  0.64769434  0.61838783  0.00498507  1
  H+  H218  1  0.13007786  0.77993570  0.83493543  1
  H+  H219  1  0.03181099  0.38579837  0.81903001  1
  H+  H220  1  0.52670353  0.38475256  0.31739379  1
  H+  H221  1  0.61462463  0.47751714  0.52603083  1
  H+  H222  1  0.12714197  0.84018724  0.66751714  1
  H+  H223  1  0.42191717  0.37138219  0.15390495  1
  H+  H224  1  0.74118133  0.88729004  0.66437094  1
  H+  H225  1  0.87594258  0.23776563  0.50035441  1
  H+  H226  1  0.41208137  0.57389243  0.60089777  1
  H+  H227  1  0.14582198  0.61101190  0.66267387  1
  H+  H228  1  0.13339783  -0.00393850  0.64145221  1
  H+  H229  1  0.78720728  0.26215552  -0.05227727  1
  H+  H230  1  0.62849512  0.81194297  0.50195547  1
  H+  H231  1  0.37964517  0.46139903  0.15055285  1
  H+  H232  1  0.32288784  0.39062627  0.44409120  1
  H+  H233  1  0.37006504  0.33948193  0.30846903  1
  H+  H234  1  0.03713502  0.15800889  0.36635077  1
  H+  H235  1  0.64329530  0.62891490  0.33957216  1
  H+  H236  1  0.13376608  0.24412060  0.82069300  1
  H+  H237  1  0.54083045  0.63824141  0.00617294  1
  H+  H238  1  0.19052959  0.60074028  0.60004642  1
  H+  H239  1  0.37368225  0.38193241  0.67210259  1
  H+  H240  1  0.91198755  0.12964948  0.17967116  1
  H+  H241  1  0.47523974  0.58206868  0.20257007  1
  H+  H242  1  0.11220564  0.10427179  0.35185879  1
  H+  H243  1  0.37372524  0.78810106  0.83366196  1
  H+  H244  1  0.39245470  0.90512873  0.99278681  1
  H+  H245  1  0.61424588  0.08352519  0.49265623  1
  H+  H246  1  0.23254493  0.11781922  0.30575667  1
  H+  H247  1  0.00473585  0.15073192  -0.02514312  1
  H+  H248  1  0.72344900  0.10223379  0.64812348  1
  H+  H249  1  0.39586430  0.28390108  0.84438130  1
  H+  H250  1  0.55580826  0.65661747  0.37035813  1
  H+  H251  1  0.77456595  0.38713894  0.48990432  1
  H+  H252  1  0.71068467  0.61121734  0.66667899  1
  H+  H253  1  0.57376836  0.41405994  0.07394438  1
  H+  H254  1  0.12356508  0.88858135  0.35187740  1
  H+  H255  1  0.22541724  0.60935206  0.99834613  1
  H+  H256  1  0.36503227  0.61469958  0.17097089  1
  H+  H257  1  0.38339675  0.60994994  0.66023622  1
  H+  H258  1  0.07541659  0.89379215  0.44578191  1
  H+  H259  1  0.09905409  0.69810297  0.67786277  1
  H+  H260  1  0.78658408  0.40296287  0.81229800  1
  H+  H261  1  0.76233498  0.63901477  0.33648157  1
  H+  H262  1  0.86629447  0.23101681  0.34873081  1
  H+  H263  1  0.25977927  0.37435629  0.50337950  1
  H+  H264  1  0.84522667  0.76157805  0.79409740  1
  H+  H265  1  0.66980158  0.04306558  0.47081270  1
  H+  H266  1  0.38362756  0.15591345  0.82645097  1
  H+  H267  1  0.38030355  0.15699943  -0.00362883  1
  H+  H268  1  0.23295290  0.12338106  0.21557859  1
  H+  H269  1  0.87847469  0.53110328  0.50674267  1
  H+  H270  1  0.25714758  0.61508207  0.50524864  1
  H+  H271  1  1.03591347  0.38715641  0.17287405  1
  H+  H272  1  0.87870354  0.25351252  1.01455677  1
  H+  H273  1  0.62328901  0.14166271  0.33827536  1
  H+  H274  1  0.85920863  0.71395370  0.02008423  1
  H+  H275  1  0.34558489  0.87363939  0.49816950  1
  H+  H276  1  0.39086675  0.75752679  0.17089142  1
  H+  H277  1  0.62992751  0.34758152  0.50762446  1
  H+  H278  1  0.16237741  0.28525360  0.17120101  1
  H+  H279  1  0.23241842  0.12132445  0.98819593  1
  H+  H280  1  0.60599850  0.09252778  0.97546329  1
  H+  H281  1  0.24839222  0.84413934  0.32733938  1
  H+  H282  1  0.98699317  0.87076463  0.18036894  1
  H+  H283  1  0.90046416  0.10986031  0.50338599  1
  H+  H284  1  0.60328403  0.73669257  0.16991260  1
  H+  H285  1  0.12471008  0.90016432  0.82501038  1
  H+  H286  1  0.14059345  0.29250714  0.50014588  1
  H+  H287  1  0.85601344  0.71597430  0.16993337  1
  H+  H288  1  0.59941417  0.68312152  0.06457727  1
  H+  H289  1  0.50519006  0.84986351  1.01896433  1
  H+  H290  1  0.65733052  0.05875668  0.59394262  1
  H+  H291  1  0.41034399  0.82839795  0.26257444  1
  H+  H292  1  0.79968653  0.91011528  0.74720949  1
  H+  H293  1  0.43277479  0.10289702  0.89383247  1
  H+  H294  1  0.33642496  0.92467835  0.76911009  1
  H+  H295  1  0.42057385  0.51387398  0.99411866  1
  H+  H296  1  0.27938257  0.64302966  0.67335156  1
  H+  H297  1  0.06453559  0.66528211  0.43443418  1
  H+  H298  1  0.90074522  0.82351814  0.60115307  1
  H+  H299  1  0.66007753  0.30663516  0.55559911  1
  H+  H300  1  0.82118526  0.65523783  0.08127933  1
  H+  H301  1  0.17522283  0.09111143  0.92849531  1
  H+  H302  1  0.76902494  0.81954245  0.11171419  1
  H+  H303  1  0.91229391  0.07615461  0.59695548  1
  H+  H304  1  0.07899833  0.40074821  0.75586241  1
  H+  H305  1  0.12780279  0.82055752  0.92948746  1
  H+  H306  1  0.12770873  0.39428756  0.50917249  1
  H+  H307  1  0.08755115  0.42425554  0.41327051  1
  H+  H308  1  0.15896722  0.38405847  1.01455573  1
  H+  H309  1  0.57720059  0.16215608  0.39846985  1
  H+  H310  1  0.64889083  0.83483295  0.88341121  1
  H+  H311  1  0.83569723  0.17126773  0.40793075  1
  H+  H312  1  0.61557909  0.22450401  0.15641320  1
  H+  H313  1  0.47206850  0.87813985  0.83843234  1
  H+  H314  1  0.40592387  0.06442031  0.26032313  1
  H+  H315  1  0.65603446  0.59364796  0.27382502  1
  H+  H316  1  0.34033168  0.21611942  0.39225068  1
  H+  H317  1  0.53429682  0.46695248  0.42268447  1
  H+  H318  1  0.09605276  0.17222606  0.42544873  1
  H+  H319  1  0.15938751  0.81247341  0.60974160  1
  H+  H320  1  0.35196732  0.66191337  0.42645485  1
  H+  H321  1  0.67157175  0.09619105  0.27246782  1
  H+  H322  1  0.86360331  0.44944377  0.76283384  1
  H+  H323  1  0.35364116  0.18277221  0.07384697  1
  H+  H324  1  0.82348687  0.40492999  0.10737939  1
  H+  H325  1  0.41741073  0.06995496  0.60359721  1
  H+  H326  1  0.39346531  0.54752887  0.24378205  1
  H+  H327  1  0.33300029  0.63005426  0.07445673  1
  H+  H328  1  0.96306536  0.22527206  0.76638156  1
  H+  H329  1  0.59578137  0.03619780  0.91487920  1
  H+  H330  1  0.85794126  0.17400987  0.09848804  1
  H+  H331  1  0.24582678  0.12981642  0.83834912  1
  H+  H332  1  0.82572511  0.67184303  0.39584331  1
  H+  H333  1  0.33694732  0.41861498  0.76941058  1
  H+  H334  1  0.22281321  0.86701706  0.84123240  1
  H+  H335  1  0.59345819  0.17062260  0.76109975  1
  H+  H336  1  0.32927407  0.69178647  0.75690964  1
  H+  H337  1  0.17657100  0.33205081  0.59368966  1
  H+  H338  1  0.07647210  0.91098981  0.72983113  1
  H+  H339  1  0.85565447  0.71360406  0.66520182  1
  H+  H340  1  0.49333565  0.85547472  0.65704719  1
  H+  H341  1  0.36064880  0.38749131  0.04545453  1
  H+  H342  1  0.72309344  0.87000374  0.97479502  1
  H+  H343  1  0.83574795  0.42509740  0.43249132  1
  H+  H344  1  0.42197353  0.56454662  0.34101540  1
  H+  H345  1  0.87848208  0.32183988  0.91934607  1
  H+  H346  1  0.08917072  0.04873178  0.29194891  1
  H+  H347  1  0.09460744  0.94132185  0.11307909  1
  H+  H348  1  0.90702695  0.82519411  0.26576187  1
  H+  H349  1  0.36272342  0.96531738  0.67480594  1
  H+  H350  1  0.17847937  0.05021446  0.58203321  1
  H+  H351  1  0.93128802  0.91832786  0.88082611  1
  H+  H352  1  0.83467791  0.37749279  0.00724083  1
  H+  H353  1  0.63153354  0.70498416  0.43470821  1
  H+  H354  1  0.77328570  0.86807582  0.48213353  1
  H+  H355  1  0.91470792  0.34794414  0.56284464  1
  H+  H356  1  0.20284031  0.34003986  0.23134658  1
  H+  H357  1  0.55815567  0.44261404  0.42382190  1
  H+  H358  1  0.72904815  0.12126050  0.33385359  1
  H+  H359  1  0.60005546  0.74214911  0.67023198  1
  H+  H360  1  0.78782486  1.00516861  0.01902999  1
  H+  H361  1  0.83946861  0.91776385  0.39599152  1
  H+  H362  1  0.90849102  0.58303910  0.26759559  1
  H+  H363  1  0.14394574  0.52133392  0.17879532  1
  H+  H364  1  0.07957750  0.41819453  0.06904626  1
  H+  H365  1  0.59476784  0.17330586  0.05816137  1
  H+  H366  1  0.16313474  0.58010227  0.27190323  1
  H+  H367  1  0.34759828  0.17827208  0.38840630  1
  H+  H368  1  0.09461792  0.17780202  0.05846159  1
  H+  H369  1  0.94348771  0.11258158  0.28605122  1
  H+  H370  1  0.92203392  0.33717946  0.24448523  1
  H+  H371  1  0.62227215  0.38808829  0.59756683  1
  H+  H372  1  0.92752001  0.83459698  0.95974667  1
  H+  H373  1  0.57625270  0.42367403  0.77668543  1
  H+  H374  1  0.79606715  0.60343666  0.75346309  1
  H+  H375  1  0.39369566  0.81387772  0.57554406  1
  H+  H376  1  0.10014122  0.68045417  0.10539510  1
  H+  H377  1  0.40881585  0.34348260  0.61165055  1
  H+  H378  1  0.44000233  0.57728112  0.93928229  1
  H+  H379  1  0.38892591  0.94255430  0.08841409  1
  H+  H380  1  0.27896905  0.62084128  0.16870695  1
  H+  H381  1  0.08014792  0.65128631  0.74044534  1
  H+  H382  1  0.67151491  0.34782706  0.89534635  1
  H+  H383  1  0.26933578  0.38920170  0.67175297  1
  O2-  O384  1  0.10927799  0.18492506  0.14060806  1
  O2-  O385  1  0.09106685  0.14307810  0.50039498  1
  O2-  O386  1  0.10008449  0.17349062  0.80382770  1
  O2-  O387  1  0.09473465  0.42035536  0.15613164  1
  O2-  O388  1  0.09800457  0.43061815  0.50345098  1
  O2-  O389  1  0.08686601  0.39919800  0.79944623  1
  O2-  O390  1  0.11738995  0.68696342  0.14992621  1
  O2-  O391  1  0.06092663  0.66761914  0.48080113  1
  O2-  O392  1  0.07403955  0.67879391  0.81379982  1
  O2-  O393  1  0.09285056  0.94495429  0.15852756  1
  O2-  O394  1  0.07638066  0.89771168  0.49142000  1
  O2-  O395  1  0.09898243  0.93620365  0.81064607  1
  O2-  O396  1  0.35766699  0.18139090  0.12514924  1
  O2-  O397  1  0.33922966  0.16846423  0.50976542  1
  O2-  O398  1  0.35230924  0.18658486  0.81332230  1
  O2-  O399  1  0.35568184  0.40288479  0.13342587  1
  O2-  O400  1  0.32551262  0.39753061  0.48833374  1
  O2-  O401  1  0.33727099  0.41261857  0.81454840  1
  O2-  O402  1  0.33930039  0.64687197  0.15231149  1
  O2-  O403  1  0.35984470  0.65929677  0.47110939  1
  O2-  O404  1  0.32426398  0.69891390  0.80335074  1
  O2-  O405  1  0.36456758  0.93197331  0.12968756  1
  O2-  O406  1  0.32022944  0.90794195  0.48219157  1
  O2-  O407  1  0.33627958  0.92969357  0.81493406  1
  O2-  O408  1  0.59153696  0.16654187  0.13736001  1
  O2-  O409  1  0.56941424  0.14713828  0.46883794  1
  O2-  O410  1  0.59714473  0.18622295  0.80722113  1
  O2-  O411  1  0.54710006  0.39327313  0.15334483  1
  O2-  O412  1  0.58795689  0.41464997  0.53446772  1
  O2-  O413  1  0.57823094  0.41709199  0.82293074  1
  O2-  O414  1  0.57517156  0.68287550  0.14272019  1
  O2-  O415  1  0.62995974  0.70599555  0.48402666  1
  O2-  O416  1  0.56582458  0.67048175  0.80352963  1
  O2-  O417  1  0.58167489  0.91404423  0.15910489  1
  O2-  O418  1  0.56435203  0.85819206  0.49349654  1
  O2-  O419  1  0.55396280  0.91618868  0.81428423  1
  O2-  O420  1  0.83605661  0.14181305  0.13996284  1
  O2-  O421  1  0.84759880  0.17538135  0.48760615  1
  O2-  O422  1  0.90371736  0.20443248  0.77866336  1
  O2-  O423  1  0.82130728  0.40365574  0.15298967  1
  O2-  O424  1  0.83532027  0.42534575  0.47818991  1
  O2-  O425  1  0.84883749  0.42809851  0.80561927  1
  O2-  O426  1  0.81514928  0.65747172  0.15450349  1
  O2-  O427  1  0.82746138  0.66901387  0.47174564  1
  O2-  O428  1  0.77643405  0.57393857  0.79277140  1
  O2-  O429  1  0.80279116  0.85997998  0.14378451  1
  O2-  O430  1  0.83457181  0.90695114  0.46936152  1
  O2-  O431  1  0.79608699  0.90417756  0.79426698  1
  O2-  O432  1  0.20990604  0.11429246  0.17212684  1
  O2-  O433  1  0.17514120  0.06706585  0.49663215  1
  O2-  O434  1  0.18386674  0.09899185  0.85025885  1
  O2-  O435  1  0.19761786  0.34528214  0.18711455  1
  O2-  O436  1  0.17530231  0.34382900  0.52419569  1
  O2-  O437  1  0.16665843  0.31951725  0.84121531  1
  O2-  O438  1  0.17799907  0.58251212  0.19408618  1
  O2-  O439  1  0.20256173  0.60360109  0.52485922  1
  O2-  O440  1  0.15718958  0.60900170  0.85916846  1
  O2-  O441  1  0.15791519  0.85238008  0.19778703  1
  O2-  O442  1  0.15607204  0.81601470  0.52573202  1
  O2-  O443  1  0.16126621  0.84062295  0.85168362  1
  O2-  O444  1  0.43160572  0.08213407  0.17988385  1
  O2-  O445  1  0.41626829  0.07249049  0.52417262  1
  O2-  O446  1  0.43044024  0.09891021  0.84843018  1
  O2-  O447  1  0.45294969  0.34023396  0.17108038  1
  O2-  O448  1  0.41095305  0.33543988  0.54460049  1
  O2-  O449  1  0.42422719  0.34374316  0.86187688  1
  O2-  O450  1  0.41281858  0.55555458  0.20006834  1
  O2-  O451  1  0.41859580  0.56379024  0.53114125  1
  O2-  O452  1  0.42746199  0.57308768  0.86213148  1
  O2-  O453  1  0.41426239  0.82050990  0.17555804  1
  O2-  O454  1  0.36636484  0.79794659  0.53399156  1
  O2-  O455  1  0.40635848  0.84721057  0.85436209  1
  O2-  O456  1  0.66890580  0.09201999  0.19542240  1
  O2-  O457  1  0.64420410  0.05251472  0.50697764  1
  O2-  O458  1  0.60283751  0.00644646  0.83434840  1
  O2-  O459  1  0.65573206  0.32291671  0.19310576  1
  O2-  O460  1  0.65878502  0.31265682  0.51127579  1
  O2-  O461  1  0.67019664  0.35068764  0.84983751  1
  O2-  O462  1  0.63718716  0.57436358  0.18887345  1
  O2-  O463  1  0.67061124  0.59210274  0.52910573  1
  O2-  O464  1  0.68768528  0.63653545  0.85409366  1
  O2-  O465  1  0.65161194  0.82139680  0.20705393  1
  O2-  O466  1  0.67390942  0.79528973  0.50520078  1
  O2-  O467  1  0.63795073  0.83760291  0.83951073  1
  O2-  O468  1  0.95103930  0.11379276  0.20177312  1
  O2-  O469  1  0.91814128  0.06893334  0.51800060  1
  O2-  O470  1  0.86331604  0.07064651  0.84503153  1
  O2-  O471  1  0.92014542  0.33691795  0.19849053  1
  O2-  O472  1  0.92055889  0.34208382  0.51792313  1
  O2-  O473  1  0.92206320  0.33953110  0.84941821  1
  O2-  O474  1  0.88899638  0.56413042  0.18608404  1
  O2-  O475  1  0.90705142  0.59270680  0.51962895  1
  O2-  O476  1  0.90778220  0.58651703  0.85720672  1
  O2-  O477  1  0.92564976  0.82922315  0.19248501  1
  O2-  O478  1  0.91027295  0.82498554  0.52317177  1
  O2-  O479  1  0.94653031  0.87349983  0.88539534  1
  O2-  O480  1  0.12219040  0.06049059  0.32938324  1
  O2-  O481  1  0.17478829  0.05431780  0.62618489  1
  O2-  O482  1  0.17234035  0.08940695  0.97403224  1
  O2-  O483  1  0.21489930  0.32809774  0.31635608  1
  O2-  O484  1  0.17563280  0.33254793  0.64104878  1
  O2-  O485  1  0.20411666  0.36785111  1.01155537  1
  O2-  O486  1  0.16318666  0.58094636  0.31744709  1
  O2-  O487  1  0.18354737  0.58972399  0.64533945  1
  O2-  O488  1  0.16773295  0.59054467  0.98169591  1
  O2-  O489  1  0.19682451  0.79668900  0.30418671  1
  O2-  O490  1  0.15972282  0.81128647  0.65480115  1
  O2-  O491  1  0.09647330  0.80160810  0.96859408  1
  O2-  O492  1  0.38490772  0.05962872  0.30261843  1
  O2-  O493  1  0.41685201  0.06692424  0.64896887  1
  O2-  O494  1  0.43179496  0.11182151  0.97226607  1
  O2-  O495  1  0.40178766  0.31113405  0.29367142  1
  O2-  O496  1  0.40791662  0.34852185  0.65905053  1
  O2-  O497  1  0.41948174  0.35114892  0.98593880  1
  O2-  O498  1  0.36952474  0.54570835  0.31762580  1
  O2-  O499  1  0.41198701  0.57727619  0.64773807  1
  O2-  O500  1  0.44189031  0.57548636  0.98470592  1
  O2-  O501  1  0.41043699  0.82719705  0.30756306  1
  O2-  O502  1  0.43064985  0.83210792  0.64688634  1
  O2-  O503  1  0.42211463  0.80475202  1.03465981  1
  O2-  O504  1  0.66877578  0.09514053  0.31812734  1
  O2-  O505  1  0.66241018  0.05936973  0.63850395  1
  O2-  O506  1  0.59059260  0.03456806  0.95962515  1
  O2-  O507  1  0.66694803  0.32675293  0.31617475  1
  O2-  O508  1  0.63572174  0.36112626  0.63304354  1
  O2-  O509  1  0.66340505  0.34293309  0.97458783  1
  O2-  O510  1  0.66581488  0.59229344  0.31788881  1
  O2-  O511  1  0.64928930  0.58380471  0.65558084  1
  O2-  O512  1  0.67756421  0.58521154  0.99352161  1
  O2-  O513  1  0.66386322  0.83007941  0.32170381  1
  O2-  O514  1  0.63861110  0.84324382  0.64908878  1
  O2-  O515  1  0.66381065  0.82849545  0.96206057  1
  O2-  O516  1  0.93408013  0.10088860  0.33016063  1
  O2-  O517  1  0.90682887  0.08053369  0.64183017  1
  O2-  O518  1  0.94763779  0.13555677  0.95577539  1
  O2-  O519  1  0.92127104  0.33429068  0.32133691  1
  O2-  O520  1  0.91541235  0.35636041  0.63915713  1
  O2-  O521  1  0.84476574  0.30738638  0.95870911  1
  O2-  O522  1  0.91167580  0.58718778  0.31254091  1
  O2-  O523  1  0.88335841  0.62236612  0.64788990  1
  O2-  O524  1  0.93943838  0.55435183  0.96943117  1
  O2-  O525  1  0.89474080  0.82134568  0.31096874  1
  O2-  O526  1  0.89653271  0.81988985  0.64667822  1
  O2-  O527  1  0.91879289  0.82117784  1.00419030  1
  O2-  O528  1  0.09355588  0.17828924  0.01340095  1
  O2-  O529  1  0.09724946  0.17898164  0.38010430  1
  O2-  O530  1  0.07594208  0.17014587  0.68987692  1
  O2-  O531  1  0.07740026  0.41535238  0.02436516  1
  O2-  O532  1  0.07801448  0.41651459  0.36911268  1
  O2-  O533  1  0.08680793  0.42010969  0.63496057  1
  O2-  O534  1  0.08498172  0.67173305  0.03139096  1
  O2-  O535  1  0.07203516  0.65938064  0.36272630  1
  O2-  O536  1  0.07954170  0.64028879  0.69561937  1
  O2-  O537  1  0.09420758  0.93612365  0.03537128  1
  O2-  O538  1  0.08000141  0.89892099  0.36958915  1
  O2-  O539  1  0.07178146  0.89722013  0.68579356  1
  O2-  O540  1  0.34633098  0.18298105  0.01519028  1
  O2-  O541  1  0.28256045  0.13911103  0.27800733  1
  O2-  O542  1  0.30368230  0.10675485  0.70113362  1
  O2-  O543  1  0.37573113  0.39982642  0.00149823  1
  O2-  O544  1  0.29987894  0.37385536  0.34636650  1
  O2-  O545  1  0.32949563  0.42156903  0.69040548  1
  O2-  O546  1  0.33758039  0.63845458  0.02931757  1
  O2-  O547  1  0.32921882  0.66098972  0.34944694  1
  O2-  O548  1  0.33925189  0.67241287  0.69149721  1
  O2-  O549  1  0.42567526  0.96443216  0.00689057  1
  O2-  O550  1  0.33516469  0.91229004  0.35852959  1
  O2-  O551  1  0.33597293  0.90710041  0.69475413  1
  O2-  O552  1  0.59351188  0.17514136  0.01254634  1
  O2-  O553  1  0.58945080  0.17183377  0.35263918  1
  O2-  O554  1  0.58103791  0.14166261  0.69563903  1
  O2-  O555  1  0.58225319  0.42391009  0.02935753  1
  O2-  O556  1  0.58941073  0.41471082  0.31272036  1
  O2-  O557  1  0.56484783  0.42801814  0.70587770  1
  O2-  O558  1  0.60282331  0.67628077  0.01985178  1
  O2-  O559  1  0.61820317  0.68766739  0.37155937  1
  O2-  O560  1  0.57788617  0.68014611  0.68451497  1
  O2-  O561  1  0.57414076  0.89264188  0.00792353  1
  O2-  O562  1  0.57088636  0.91058677  0.34332065  1
  O2-  O563  1  0.59674232  0.88757293  0.67738617  1
  O2-  O564  1  0.89039335  0.21288716  0.03695411  1
  O2-  O565  1  0.83377125  0.16942337  0.36259922  1
  O2-  O566  1  0.82912947  0.17845167  0.66737680  1
  O2-  O567  1  0.81864304  0.41540698  0.03017760  1
  O2-  O568  1  0.83529654  0.41975330  0.35545509  1
  O2-  O569  1  0.91273683  0.49750746  0.69403107  1
  O2-  O570  1  0.82201180  0.65356958  0.03498977  1
  O2-  O571  1  0.82588607  0.67260994  0.34983949  1
  O2-  O572  1  0.82469778  0.64918477  0.67240501  1
  O2-  O573  1  0.81321126  0.97191779  0.00343880  1
  O2-  O574  1  0.84101089  0.92154859  0.34987782  1
  O2-  O575  1  0.80366537  0.91054940  0.67770255  1
