# generated using pymatgen
data_H2O
_symmetry_space_group_name_H-M   'P 1'
_cell_length_a   17.99200768
_cell_length_b   17.99700946
_cell_length_c   22.00127760
_cell_angle_alpha   90.00210274
_cell_angle_beta   90.02034311
_cell_angle_gamma   120.01497181
_symmetry_Int_Tables_number   1
_chemical_formula_structural   H2O
_chemical_formula_sum   'H384 O192'
_cell_volume   6168.68969733
_cell_formula_units_Z   192
loop_
 _symmetry_equiv_pos_site_id
 _symmetry_equiv_pos_as_xyz
  1  'x, y, z'
loop_
 _atom_type_symbol
 _atom_type_oxidation_number
  H+  1.0
  O2-  -2.0
loop_
 _atom_site_type_symbol
 _atom_site_label
 _atom_site_symmetry_multiplicity
 _atom_site_fract_x
 _atom_site_fract_y
 _atom_site_fract_z
 _atom_site_occupancy
  H+  H0  1  0.12025591  0.18828714  0.67196195  1
  H+  H1  1  0.72783295  0.36134800  0.50289203  1
  H+  H2  1  0.36093029  0.98140628  0.48569195  1
  H+  H3  1  0.72820400  0.10434420  0.98360441  1
  H+  H4  1  0.88887766  0.86803169  0.33966779  1
  H+  H5  1  0.88482495  0.11033607  0.83781912  1
  H+  H6  1  0.51070712  0.64301590  0.34001828  1
  H+  H7  1  0.76445091  0.95001971  0.04524528  1
  H+  H8  1  0.88406395  0.00272547  0.17685318  1
  H+  H9  1  0.12621228  0.30154582  0.66254192  1
  H+  H10  1  0.28386832  0.15007041  1.00870977  1
  H+  H11  1  0.33715134  0.17255409  0.07050447  1
  H+  H12  1  0.35359598  0.21911171  0.16586195  1
  H+  H13  1  0.36097332  0.38245283  0.00937930  1
  H+  H14  1  0.61600129  0.71876974  0.67614314  1
  H+  H15  1  0.88105909  0.60411279  0.66865642  1
  H+  H16  1  0.85498073  0.71388654  0.68484057  1
  H+  H17  1  0.63381434  0.27336507  0.51308204  1
  H+  H18  1  0.87285395  0.13755861  0.66889333  1
  H+  H19  1  0.88785615  0.01585748  0.99040614  1
  H+  H20  1  0.27697873  0.14917839  0.49075874  1
  H+  H21  1  0.38125342  0.26773637  0.32755064  1
  H+  H22  1  0.37995454  0.27666454  0.50613148  1
  H+  H23  1  0.97786749  0.35925050  0.83557266  1
  H+  H24  1  1.02139563  0.63274299  0.16096956  1
  H+  H25  1  0.02739957  0.14232839  0.33362513  1
  H+  H26  1  0.61156836  0.47659723  0.16768250  1
  H+  H27  1  0.38980258  0.61941375  0.16557746  1
  H+  H28  1  0.13865480  0.11604258  0.32024642  1
  H+  H29  1  0.72565189  0.86113659  0.66228165  1
  H+  H30  1  0.39194213  0.11920674  1.00014015  1
  H+  H31  1  1.02785959  0.36658680  1.00862952  1
  H+  H32  1  0.22512876  0.61443795  0.32077677  1
  H+  H33  1  0.60933439  0.37686866  0.81540876  1
  H+  H34  1  0.35501538  0.46655615  0.00164253  1
  H+  H35  1  0.23051417  0.10085747  0.65718381  1
  H+  H36  1  0.11436629  0.89525672  0.33440721  1
  H+  H37  1  0.10755249  0.38400876  0.31096860  1
  H+  H38  1  0.59831111  0.61149921  0.01143375  1
  H+  H39  1  0.71998662  0.61543882  0.85643436  1
  H+  H40  1  0.97209951  0.36731729  0.31986430  1
  H+  H41  1  0.17232296  0.33789589  0.56619994  1
  H+  H42  1  0.86558778  0.74425950  0.82803633  1
  H+  H43  1  0.93016729  0.94313946  0.51885473  1
  H+  H44  1  0.76655734  0.38069289  0.16412560  1
  H+  H45  1  0.63997818  0.02217372  0.32724737  1
  H+  H46  1  0.23534866  0.88326636  0.50729465  1
  H+  H47  1  0.98969887  0.12997534  0.50523665  1
  H+  H48  1  0.10485914  0.95892500  0.67890284  1
  H+  H49  1  0.13645401  0.02609323  0.32389215  1
  H+  H50  1  0.98227912  0.10305599  0.98758364  1
  H+  H51  1  0.15547496  0.77788672  0.84300533  1
  H+  H52  1  0.66548974  0.83156723  0.26973919  1
  H+  H53  1  0.63054138  0.40984244  0.97630578  1
  H+  H54  1  0.47114494  0.59535555  0.98758431  1
  H+  H55  1  0.89102849  0.81256131  0.99280068  1
  H+  H56  1  0.85747126  0.35765749  0.82169513  1
  H+  H57  1  0.37078059  0.14043383  0.67458698  1
  H+  H58  1  0.61074691  0.62212585  0.83696327  1
  H+  H59  1  1.01118622  0.87930507  0.68135385  1
  H+  H60  1  0.72893858  0.85180702  0.17882245  1
  H+  H61  1  0.87727116  0.14834977  0.49028488  1
  H+  H62  1  0.38730080  0.52646040  0.31981885  1
  H+  H63  1  0.57934951  0.90595461  0.56575990  1
  H+  H64  1  0.61618646  0.88576102  0.66824056  1
  H+  H65  1  0.87128698  0.22643790  0.67014797  1
  H+  H66  1  0.83923344  0.60175163  0.49521599  1
  H+  H67  1  0.22666683  0.62051575  0.82469832  1
  H+  H68  1  0.89615851  0.56469585  0.85560459  1
  H+  H69  1  0.28194646  0.89462833  0.67526905  1
  H+  H70  1  0.72956253  0.11750989  0.82935073  1
  H+  H71  1  0.64218957  0.10726877  0.50504889  1
  H+  H72  1  0.86632503  0.64211421  0.15704227  1
  H+  H73  1  0.61723883  0.37994213  0.49456142  1
  H+  H74  1  0.13823900  0.61850169  0.83143031  1
  H+  H75  1  0.47391382  0.36299219  0.18035639  1
  H+  H76  1  0.14387597  0.39393490  0.65786915  1
  H+  H77  1  0.28119005  0.90202307  0.82875558  1
  H+  H78  1  0.93480741  0.89172279  0.81497411  1
  H+  H79  1  0.83725784  0.68836941  0.48848559  1
  H+  H80  1  0.82969253  0.67557995  0.10227812  1
  H+  H81  1  0.51691294  0.90855249  0.81449534  1
  H+  H82  1  0.11491244  0.13326645  0.00125928  1
  H+  H83  1  0.63063519  0.22052910  0.01548603  1
  H+  H84  1  0.47743712  0.61632905  0.16861898  1
  H+  H85  1  0.74307505  0.36733608  0.65703164  1
  H+  H86  1  0.63729659  0.13949431  0.81886558  1
  H+  H87  1  0.57724248  0.66230560  0.09897366  1
  H+  H88  1  0.26914606  0.88732048  0.15524202  1
  H+  H89  1  0.62768347  0.34341277  0.33365205  1
  H+  H90  1  1.02787175  0.64241024  0.67342922  1
  H+  H91  1  0.91960792  0.78392737  0.16643962  1
  H+  H92  1  0.72998478  0.11296649  0.32731850  1
  H+  H93  1  0.47299167  0.10909354  0.17509003  1
  H+  H94  1  0.21720946  0.36018804  0.83713437  1
  H+  H95  1  0.89661408  0.38530979  0.16938026  1
  H+  H96  1  0.74522025  0.62710629  0.01654887  1
  H+  H97  1  0.64862040  0.27001812  0.65205129  1
  H+  H98  1  0.35269333  0.50433945  0.53820431  1
  H+  H99  1  0.36936684  0.88884660  0.67653474  1
  H+  H100  1  0.35872645  0.13490204  0.33816043  1
  H+  H101  1  0.38035617  0.51102255  0.63795133  1
  H+  H102  1  0.11134034  0.39138891  0.82800667  1
  H+  H103  1  0.36585054  0.73485713  0.70156674  1
  H+  H104  1  0.60301586  0.47734035  0.67878069  1
  H+  H105  1  0.78909307  0.90469494  0.49430307  1
  H+  H106  1  0.61062709  0.12939888  0.16659591  1
  H+  H107  1  0.63952112  0.26225045  0.33148263  1
  H+  H108  1  0.88682051  0.27544004  0.50415930  1
  H+  H109  1  0.72398833  0.35717290  0.83622060  1
  H+  H110  1  0.61348233  0.63794565  0.15707955  1
  H+  H111  1  0.63413086  0.26752002  0.17766071  1
  H+  H112  1  0.10823758  0.47308440  0.30650641  1
  H+  H113  1  0.36549105  0.48367172  0.15675771  1
  H+  H114  1  0.02663897  0.39884166  0.67087771  1
  H+  H115  1  0.22680811  0.35103665  0.98866586  1
  H+  H116  1  0.38097215  0.27196279  0.66436963  1
  H+  H117  1  0.90562197  0.79779451  0.48863987  1
  H+  H118  1  0.36422439  0.74932167  0.99896136  1
  H+  H119  1  0.89842314  0.04350979  0.50461701  1
  H+  H120  1  0.47577744  0.85961884  0.65879242  1
  H+  H121  1  0.14273155  0.27395056  0.32040903  1
  H+  H122  1  0.06504338  0.94265850  0.16103825  1
  H+  H123  1  0.66130773  0.07863082  0.92933513  1
  H+  H124  1  0.85605887  0.37663467  0.49669842  1
  H+  H125  1  0.38876683  0.79749191  0.82172948  1
  H+  H126  1  0.61508182  0.12656577  0.33926350  1
  H+  H127  1  0.86238530  0.39284362  0.34671601  1
  H+  H128  1  0.65767452  0.77980640  0.49970030  1
  H+  H129  1  0.70050536  0.86841720  0.83795676  1
  H+  H130  1  0.52306963  0.63945737  0.51421495  1
  H+  H131  1  0.64228119  -0.02255669  1.01662622  1
  H+  H132  1  0.12606602  0.91389435  0.49182078  1
  H+  H133  1  0.61239877  0.87881035  0.17103914  1
  H+  H134  1  0.15119757  0.60159540  0.52351867  1
  H+  H135  1  0.61138197  0.47459641  0.49629745  1
  H+  H136  1  0.76498700  0.63850213  0.33538030  1
  H+  H137  1  0.89079699  0.02325312  0.65622688  1
  H+  H138  1  0.73587678  0.62596731  0.16810193  1
  H+  H139  1  0.09081066  0.90792489  0.77612161  1
  H+  H140  1  0.84654629  0.18993023  0.14237592  1
  H+  H141  1  0.14930982  0.78997928  0.66514083  1
  H+  H142  1  0.12002189  0.64847262  0.67635859  1
  H+  H143  1  0.61189317  0.58298633  0.50770631  1
  H+  H144  1  0.12979925  0.90384099  0.00520696  1
  H+  H145  1  0.87874146  0.61174716  0.32363603  1
  H+  H146  1  0.09590182  0.66767181  0.47097069  1
  H+  H147  1  0.38798023  0.87053632  0.98856473  1
  H+  H148  1  0.75569251  0.10828198  0.15351369  1
  H+  H149  1  0.15136558  0.01037884  0.84277087  1
  H+  H150  1  0.85897511  0.88564961  0.67037023  1
  H+  H151  1  0.11825866  0.37337162  0.00675453  1
  H+  H152  1  0.16031695  0.10246273  0.83680694  1
  H+  H153  1  0.84392618  0.65404882  1.01144938  1
  H+  H154  1  0.86499070  -0.01554135  0.33818383  1
  H+  H155  1  0.60152456  0.44476259  0.34549108  1
  H+  H156  1  0.09334443  0.93481076  0.42861236  1
  H+  H157  1  0.47771761  0.11471319  0.99976612  1
  H+  H158  1  0.37007343  0.66520997  0.80243651  1
  H+  H159  1  0.74045857  0.40891682  0.00587917  1
  H+  H160  1  0.33333060  0.16072982  0.73096920  1
  H+  H161  1  0.23456230  0.62667290  0.68421837  1
  H+  H162  1  0.40294840  0.23982718  0.84690702  1
  H+  H163  1  0.13659306  0.61539231  0.31155788  1
  H+  H164  1  0.87429438  0.78913327  0.60771211  1
  H+  H165  1  0.38561097  0.86478289  0.17143556  1
  H+  H166  1  0.48450583  0.55463121  0.47736527  1
  H+  H167  1  0.40281121  0.02791938  0.68102349  1
  H+  H168  1  0.82565429  0.87938519  0.83909579  1
  H+  H169  1  0.36820594  -0.01597955  1.00631887  1
  H+  H170  1  0.37770651  0.86338463  0.50721330  1
  H+  H171  1  0.86445834  0.44706633  0.81823154  1
  H+  H172  1  0.33610092  0.92748334  0.76603025  1
  H+  H173  1  0.76525043  0.62659819  0.68062756  1
  H+  H174  1  0.59199705  0.31019884  0.98084920  1
  H+  H175  1  0.36783079  0.73390990  0.15443212  1
  H+  H176  1  0.88645354  0.24152847  -0.01362727  1
  H+  H177  1  -0.00018010  0.86726667  0.83955141  1
  H+  H178  1  0.54311771  0.44375512  0.00119453  1
  H+  H179  1  0.60497672  0.70442368  0.00555930  1
  H+  H180  1  0.88770866  0.35914864  0.65944768  1
  H+  H181  1  0.52299635  0.88038595  0.16495927  1
  H+  H182  1  0.13601239  0.08546003  0.66090446  1
  H+  H183  1  0.51459951  0.36535319  0.82249927  1
  H+  H184  1  0.89116070  0.11906607  0.32156569  1
  H+  H185  1  0.14764414  0.38150582  0.17238386  1
  H+  H186  1  0.64793447  0.02611376  0.65309834  1
  H+  H187  1  0.24381755  0.38230160  0.17103447  1
  H+  H188  1  1.04396118  0.90850264  1.00611140  1
  H+  H189  1  0.40059038  0.28415409  1.00535088  1
  H+  H190  1  0.36352253  0.42978356  0.83231063  1
  H+  H191  1  0.82778888  0.41275205  -0.00356710  1
  H+  H192  1  0.26271621  0.65614364  0.99954720  1
  H+  H193  1  0.35460929  0.88227240  0.33728163  1
  H+  H194  1  0.14169559  0.80464761  0.51915300  1
  H+  H195  1  0.15149478  0.03323696  0.99732870  1
  H+  H196  1  0.35788891  0.38737784  0.67807727  1
  H+  H197  1  0.36326599  0.72680971  0.48739603  1
  H+  H198  1  0.23594885  0.86948968  0.99502686  1
  H+  H199  1  0.38101726  0.01963607  0.32815085  1
  H+  H200  1  0.14523245  0.53960953  0.67177468  1
  H+  H201  1  0.87897883  0.87923067  0.15943409  1
  H+  H202  1  0.88777961  0.77872976  0.33933854  1
  H+  H203  1  0.39137698  0.41111627  0.49377476  1
  H+  H204  1  0.46501684  0.86149088  0.51403545  1
  H+  H205  1  0.46683175  0.85842845  0.32566867  1
  H+  H206  1  0.89612006  0.65081346  0.84760600  1
  H+  H207  1  0.39064274  0.88608365  0.83324670  1
  H+  H208  1  0.87398104  0.08511079  0.16870278  1
  H+  H209  1  0.86699565  0.79054654  0.50729710  1
  H+  H210  1  0.63152131  0.01253815  0.17729138  1
  H+  H211  1  0.61153170  0.55217019  0.30178341  1
  H+  H212  1  0.91672737  0.31652890  0.89393154  1
  H+  H213  1  1.14062627  0.63713018  0.98773106  1
  H+  H214  1  0.11542430  0.85143831  0.16450298  1
  H+  H215  1  0.63569239  0.61059423  0.66564877  1
  H+  H216  1  1.01808026  0.94226697  0.51903853  1
  H+  H217  1  0.38034129  0.12313757  0.49905291  1
  H+  H218  1  0.28727898  0.63253120  0.49282796  1
  H+  H219  1  0.11284926  0.24046011  0.82970485  1
  H+  H220  1  0.88229319  0.52469648  0.32862010  1
  H+  H221  1  0.15042456  0.04346136  0.49794701  1
  H+  H222  1  0.47141881  0.10670779  0.32872891  1
  H+  H223  1  0.22684739  0.38134560  0.50723856  1
  H+  H224  1  1.02088394  0.65348013  1.01083850  1
  H+  H225  1  1.02346859  0.89190249  0.34333589  1
  H+  H226  1  0.89120151  0.33076109  0.99266533  1
  H+  H227  1  0.37537973  0.30811054  0.84530379  1
  H+  H228  1  0.35762120  0.13277552  0.16319446  1
  H+  H229  1  0.93215739  0.85637285  0.93058725  1
  H+  H230  1  0.60413544  0.90766998  0.82056223  1
  H+  H231  1  0.26802959  0.88777872  0.33283842  1
  H+  H232  1  0.60897937  0.38684457  0.17124250  1
  H+  H233  1  0.12078898  0.23558113  0.48832862  1
  H+  H234  1  0.64427859  0.71626369  0.81706219  1
  H+  H235  1  0.86778269  0.50138803  0.51366595  1
  H+  H236  1  0.13597982  0.26089808  -0.01176447  1
  H+  H237  1  0.60261782  0.79073190  0.84021338  1
  H+  H238  1  0.11411349  0.47271320  0.53384868  1
  H+  H239  1  0.01942509  0.11911024  0.67430645  1
  H+  H240  1  0.61068142  0.88422128  0.33595639  1
  H+  H241  1  0.86130874  0.23115414  0.33537266  1
  H+  H242  1  0.17929447  0.34595601  0.23568742  1
  H+  H243  1  0.43185815  0.10066939  0.73025285  1
  H+  H244  1  -0.04442440  0.58880773  0.51358007  1
  H+  H245  1  0.35670568  0.63578754  0.33478429  1
  H+  H246  1  0.19433961  0.59417436  0.58374445  1
  H+  H247  1  0.73953245  0.11478386  0.65506339  1
  H+  H248  1  0.47744293  0.63315038  0.83078892  1
  H+  H249  1  0.13505648  0.78363971  0.30775206  1
  H+  H250  1  0.29866385  0.10308928  0.82954564  1
  H+  H251  1  0.38921122  0.59791126  0.61547125  1
  H+  H252  1  0.86058040  0.47389253  0.67339616  1
  H+  H253  1  0.88116675  0.52118738  0.17104153  1
  H+  H254  1  0.01469321  0.11877368  0.15074192  1
  H+  H255  1  0.37801363  0.76878255  0.32605314  1
  H+  H256  1  0.86431926  0.21935322  0.82109165  1
  H+  H257  1  0.61916927  0.12843189  0.00839880  1
  H+  H258  1  1.04492435  0.40759447  0.15858412  1
  H+  H259  1  0.26944276  0.13563059  0.33537949  1
  H+  H260  1  0.50385976  0.36432046  0.34380088  1
  H+  H261  1  0.36717069  0.38846662  0.33628276  1
  H+  H262  1  0.35882571  -0.02511922  0.16073310  1
  H+  H263  1  0.87424038  0.55241500  -0.00086134  1
  H+  H264  1  0.77119572  0.38790965  0.34641928  1
  H+  H265  1  0.23165808  0.36528526  0.32478297  1
  H+  H266  1  0.37486619  0.04373894  0.81442058  1
  H+  H267  1  0.34984654  0.43062406  0.39355634  1
  H+  H268  1  0.58435655  0.92535316  0.72140418  1
  H+  H269  1  0.41667454  0.58850362  0.26142062  1
  H+  H270  1  0.10202137  0.38031157  0.52311052  1
  H+  H271  1  0.62517857  0.23384127  0.81858083  1
  H+  H272  1  0.20660509  0.08620709  0.16618824  1
  H+  H273  1  0.63210721  0.03275220  0.82582463  1
  H+  H274  1  0.01502821  0.63906181  0.32036710  1
  H+  H275  1  0.11353974  0.63680241  0.15826305  1
  H+  H276  1  0.62996452  0.63978301  0.32839570  1
  H+  H277  1  0.64249655  0.85844812  0.51288025  1
  H+  H278  1  0.27282912  0.39529420  0.67568379  1
  H+  H279  1  0.63649561  0.76721023  0.17445912  1
  H+  H280  1  0.12960843  0.87914068  0.83424222  1
  H+  H281  1  0.58124091  0.15851700  0.56568234  1
  H+  H282  1  0.53810302  0.13900098  0.67404891  1
  H+  H283  1  1.03387487  0.65772825  0.82882824  1
  H+  H284  1  0.86484033  0.11554240  -0.00470040  1
  H+  H285  1  0.27884022  0.64501218  0.15209927  1
  H+  H286  1  0.12118182  0.14762732  0.48945953  1
  H+  H287  1  0.76877336  0.88005592  0.01034602  1
  H+  H288  1  0.33108547  0.68313157  0.06230036  1
  H+  H289  1  0.66117165  0.57210410  0.60764427  1
  H+  H290  1  0.61738488  0.97262914  0.51327699  1
  H+  H291  1  0.38188975  0.55578895  0.82771173  1
  H+  H292  1  0.38475906  0.36270057  0.17785526  1
  H+  H293  1  0.40403859  0.82150987  0.60691968  1
  H+  H294  1  0.38963128  0.07898453  0.55900192  1
  H+  H295  1  0.90602486  0.57339560  0.60728172  1
  H+  H296  1  0.05333524  0.57216433  0.44986570  1
  H+  H297  1  0.05231837  0.40407177  0.41896069  1
  H+  H298  1  0.57772736  0.91089707  0.39441303  1
  H+  H299  1  0.92895828  0.08861787  0.59855462  1
  H+  H300  1  0.65136994  0.81979034  0.93695878  1
  H+  H301  1  0.40697007  0.33232460  0.60555111  1
  H+  H302  1  0.82868445  0.91492480  0.73086214  1
  H+  H303  1  0.17671860  0.09230940  0.56151925  1
  H+  H304  1  0.33861331  0.92071039  0.06424427  1
  H+  H305  1  0.13002020  0.77163516  0.16697762  1
  H+  H306  1  0.08786394  0.17286637  0.39259154  1
  H+  H307  1  0.58355734  0.15983101  0.10730145  1
  H+  H308  1  0.14281681  0.78285413  0.99660883  1
  H+  H309  1  0.08513163  0.68558970  0.37111702  1
  H+  H310  1  0.32826596  0.43231256  0.76606257  1
  H+  H311  1  0.08164360  0.42530048  0.73295720  1
  H+  H312  1  0.50837266  0.38699947  0.67564700  1
  H+  H313  1  0.82607067  0.66960926  0.77771692  1
  H+  H314  1  0.63274546  0.77949730  0.33247370  1
  H+  H315  1  0.67732869  0.33885711  0.59280176  1
  H+  H316  1  0.83339412  0.90521676  0.10658691  1
  H+  H317  1  0.82454472  0.13604404  0.05430182  1
  H+  H318  1  0.66934498  0.07896757  0.23318521  1
  H+  H319  1  0.68228483  0.08654495  0.56153404  1
  H+  H320  1  0.65592479  0.33757126  0.89069832  1
  H+  H321  1  0.01383399  0.13896518  0.82912735  1
  H+  H322  1  0.82764764  0.41179718  0.43690796  1
  H+  H323  1  0.16264022  0.32254493  0.90026542  1
  H+  H324  1  0.42717186  0.33289609  0.94317016  1
  H+  H325  1  0.70681470  0.58901312  0.50451022  1
  H+  H326  1  0.15120873  0.53248488  0.16222945  1
  H+  H327  1  0.07628480  0.15520576  0.06031174  1
  H+  H328  1  0.41300787  0.83739455  0.92852282  1
  H+  H329  1  0.41338860  0.58284323  0.92920517  1
  H+  H330  1  0.91765063  0.61780542  0.94370824  1
  H+  H331  1  0.94106583  0.88635317  0.59713889  1
  H+  H332  1  0.16829612  0.84906106  0.25380882  1
  H+  H333  1  0.08738700  0.67821465  0.76621634  1
  H+  H334  1  0.81493880  0.64465005  0.39622295  1
  H+  H335  1  0.17561472  0.58921393  0.22291491  1
  H+  H336  1  0.32654769  0.91595119  0.42908947  1
  H+  H337  1  0.33094109  0.41814229  0.09923970  1
  H+  H338  1  0.77479217  0.89571893  0.34139039  1
  H+  H339  1  0.61891660  0.92597410  0.08009076  1
  H+  H340  1  0.18239304  0.83667070  0.90456685  1
  H+  H341  1  0.84824175  0.97547635  0.82913662  1
  H+  H342  1  0.18104983  0.85735441  0.61086486  1
  H+  H343  1  0.84306640  0.93577685  0.43219394  1
  H+  H344  1  0.18313735  0.08947573  0.93671677  1
  H+  H345  1  0.07808863  0.16585536  0.76764356  1
  H+  H346  1  0.57400940  0.40186700  0.43254095  1
  H+  H347  1  0.15281201  0.06616996  0.22624234  1
  H+  H348  1  0.78408460  0.13894082  0.48703298  1
  H+  H349  1  0.66596559  0.32587895  0.23734545  1
  H+  H350  1  0.11376213  0.48203106  0.82642727  1
  H+  H351  1  0.56065012  0.66088237  0.40366307  1
  H+  H352  1  0.41248134  0.07974748  0.23371292  1
  H+  H353  1  0.91784340  0.07797348  0.89635498  1
  H+  H354  1  0.61124782  0.18128034  0.75295558  1
  H+  H355  1  0.17611357  0.60949767  0.92905244  1
  H+  H356  1  0.41675396  0.33135099  0.26902087  1
  H+  H357  1  0.32881235  0.66472483  0.39575824  1
  H+  H358  1  0.08667929  0.39203769  0.41823574  1
  H+  H359  1  0.41095625  0.83181469  0.23136091  1
  H+  H360  1  0.91133242  0.58103906  0.22978916  1
  H+  H361  1  0.67731260  0.60887563  0.22581556  1
  H+  H362  1  0.91751206  0.08096100  0.26446929  1
  H+  H363  1  0.97261158  0.36592568  0.52120268  1
  H+  H364  1  0.51401366  0.13671777  0.51437952  1
  H+  H365  1  0.47212863  0.35698193  0.51507337  1
  H+  H366  1  0.56877899  0.40762594  0.74642305  1
  H+  H367  1  0.91903677  0.31227532  0.18436865  1
  H+  H368  1  0.58656657  0.65653727  0.73389272  1
  H+  H369  1  0.91561164  0.32905399  0.60058088  1
  H+  H370  1  0.90337133  0.34851618  0.27205118  1
  H+  H371  1  0.83464339  0.15949606  0.76164919  1
  H+  H372  1  0.83972099  0.17151284  0.39387283  1
  H+  H373  1  0.33450733  0.17578668  0.42953476  1
  H+  H374  1  0.82613886  0.40237736  0.72812331  1
  H+  H375  1  0.81661752  0.41784603  0.10153743  1
  H+  H376  1  0.64216979  0.84812826  1.00269842  1
  H+  H377  1  0.58301402  0.15236441  0.39886708  1
  H+  H378  1  0.62979842  0.13873760  0.66213091  1
  H+  H379  1  0.08275024  0.67349962  0.06769491  1
  H+  H380  1  0.65136713  0.56855475  0.91005089  1
  H+  H381  1  0.66945601  0.82541132  0.60250805  1
  H+  H382  1  0.09552465  0.41438861  0.09576268  1
  H+  H383  1  0.09989306  0.11456627  0.14860154  1
  O2-  O384  1  0.07255087  0.14660949  0.13219988  1
  O2-  O385  1  0.08888065  0.17516050  0.47305197  1
  O2-  O386  1  0.07655744  0.17366771  0.81346747  1
  O2-  O387  1  0.10275990  0.42557912  0.14191611  1
  O2-  O388  1  0.07117255  0.41056304  0.53566940  1
  O2-  O389  1  0.08082876  0.42039618  0.81228728  1
  O2-  O390  1  0.08157965  0.66640338  0.14545736  1
  O2-  O391  1  0.06004670  0.60867723  0.48474771  1
  O2-  O392  1  0.09174275  0.67712585  0.81174631  1
  O2-  O393  1  0.03354701  0.88135730  0.14751130  1
  O2-  O394  1  0.09817616  0.94448104  0.47406717  1
  O2-  O395  1  0.09691253  0.90919237  0.82159171  1
  O2-  O396  1  0.32500118  0.16048489  0.14815893  1
  O2-  O397  1  0.33858182  0.17891923  0.47524792  1
  O2-  O398  1  0.35259764  0.14409426  0.80725450  1
  O2-  O399  1  0.33205988  0.42125845  0.14505879  1
  O2-  O400  1  0.39392799  0.46104523  0.47069567  1
  O2-  O401  1  0.32025402  0.43767365  0.81121087  1
  O2-  O402  1  0.33913624  0.67515933  0.13559747  1
  O2-  O403  1  0.34079156  0.66882111  0.46986148  1
  O2-  O404  1  0.33456268  0.69040437  0.78631599  1
  O2-  O405  1  0.33101810  0.91500341  0.14426118  1
  O2-  O406  1  0.32948585  0.91949528  0.47497232  1
  O2-  O407  1  0.34022707  0.93916653  0.81109794  1
  O2-  O408  1  0.58139760  0.16111652  0.15246851  1
  O2-  O409  1  0.57796679  0.16467577  0.52164902  1
  O2-  O410  1  0.60678823  0.17621377  0.79849025  1
  O2-  O411  1  0.57487603  0.41427325  0.16076394  1
  O2-  O412  1  0.58283835  0.40847400  0.47955361  1
  O2-  O413  1  0.57165129  0.39998873  0.80192729  1
  O2-  O414  1  0.58044976  0.66689021  0.14481460  1
  O2-  O415  1  0.53949936  0.61107756  0.48350133  1
  O2-  O416  1  0.59093833  0.66132681  0.81555468  1
  O2-  O417  1  0.58565318  0.91182166  0.15461955  1
  O2-  O418  1  0.58338270  0.90887673  0.52134750  1
  O2-  O419  1  0.57882489  0.93903236  0.79948352  1
  O2-  O420  1  0.81335658  0.12925571  0.13240600  1
  O2-  O421  1  0.84394851  0.17436262  0.47235121  1
  O2-  O422  1  0.83067496  0.15798187  0.80736584  1
  O2-  O423  1  0.82562242  0.41379054  0.14552067  1
  O2-  O424  1  0.82288432  0.40615177  0.48284054  1
  O2-  O425  1  0.82627089  0.38799466  0.80551734  1
  O2-  O426  1  0.84134702  0.67922438  0.14753057  1
  O2-  O427  1  0.80475883  0.62707518  0.47746173  1
  O2-  O428  1  0.83249098  0.68067164  0.82226791  1
  O2-  O429  1  0.83786551  0.90012061  0.15131151  1
  O2-  O430  1  0.84716083  0.94256027  0.47784282  1
  O2-  O431  1  0.80918626  0.91468801  0.81514008  1
  O2-  O432  1  0.14679254  0.05575723  0.18151882  1
  O2-  O433  1  0.18024860  0.10269096  0.51671230  1
  O2-  O434  1  0.18879068  0.07314835  0.85390949  1
  O2-  O435  1  0.18141521  0.35300665  0.18877759  1
  O2-  O436  1  0.16963163  0.33490232  0.52120548  1
  O2-  O437  1  0.15759158  0.32308345  0.85317612  1
  O2-  O438  1  0.17676358  0.59274557  0.17734545  1
  O2-  O439  1  0.18992588  0.58234144  0.53895880  1
  O2-  O440  1  0.16977920  0.58832076  0.84449552  1
  O2-  O441  1  0.15724068  0.83400832  0.17787854  1
  O2-  O442  1  0.17847702  0.86533247  0.52803969  1
  O2-  O443  1  0.18495182  0.83819008  0.85839741  1
  O2-  O444  1  0.41172943  0.07917093  0.18838443  1
  O2-  O445  1  0.40668828  0.08855503  0.51627679  1
  O2-  O446  1  0.41081397  0.10837141  0.80622839  1
  O2-  O447  1  0.41199627  0.33111565  0.19488807  1
  O2-  O448  1  0.41160941  0.33562038  0.52549163  1
  O2-  O449  1  0.42221372  0.30033735  0.85977219  1
  O2-  O450  1  0.41604529  0.58662753  0.18318904  1
  O2-  O451  1  0.32638500  0.47378277  0.49831152  1
  O2-  O452  1  0.41730286  0.61639598  0.84040681  1
  O2-  O453  1  0.41607307  0.83427779  0.18605999  1
  O2-  O454  1  0.40363392  0.83066518  0.52524567  1
  O2-  O455  1  0.42114460  0.85336982  0.84291560  1
  O2-  O456  1  0.66536046  0.07566679  0.18782743  1
  O2-  O457  1  0.67612383  0.07996318  0.51603822  1
  O2-  O458  1  0.66761847  0.09436172  0.84230879  1
  O2-  O459  1  0.66617652  0.32836843  0.19217327  1
  O2-  O460  1  0.66667244  0.33712005  0.52047957  1
  O2-  O461  1  0.66168447  0.32916446  0.84614138  1
  O2-  O462  1  0.67433305  0.59568915  0.18217746  1
  O2-  O463  1  0.64618567  0.55534531  0.52101714  1
  O2-  O464  1  0.65805123  0.58029330  0.86470807  1
  O2-  O465  1  0.66838427  0.82635513  0.19293647  1
  O2-  O466  1  0.68043976  0.83375502  0.52185020  1
  O2-  O467  1  0.64239832  0.84804646  0.85589320  1
  O2-  O468  1  0.91006014  0.06486529  0.18836657  1
  O2-  O469  1  0.93002492  0.10259061  0.52284478  1
  O2-  O470  1  0.91768964  0.08102079  0.85003499  1
  O2-  O471  1  0.93940604  0.37300650  0.18990519  1
  O2-  O472  1  0.90707290  0.33272055  0.52367645  1
  O2-  O473  1  0.91630320  0.32120456  0.84851412  1
  O2-  O474  1  0.91445301  0.58214039  0.18455426  1
  O2-  O475  1  0.89577875  0.56301441  0.52838472  1
  O2-  O476  1  0.93186884  0.62557476  0.86424128  1
  O2-  O477  1  0.95237204  0.84509902  0.18151345  1
  O2-  O478  1  0.97726289  0.94909710  0.54584733  1
  O2-  O479  1  0.93660322  0.85122837  0.84355986  1
  O2-  O480  1  0.16911871  0.08555008  0.30626208  1
  O2-  O481  1  0.17196619  0.06730450  0.63902043  1
  O2-  O482  1  0.18002379  0.09515237  0.98116744  1
  O2-  O483  1  0.17422074  0.33481890  0.30470837  1
  O2-  O484  1  0.16955623  0.35682196  0.64641209  1
  O2-  O485  1  0.16733320  0.32070577  0.97047669  1
  O2-  O486  1  0.16772461  0.58523189  0.29982756  1
  O2-  O487  1  0.18046547  0.60140360  0.65983665  1
  O2-  O488  1  0.17921720  0.61548804  0.97378256  1
  O2-  O489  1  0.16871646  0.84616748  0.29957896  1
  O2-  O490  1  0.18516027  0.85167579  0.65514380  1
  O2-  O491  1  0.17601253  0.84123790  0.97802708  1
  O2-  O492  1  0.41150597  0.08084814  0.31396153  1
  O2-  O493  1  0.43646205  0.09287702  0.68530454  1
  O2-  O494  1  0.41828133  0.08556144  0.98472169  1
  O2-  O495  1  0.41715857  0.33015781  0.31536385  1
  O2-  O496  1  0.40903573  0.33340765  0.65092106  1
  O2-  O497  1  0.42882513  0.34362715  0.98712972  1
  O2-  O498  1  0.41586073  0.58791348  0.30709799  1
  O2-  O499  1  0.39921740  0.55167838  0.60301034  1
  O2-  O500  1  0.41230925  0.56116283  0.97023953  1
  O2-  O501  1  0.40664965  0.82985532  0.31097770  1
  O2-  O502  1  0.41265452  0.82618421  0.65188106  1
  O2-  O503  1  0.41290718  0.83493826  0.97340481  1
  O2-  O504  1  0.66874672  0.08269771  0.31243419  1
  O2-  O505  1  0.67922147  0.08712114  0.63827789  1
  O2-  O506  1  0.66551444  0.07767299  0.97401502  1
  O2-  O507  1  0.66667297  0.32367141  0.31863691  1
  O2-  O508  1  0.67946244  0.33340186  0.63905534  1
  O2-  O509  1  0.64272563  0.36077258  0.96480909  1
  O2-  O510  1  0.65907150  0.60976704  0.30940914  1
  O2-  O511  1  0.66445180  0.57553908  0.65241239  1
  O2-  O512  1  0.64495196  0.55905267  0.98467981  1
  O2-  O513  1  0.66497353  0.83845146  0.31518164  1
  O2-  O514  1  0.66491425  0.82891756  0.64732579  1
  O2-  O515  1  0.65856237  0.81021072  0.98007678  1
  O2-  O516  1  0.92097857  0.08703213  0.30997918  1
  O2-  O517  1  0.92724644  0.08484473  0.64451208  1
  O2-  O518  1  0.92157161  0.07276507  0.96993880  1
  O2-  O519  1  0.90705700  0.34053707  0.31617647  1
  O2-  O520  1  0.92012567  0.33083693  0.64625430  1
  O2-  O521  1  0.91808421  0.30317074  0.97104893  1
  O2-  O522  1  0.91122065  0.58298814  0.30963713  1
  O2-  O523  1  0.91078121  0.57395342  0.65259008  1
  O2-  O524  1  0.91253373  0.61341168  0.98875038  1
  O2-  O525  1  0.92259069  0.83999360  0.32925413  1
  O2-  O526  1  0.91023427  0.84047537  0.63162721  1
  O2-  O527  1  0.93585032  0.86608963  0.97471893  1
  O2-  O528  1  0.07917704  0.15950133  0.01373523  1
  O2-  O529  1  0.08884570  0.17292830  0.34717000  1
  O2-  O530  1  0.07717069  0.14093457  0.69626313  1
  O2-  O531  1  0.08617102  0.39929380  0.02541090  1
  O2-  O532  1  0.07146514  0.40995939  0.30312553  1
  O2-  O533  1  0.08610787  0.43253293  0.68781586  1
  O2-  O534  1  0.08229856  0.67812032  0.02227927  1
  O2-  O535  1  0.07933644  0.67267820  0.32790976  1
  O2-  O536  1  0.08715000  0.67740629  0.68901881  1
  O2-  O537  1  0.10448520  0.93839340  0.01994477  1
  O2-  O538  1  0.08714877  0.92575422  0.35379230  1
  O2-  O539  1  0.06028544  0.91796073  0.70674932  1
  O2-  O540  1  0.34391464  0.17981512  0.02530242  1
  O2-  O541  1  0.32984074  0.16703640  0.35233335  1
  O2-  O542  1  0.33436605  0.16563994  0.68577983  1
  O2-  O543  1  0.32495089  0.40798146  0.02156989  1
  O2-  O544  1  0.33886339  0.42157233  0.34928180  1
  O2-  O545  1  0.33303585  0.42370661  0.69109304  1
  O2-  O546  1  0.32717787  0.68606119  0.01627726  1
  O2-  O547  1  0.32591509  0.66540302  0.34968064  1
  O2-  O548  1  0.33496359  0.67590274  0.72006569  1
  O2-  O549  1  0.33904647  0.92146013  0.01889533  1
  O2-  O550  1  0.32613694  0.91441405  0.35260379  1
  O2-  O551  1  0.34392429  0.92396601  0.69066064  1
  O2-  O552  1  0.59325407  0.16109921  0.02752786  1
  O2-  O553  1  0.58324955  0.15627404  0.35468687  1
  O2-  O554  1  0.60372100  0.17491738  0.67484591  1
  O2-  O555  1  0.60573664  0.46966450  0.00797929  1
  O2-  O556  1  0.56459731  0.38935864  0.36465551  1
  O2-  O557  1  0.56881358  0.41546673  0.69273955  1
  O2-  O558  1  0.57069028  0.64648675  0.02422574  1
  O2-  O559  1  0.56953095  0.67453515  0.35986421  1
  O2-  O560  1  0.59021823  0.65796287  0.68887450  1
  O2-  O561  1  0.65004779  0.93556784  0.04072845  1
  O2-  O562  1  0.57879579  0.91452682  0.35018590  1
  O2-  O563  1  0.58757787  0.92074260  0.67608886  1
  O2-  O564  1  0.83115330  0.14367754  0.00925001  1
  O2-  O565  1  0.83454183  0.16982984  0.34847815  1
  O2-  O566  1  0.83985415  0.16496161  0.68423716  1
  O2-  O567  1  0.80048266  0.43657838  0.02180743  1
  O2-  O568  1  0.83098677  0.42242432  0.36256596  1
  O2-  O569  1  0.82749201  0.40979758  0.68295943  1
  O2-  O570  1  0.80484517  0.67176507  0.02969412  1
  O2-  O571  1  0.82288769  0.65754493  0.35216687  1
  O2-  O572  1  0.82512836  0.65405186  0.69834883  1
  O2-  O573  1  0.80663487  0.93195480  0.03474474  1
  O2-  O574  1  0.83453172  0.92597502  0.35730363  1
  O2-  O575  1  0.83093028  0.91802944  0.68593818  1
