# generated using pymatgen
data_H2O
_symmetry_space_group_name_H-M   'P 1'
_cell_length_a   17.95876049
_cell_length_b   17.96722662
_cell_length_c   21.98305881
_cell_angle_alpha   89.96772959
_cell_angle_beta   90.04123850
_cell_angle_gamma   119.92602182
_symmetry_Int_Tables_number   1
_chemical_formula_structural   H2O
_chemical_formula_sum   'H384 O192'
_cell_volume   6147.51074817
_cell_formula_units_Z   192
loop_
 _symmetry_equiv_pos_site_id
 _symmetry_equiv_pos_as_xyz
  1  'x, y, z'
loop_
 _atom_type_symbol
 _atom_type_oxidation_number
  H+  1.0
  O2-  -2.0
loop_
 _atom_site_type_symbol
 _atom_site_label
 _atom_site_symmetry_multiplicity
 _atom_site_fract_x
 _atom_site_fract_y
 _atom_site_fract_z
 _atom_site_occupancy
  H+  H0  1  0.60909659  0.22530237  0.82929486  1
  H+  H1  1  0.87626610  0.57427341  0.11088062  1
  H+  H2  1  0.26093724  0.37832099  0.66777913  1
  H+  H3  1  0.47604936  0.85513799  0.86508239  1
  H+  H4  1  0.38202012  0.61922266  0.86534880  1
  H+  H5  1  0.37222096  0.35846175  0.83885301  1
  H+  H6  1  0.94240519  0.09868913  0.26550204  1
  H+  H7  1  0.47426120  0.61602370  0.86751453  1
  H+  H8  1  0.96335989  0.35299773  0.99983591  1
  H+  H9  1  0.86287025  0.12847960  0.50644396  1
  H+  H10  1  0.83004881  0.23428642  0.52451642  1
  H+  H11  1  0.83047278  0.17060543  0.77125837  1
  H+  H12  1  0.35744033  0.74749632  -0.00353079  1
  H+  H13  1  0.38888844  0.62929030  0.48157441  1
  H+  H14  1  0.22094692  0.40668009  0.14241771  1
  H+  H15  1  0.12812375  0.26539691  1.00620685  1
  H+  H16  1  0.15582220  0.76079498  1.00712237  1
  H+  H17  1  0.76572168  0.11234595  0.34990521  1
  H+  H18  1  0.98393174  0.11540914  0.51485633  1
  H+  H19  1  0.69163220  0.59015715  0.84293170  1
  H+  H20  1  0.60674874  0.35014809  0.18831897  1
  H+  H21  1  0.46895237  0.11240773  0.50877024  1
  H+  H22  1  0.88026091  0.36540792  -0.00484278  1
  H+  H23  1  0.07244463  0.12469239  0.74632357  1
  H+  H24  1  0.09770873  0.10468126  0.83654144  1
  H+  H25  1  0.65494269  0.89083571  0.69817523  1
  H+  H26  1  0.13047374  0.52098156  0.32763553  1
  H+  H27  1  0.21131145  0.87003595  0.33518591  1
  H+  H28  1  0.94259673  0.14164864  0.32730685  1
  H+  H29  1  0.88332302  0.77381103  0.32245617  1
  H+  H30  1  0.78502905  0.36900395  0.16595493  1
  H+  H31  1  0.38149431  0.53127878  0.15429927  1
  H+  H32  1  0.37812220  0.98750073  0.67857057  1
  H+  H33  1  0.03259226  0.63881716  0.34157333  1
  H+  H34  1  -0.01325741  0.88722403  0.16763026  1
  H+  H35  1  0.39390438  1.04454816  -0.01024447  1
  H+  H36  1  0.86301177  1.03295511  0.84129592  1
  H+  H37  1  0.31468414  0.92000994  0.40282953  1
  H+  H38  1  0.82958647  0.39877450  0.10080424  1
  H+  H39  1  0.87812934  0.63420613  0.33484957  1
  H+  H40  1  0.88581634  0.26925124  0.67115129  1
  H+  H41  1  0.46854952  0.89161657  0.15618775  1
  H+  H42  1  0.66461171  1.02998688  0.68757612  1
  H+  H43  1  0.60657050  0.47540783  0.17679752  1
  H+  H44  1  0.62089262  0.21523644  0.16920506  1
  H+  H45  1  0.11112855  0.97947868  0.50115696  1
  H+  H46  1  0.12171589  0.76284205  0.17921247  1
  H+  H47  1  0.21945822  0.10737087  0.16840207  1
  H+  H48  1  0.39644506  0.03685158  0.84261259  1
  H+  H49  1  0.35335153  0.23735002  0.01610939  1
  H+  H50  1  0.27470274  0.14426921  0.01554908  1
  H+  H51  1  0.88329023  0.87073171  0.51090502  1
  H+  H52  1  0.92085073  0.61043076  0.10440571  1
  H+  H53  1  0.59249211  0.87065044  0.99413783  1
  H+  H54  1  0.60323930  -0.03223349  0.48553055  1
  H+  H55  1  0.25184655  0.87614980  0.66796078  1
  H+  H56  1  0.60784322  0.36549377  0.34311031  1
  H+  H57  1  0.61290130  0.16194210  0.10975889  1
  H+  H58  1  0.03516916  0.39349678  0.34334118  1
  H+  H59  1  0.11565113  1.02725662  0.34798705  1
  H+  H60  1  0.60330840  0.63278875  0.18043057  1
  H+  H61  1  0.65299511  0.57871355  0.25312479  1
  H+  H62  1  0.58557357  0.41971196  0.11373295  1
  H+  H63  1  0.93678996  0.33871552  0.27862563  1
  H+  H64  1  0.62661496  0.75607758  0.66616060  1
  H+  H65  1  0.59403638  0.96089432  -0.01201797  1
  H+  H66  1  0.13458654  0.62297231  0.32615263  1
  H+  H67  1  0.37039355  0.74084268  0.49030136  1
  H+  H68  1  0.40706807  0.58022957  0.25686291  1
  H+  H69  1  0.36656816  0.53563943  1.01836937  1
  H+  H70  1  0.89971428  0.26700940  0.33133231  1
  H+  H71  1  0.44511489  0.79551294  0.16382330  1
  H+  H72  1  0.45969013  0.62307135  1.01636912  1
  H+  H73  1  0.82588349  0.74809556  0.65346183  1
  H+  H74  1  0.50510514  0.37705237  0.83411312  1
  H+  H75  1  0.61344666  0.21202433  0.34526972  1
  H+  H76  1  0.34246256  0.97731874  0.34261077  1
  H+  H77  1  0.35944752  0.38688607  0.32847434  1
  H+  H78  1  0.18145172  0.54193934  0.17856597  1
  H+  H79  1  0.52599163  0.88550779  0.32948740  1
  H+  H80  1  0.89399318  0.02650446  0.51704698  1
  H+  H81  1  0.85720035  0.14444866  0.83338797  1
  H+  H82  1  0.27600383  0.62673533  0.84823570  1
  H+  H83  1  0.86671709  0.62521752  0.65923617  1
  H+  H84  1  0.62419759  0.10820121  0.83517754  1
  H+  H85  1  0.14271450  0.87326842  0.51321613  1
  H+  H86  1  0.39977275  0.86616356  0.66381944  1
  H+  H87  1  0.38201101  0.27486292  0.65684889  1
  H+  H88  1  0.38468726  0.11814960  0.32634458  1
  H+  H89  1  0.89593724  0.51224536  0.34259270  1
  H+  H90  1  0.07851492  0.40904396  0.72656860  1
  H+  H91  1  0.81133922  0.58840278  0.81835121  1
  H+  H92  1  0.12757899  0.34295719  0.84337436  1
  H+  H93  1  0.59760096  0.21750893  0.49510707  1
  H+  H94  1  0.61165652  0.38733665  0.02127056  1
  H+  H95  1  0.17228791  0.37004802  0.25151266  1
  H+  H96  1  0.83042341  0.93381473  0.76825470  1
  H+  H97  1  0.41019128  0.59180647  0.93380028  1
  H+  H98  1  0.85265199  0.37702808  0.82573315  1
  H+  H99  1  0.11760355  0.73476414  0.33911466  1
  H+  H100  1  0.84696621  0.48949340  0.84096913  1
  H+  H101  1  0.51589488  0.39216427  0.49047774  1
  H+  H102  1  0.05834960  0.11946234  0.33584254  1
  H+  H103  1  0.11225630  0.62956819  0.49289739  1
  H+  H104  1  0.92698074  0.37283561  0.17980456  1
  H+  H105  1  0.26378872  0.63769386  0.18240635  1
  H+  H106  1  0.10888229  0.45808971  0.82272387  1
  H+  H107  1  0.14101184  0.62054265  0.66167378  1
  H+  H108  1  0.59122046  0.62193301  0.84388786  1
  H+  H109  1  0.10506514  0.41446816  0.10550482  1
  H+  H110  1  0.07381777  0.92289792  0.08295158  1
  H+  H111  1  0.84803867  0.13842180  0.00323694  1
  H+  H112  1  0.87101275  0.65245391  0.48413383  1
  H+  H113  1  0.50080039  0.53317958  0.59029309  1
  H+  H114  1  0.38175843  0.11639888  0.50996839  1
  H+  H115  1  0.47640592  0.86079576  -0.03770702  1
  H+  H116  1  0.39865315  0.33473286  0.90290578  1
  H+  H117  1  0.12263693  0.22626088  0.49383652  1
  H+  H118  1  0.70979094  0.09538055  0.50485265  1
  H+  H119  1  0.35511710  0.22777059  0.33538763  1
  H+  H120  1  0.23809006  0.36304112  0.49701753  1
  H+  H121  1  0.37358606  0.65674084  0.33161523  1
  H+  H122  1  0.92258806  0.58711845  0.84800205  1
  H+  H123  1  -0.07264104  0.60671566  -0.00788789  1
  H+  H124  1  0.82999996  0.15028323  0.44480318  1
  H+  H125  1  0.85002394  0.79151036  0.17829013  1
  H+  H126  1  0.36375734  0.23282122  0.82873498  1
  H+  H127  1  0.38877915  0.77397077  0.66551053  1
  H+  H128  1  0.04956895  0.62215835  0.16880243  1
  H+  H129  1  0.03130361  0.13129256  0.67965956  1
  H+  H130  1  0.51650573  0.87777363  0.48977532  1
  H+  H131  1  0.67755377  0.99221859  0.17057527  1
  H+  H132  1  0.91219552  0.50020545  0.18072061  1
  H+  H133  1  0.34378275  0.88954254  0.16649838  1
  H+  H134  1  0.96585596  0.86620376  0.32966633  1
  H+  H135  1  0.78056675  0.64822564  0.46910148  1
  H+  H136  1  0.97180689  0.36089859  0.66001621  1
  H+  H137  1  0.46990703  0.37379050  0.16777640  1
  H+  H138  1  0.59816665  -0.03240355  0.84045086  1
  H+  H139  1  0.81879905  0.67836369  0.81105660  1
  H+  H140  1  0.85888292  0.90939523  1.01309792  1
  H+  H141  1  0.81771221  0.62497904  0.02448892  1
  H+  H142  1  0.77638256  0.89988962  0.49955798  1
  H+  H143  1  0.35079471  0.63070536  0.69729978  1
  H+  H144  1  0.87083838  0.02896338  0.99600050  1
  H+  H145  1  0.36415948  0.22513728  0.16350062  1
  H+  H146  1  0.37917801  0.65327884  0.15506622  1
  H+  H147  1  1.02237014  0.14455128  0.15586577  1
  H+  H148  1  0.59786236  0.81550442  0.31367204  1
  H+  H149  1  0.98002230  0.59198100  0.63658994  1
  H+  H150  1  0.22763278  0.37772399  0.31100827  1
  H+  H151  1  0.99777866  0.98272369  0.83743925  1
  H+  H152  1  0.17288504  0.08925337  0.60588414  1
  H+  H153  1  0.47915209  0.11721319  0.66244825  1
  H+  H154  1  -0.01419122  0.90410963  0.00406380  1
  H+  H155  1  0.15680678  0.53397557  0.50648900  1
  H+  H156  1  0.73397762  0.35277878  0.33781294  1
  H+  H157  1  0.10747741  0.13721087  0.15288573  1
  H+  H158  1  0.84580541  0.22457192  0.99620228  1
  H+  H159  1  0.70625118  0.61716405  0.19109367  1
  H+  H160  1  0.15083286  0.36401948  0.49738716  1
  H+  H161  1  0.83896155  0.76542986  0.86624115  1
  H+  H162  1  0.15490845  0.90201134  0.84081173  1
  H+  H163  1  0.62296309  0.09950379  0.50103352  1
  H+  H164  1  0.05221420  0.40273303  0.48505063  1
  H+  H165  1  0.60161498  0.47095614  1.02186477  1
  H+  H166  1  0.71011771  0.85746683  0.84281612  1
  H+  H167  1  0.51972534  0.12797947  0.34145998  1
  H+  H168  1  0.71381186  0.10793415  0.83543350  1
  H+  H169  1  0.60414344  0.50430976  0.84881195  1
  H+  H170  1  0.67720651  0.11866311  0.18704128  1
  H+  H171  1  0.36520826  0.48457371  0.47457182  1
  H+  H172  1  0.09023302  0.44783192  1.01489630  1
  H+  H173  1  0.62492204  0.76361735  0.85092117  1
  H+  H174  1  0.77940462  0.13774998  0.68165936  1
  H+  H175  1  0.75977001  0.37674504  0.01066218  1
  H+  H176  1  0.09899478  0.36371153  0.01708172  1
  H+  H177  1  0.60026510  0.87866196  0.84858538  1
  H+  H178  1  0.60745278  0.89609881  0.15876422  1
  H+  H179  1  0.81696057  0.34372678  0.51201614  1
  H+  H180  1  0.93239441  0.55799887  0.27900792  1
  H+  H181  1  0.72332102  0.81012373  0.64746990  1
  H+  H182  1  0.47009684  0.36313272  0.65855403  1
  H+  H183  1  0.23888642  0.13186622  0.84773470  1
  H+  H184  1  0.64470857  0.50488784  0.33562148  1
  H+  H185  1  0.61627436  0.35585183  0.50705962  1
  H+  H186  1  0.11935043  0.58827589  0.99694655  1
  H+  H187  1  0.55682520  0.26427139  0.22421771  1
  H+  H188  1  0.15400788  0.60509287  0.83796720  1
  H+  H189  1  1.00272483  0.10068837  0.83223720  1
  H+  H190  1  0.22625977  0.61660722  0.66955683  1
  H+  H191  1  0.71662480  0.35373158  0.65897713  1
  H+  H192  1  0.28245893  0.65098785  0.48830328  1
  H+  H193  1  0.06921342  0.16032925  0.06647760  1
  H+  H194  1  0.47108322  0.35649048  0.31771616  1
  H+  H195  1  0.38509614  0.86732978  0.50884170  1
  H+  H196  1  0.49280046  0.11601140  0.17419148  1
  H+  H197  1  1.02066313  0.89227009  0.50449204  1
  H+  H198  1  0.60714245  0.46404954  0.66993352  1
  H+  H199  1  0.73314373  0.63001334  0.02201797  1
  H+  H200  1  0.96537141  0.76977151  0.96245604  1
  H+  H201  1  0.87640875  0.75686158  0.86626208  1
  H+  H202  1  0.18535451  0.86235998  0.17289741  1
  H+  H203  1  0.51809216  0.13964197  0.82844325  1
  H+  H204  1  0.36444875  0.14354748  0.82629531  1
  H+  H205  1  0.87639773  0.88464591  0.68316315  1
  H+  H206  1  0.63710023  0.13640087  0.00998023  1
  H+  H207  1  0.50126771  0.62023235  0.69210392  1
  H+  H208  1  0.60684702  0.47814172  0.47343730  1
  H+  H209  1  0.81974472  0.12748583  0.19301769  1
  H+  H210  1  0.10199658  0.13475600  1.00622760  1
  H+  H211  1  0.84352142  0.46786948  1.01532071  1
  H+  H212  1  0.87255450  0.14136973  0.68248395  1
  H+  H213  1  0.16207719  0.87764129  0.66994773  1
  H+  H214  1  0.97179510  0.43453985  0.51554869  1
  H+  H215  1  0.61164404  0.21812083  0.67416772  1
  H+  H216  1  0.40188375  0.99036540  0.16045879  1
  H+  H217  1  0.71515862  0.09848880  0.98407345  1
  H+  H218  1  0.52681563  0.57327888  0.57191419  1
  H+  H219  1  0.87005670  0.03985729  0.17317334  1
  H+  H220  1  0.09939468  0.89074079  0.34689281  1
  H+  H221  1  0.37994389  0.36988633  0.15596702  1
  H+  H222  1  0.30149550  0.90207656  0.84099408  1
  H+  H223  1  0.91523402  0.03296860  0.66945212  1
  H+  H224  1  -0.01441097  0.70012473  0.79129757  1
  H+  H225  1  0.39315850  0.13196837  -0.01021507  1
  H+  H226  1  1.02454981  0.39407563  0.18789625  1
  H+  H227  1  0.36473014  0.50403544  0.67942938  1
  H+  H228  1  0.63449963  0.86961894  0.50657549  1
  H+  H229  1  0.85586005  0.37496869  0.67528700  1
  H+  H230  1  0.12616356  0.02471364  0.17239919  1
  H+  H231  1  0.66820040  0.58522154  0.41210990  1
  H+  H232  1  0.01587075  0.37521679  0.82210981  1
  H+  H233  1  0.36033445  0.23231500  0.49289514  1
  H+  H234  1  0.40194794  0.79268130  0.31010149  1
  H+  H235  1  0.88726824  0.54360432  0.47413890  1
  H+  H236  1  0.14218928  0.03458137  1.00586376  1
  H+  H237  1  0.09384222  0.15356438  0.44233077  1
  H+  H238  1  0.35352056  0.38145351  0.66926975  1
  H+  H239  1  0.64505186  0.27214854  0.99992072  1
  H+  H240  1  0.10933334  0.47491236  0.67047145  1
  H+  H241  1  0.71344814  0.35726357  0.84099146  1
  H+  H242  1  0.71493175  0.86175206  1.00385616  1
  H+  H243  1  0.14141893  0.11501501  0.51619791  1
  H+  H244  1  0.41995582  0.10038878  0.90042205  1
  H+  H245  1  0.17479926  0.09101830  0.94404074  1
  H+  H246  1  0.23007627  0.11464197  0.51240606  1
  H+  H247  1  0.62627009  0.74302488  0.49120926  1
  H+  H248  1  -0.01135179  0.45789271  0.54516910  1
  H+  H249  1  0.38790286  0.90150114  0.84118078  1
  H+  H250  1  1.07246260  0.91616304  0.83702440  1
  H+  H251  1  0.59946982  0.72650019  0.01779829  1
  H+  H252  1  0.27712810  0.91991104  1.02327108  1
  H+  H253  1  0.12454053  0.12395156  0.67976656  1
  H+  H254  1  0.13503630  0.98228649  0.68161781  1
  H+  H255  1  0.34088910  0.36756028  1.00885903  1
  H+  H256  1  0.40308773  0.11857512  0.17084843  1
  H+  H257  1  0.34314378  0.65563812  1.01391331  1
  H+  H258  1  0.23628614  0.12357097  0.66497297  1
  H+  H259  1  0.87692567  0.27295194  0.84043231  1
  H+  H260  1  0.83649890  0.44123860  0.51750926  1
  H+  H261  1  0.98232526  0.49664864  0.21636261  1
  H+  H262  1  0.83886107  0.66273251  0.17028114  1
  H+  H263  1  0.11584941  0.89813559  0.02786717  1
  H+  H264  1  0.89287105  0.99715314  0.34752059  1
  H+  H265  1  0.96401407  0.11446308  0.99430685  1
  H+  H266  1  0.97706669  0.73580222  -0.04527451  1
  H+  H267  1  0.72868813  0.59024918  0.64022771  1
  H+  H268  1  0.70190368  0.34967576  0.50873224  1
  H+  H269  1  0.13599295  0.36239223  0.65113841  1
  H+  H270  1  0.06614712  0.86892591  0.17247398  1
  H+  H271  1  0.75166764  0.93237921  0.15308374  1
  H+  H272  1  0.95912142  0.67893906  0.76317883  1
  H+  H273  1  0.14331151  0.75728650  0.67783665  1
  H+  H274  1  0.38483880  0.37059650  0.50070411  1
  H+  H275  1  0.57328374  0.67015796  0.07869584  1
  H+  H276  1  0.27319243  0.89106178  0.49816955  1
  H+  H277  1  0.73669745  0.59555285  0.33274177  1
  H+  H278  1  0.53931610  0.65786084  0.47198063  1
  H+  H279  1  0.17890883  0.78858973  0.84858995  1
  H+  H280  1  0.62406334  0.35772809  0.84491415  1
  H+  H281  1  0.07696464  0.66520556  0.82809093  1
  H+  H282  1  0.22455257  0.68791374  0.03907860  1
  H+  H283  1  0.88438411  0.78243515  0.50585492  1
  H+  H284  1  0.36188746  0.97918558  0.49623575  1
  H+  H285  1  0.60423301  0.60434394  1.00441526  1
  H+  H286  1  0.16584704  1.03648355  0.85246636  1
  H+  H287  1  0.26022818  0.36617267  0.82841330  1
  H+  H288  1  0.17149596  0.33495653  0.59373874  1
  H+  H289  1  0.66891940  0.32300806  0.27983600  1
  H+  H290  1  0.86961718  0.37633226  0.35555169  1
  H+  H291  1  0.66355133  0.83852837  0.56718764  1
  H+  H292  1  0.34115494  0.16897351  0.10434406  1
  H+  H293  1  0.92811744  0.88221130  0.83898358  1
  H+  H294  1  0.14644263  0.64702686  0.17404828  1
  H+  H295  1  0.65083507  0.32332838  0.60222014  1
  H+  H296  1  0.63539533  0.00582583  0.33388220  1
  H+  H297  1  0.63380295  0.09606660  0.33803598  1
  H+  H298  1  0.53077117  0.67001566  0.31332772  1
  H+  H299  1  0.90543403  0.08673373  0.90347263  1
  H+  H300  1  0.95954909  0.94674263  0.72160288  1
  H+  H301  1  0.58017717  0.16212286  0.73492322  1
  H+  H302  1  0.34672172  0.69178276  0.38798781  1
  H+  H303  1  0.61288395  0.76790225  0.25627471  1
  H+  H304  1  0.56882467  0.39606862  0.39610594  1
  H+  H305  1  0.69229635  0.08468567  0.25008411  1
  H+  H306  1  0.71216283  0.20773873  0.04505726  1
  H+  H307  1  0.55817064  0.65322331  0.78683630  1
  H+  H308  1  0.83139535  0.40087910  0.41393156  1
  H+  H309  1  0.43217611  0.59971668  0.53202106  1
  H+  H310  1  0.14797113  0.83442336  0.27597948  1
  H+  H311  1  0.33307023  0.41630007  0.42060744  1
  H+  H312  1  0.35635681  0.93070177  0.73947927  1
  H+  H313  1  0.95064910  0.90991256  0.93994858  1
  H+  H314  1  0.28552041  0.29175056  0.96503758  1
  H+  H315  1  0.41773965  0.08696275  0.26898450  1
  H+  H316  1  0.45296377  0.84971373  0.25232846  1
  H+  H317  1  0.89019441  0.84785456  0.23771290  1
  H+  H318  1  0.81967578  0.93476719  0.07088029  1
  H+  H319  1  0.13028134  0.69132356  0.76754312  1
  H+  H320  1  0.41523988  0.83335944  0.56733370  1
  H+  H321  1  0.74939551  0.94637441  0.77105763  1
  H+  H322  1  0.40974656  0.33587424  0.25911510  1
  H+  H323  1  0.35944909  0.47609140  0.32969396  1
  H+  H324  1  0.34827340  0.69714182  0.10383443  1
  H+  H325  1  0.15000300  0.55628699  0.89920800  1
  H+  H326  1  0.04911786  0.68845932  0.70207754  1
  H+  H327  1  0.06957929  0.91717619  0.40784942  1
  H+  H328  1  0.12901718  0.40397287  0.32916911  1
  H+  H329  1  0.82131473  0.40639849  0.76520361  1
  H+  H330  1  0.86276814  0.55895931  0.93830270  1
  H+  H331  1  0.10978576  0.43246852  0.42612494  1
  H+  H332  1  0.64452422  0.62610177  0.46734064  1
  H+  H333  1  0.26593499  0.14129562  0.34493773  1
  H+  H334  1  0.65283245  0.07272426  0.92578965  1
  H+  H335  1  0.65976522  0.82302023  0.94300314  1
  H+  H336  1  0.86166141  0.89886130  0.34898238  1
  H+  H337  1  0.91741072  0.57277830  0.58136131  1
  H+  H338  1  0.85575885  0.46307623  0.66813649  1
  H+  H339  1  0.85132764  0.67482911  0.38943202  1
  H+  H340  1  0.33745940  0.17531834  0.73308527  1
  H+  H341  1  0.15540926  0.31768212  0.90445178  1
  H+  H342  1  0.12278289  0.93050230  0.74297745  1
  H+  H343  1  0.32695266  0.67089501  0.75202899  1
  H+  H344  1  0.56604516  0.40799994  0.77439408  1
  H+  H345  1  0.82766053  0.90733361  0.16884526  1
  H+  H346  1  0.18618981  0.83239451  0.91317858  1
  H+  H347  1  0.58812174  0.61704342  0.69242808  1
  H+  H348  1  0.21210035  0.36179851  1.01541412  1
  H+  H349  1  0.03808496  0.51396207  0.96239925  1
  H+  H350  1  0.08059143  0.77260864  0.98179223  1
  H+  H351  1  0.36244365  0.72115029  0.85587039  1
  H+  H352  1  0.76915709  0.52512158  0.22278207  1
  H+  H353  1  0.08930049  0.66326463  0.43178249  1
  H+  H354  1  0.35497818  0.93709809  0.06520809  1
  H+  H355  1  0.33050511  0.17075204  0.43472593  1
  H+  H356  1  0.57877050  0.90042342  0.39260885  1
  H+  H357  1  0.84133339  0.93417321  0.44174339  1
  H+  H358  1  0.98386195  0.61471580  0.49176742  1
  H+  H359  1  0.85590696  0.81327398  0.59807130  1
  H+  H360  1  0.81617423  0.63313709  0.71713068  1
  H+  H361  1  0.65836208  0.32827265  0.93941710  1
  H+  H362  1  0.57146925  0.15637017  0.43591084  1
  H+  H363  1  0.79635103  0.67294041  0.10932126  1
  H+  H364  1  0.18006714  0.59175249  0.26770108  1
  H+  H365  1  0.17827446  0.59174738  0.56677809  1
  H+  H366  1  0.86110133  0.29883317  0.58271635  1
  H+  H367  1  0.63562603  0.57357932  0.94550999  1
  H+  H368  1  0.66613347  0.55603750  0.58359981  1
  H+  H369  1  0.61572447  0.91620610  0.75545792  1
  H+  H370  1  0.93376896  0.08984487  0.60851818  1
  H+  H371  1  0.41613014  0.08790896  0.60386976  1
  H+  H372  1  0.18009350  0.84933703  0.57108352  1
  H+  H373  1  0.31511285  0.39259318  0.76649845  1
  H+  H374  1  0.64580081  0.10735487  0.67521156  1
  H+  H375  1  0.39056917  0.57669902  0.62906382  1
  H+  H376  1  0.47298067  0.61494334  0.17113581  1
  H+  H377  1  0.60078403  0.37376083  0.67754965  1
  H+  H378  1  0.91214336  0.33788544  0.89725273  1
  H+  H379  1  0.41126398  0.33953836  0.56249348  1
  H+  H380  1  0.36729142  0.14309603  0.67397275  1
  H+  H381  1  0.74481033  0.47762300  0.22839243  1
  H+  H382  1  0.82793144  0.07832413  0.36584313  1
  H+  H383  1  0.14289837  0.67098439  0.08106135  1
  O2-  O384  1  0.07823317  0.16747357  0.13545449  1
  O2-  O385  1  0.08911000  0.16250104  0.48625645  1
  O2-  O386  1  0.04440013  0.08670459  0.81157391  1
  O2-  O387  1  0.12492317  0.43306899  0.14945467  1
  O2-  O388  1  0.11209684  0.43099782  0.47206604  1
  O2-  O389  1  0.07525661  0.39933750  0.80560925  1
  O2-  O390  1  0.10832184  0.66714874  0.15556280  1
  O2-  O391  1  0.07366529  0.64885530  0.47516104  1
  O2-  O392  1  0.13535996  0.68674120  0.81328520  1
  O2-  O393  1  0.04783462  0.90778975  0.15479302  1
  O2-  O394  1  0.07842360  0.91955272  0.48517748  1
  O2-  O395  1  0.13198869  0.93735540  0.82223595  1
  O2-  O396  1  0.34264779  0.16522158  0.14991784  1
  O2-  O397  1  0.33027808  0.17067163  0.48019783  1
  O2-  O398  1  0.33336076  0.17353610  0.81073607  1
  O2-  O399  1  0.31582239  0.43305267  0.11171989  1
  O2-  O400  1  0.33675052  0.42156964  0.46626816  1
  O2-  O401  1  0.31984690  0.39526805  0.81153207  1
  O2-  O402  1  0.35594720  0.69343668  0.14832885  1
  O2-  O403  1  0.34141949  0.68168991  0.47084145  1
  O2-  O404  1  0.33838256  0.66251638  0.83686399  1
  O2-  O405  1  0.38784618  0.93392635  0.14099416  1
  O2-  O406  1  0.33370748  0.91909968  0.48080850  1
  O2-  O407  1  0.35974574  0.93113400  0.82220518  1
  O2-  O408  1  0.60179599  0.15632940  0.15469961  1
  O2-  O409  1  0.56896162  0.15653415  0.48141109  1
  O2-  O410  1  0.57905276  0.16567560  0.81268864  1
  O2-  O411  1  0.57870091  0.41580825  0.16003731  1
  O2-  O412  1  0.57482954  0.41392450  0.47291505  1
  O2-  O413  1  0.56699377  0.40789350  0.81966788  1
  O2-  O414  1  0.57699360  0.66440605  0.15905071  1
  O2-  O415  1  0.60213656  0.68401747  0.47429918  1
  O2-  O416  1  0.56220523  0.65600069  0.83219953  1
  O2-  O417  1  0.66763049  0.93914293  0.14976776  1
  O2-  O418  1  0.57602471  0.90485635  0.47292876  1
  O2-  O419  1  0.56612859  0.90413524  0.83181558  1
  O2-  O420  1  0.88234984  0.15922921  0.18232443  1
  O2-  O421  1  0.82601704  0.15077415  0.48981637  1
  O2-  O422  1  0.82369542  0.17080080  0.81686022  1
  O2-  O423  1  0.84070500  0.39734476  0.14574195  1
  O2-  O424  1  0.80801903  0.39198430  0.49033213  1
  O2-  O425  1  0.81847214  0.40457611  0.81094988  1
  O2-  O426  1  0.80047607  0.68256555  0.15584650  1
  O2-  O427  1  0.84489564  0.68504095  0.46651005  1
  O2-  O428  1  0.78601689  0.61922868  0.79593176  1
  O2-  O429  1  0.81457569  0.94865500  0.14808780  1
  O2-  O430  1  0.83861679  0.92916543  0.48760092  1
  O2-  O431  1  0.79198452  0.94057492  0.79734406  1
  O2-  O432  1  0.15924119  0.08706566  0.17970707  1
  O2-  O433  1  0.17149585  0.08426217  0.53159435  1
  O2-  O434  1  0.18048738  0.09526403  0.86656403  1
  O2-  O435  1  0.16521609  0.38208654  0.16690657  1
  O2-  O436  1  0.17759498  0.33089163  0.51303347  1
  O2-  O437  1  0.15751100  0.31368007  0.85981644  1
  O2-  O438  1  0.20252575  0.59941115  0.19743401  1
  O2-  O439  1  0.17964964  0.59367710  0.52146877  1
  O2-  O440  1  0.17040948  0.56462228  0.85626508  1
  O2-  O441  1  0.13203135  0.82082850  0.19254270  1
  O2-  O442  1  0.17820311  0.84809784  0.52620869  1
  O2-  O443  1  0.19916266  0.84471604  0.86907456  1
  O2-  O444  1  0.43199025  0.08788825  0.18857500  1
  O2-  O445  1  0.40961285  0.08475550  0.52683196  1
  O2-  O446  1  0.41979983  0.09839948  0.85363839  1
  O2-  O447  1  0.40717905  0.34224919  0.17840127  1
  O2-  O448  1  0.41387360  0.33941935  0.51700276  1
  O2-  O449  1  0.40662434  0.33232796  0.85875229  1
  O2-  O450  1  0.40926641  0.58501031  0.17906319  1
  O2-  O451  1  0.41914279  0.59437140  0.48883031  1
  O2-  O452  1  0.41377192  0.59029752  0.88567803  1
  O2-  O453  1  0.48888124  0.85528217  0.17502972  1
  O2-  O454  1  0.41438354  0.83465711  0.52169019  1
  O2-  O455  1  0.41260975  0.82333701  0.87877324  1
  O2-  O456  1  0.70972036  0.09370533  0.20602290  1
  O2-  O457  1  0.64717659  0.06211685  0.51124378  1
  O2-  O458  1  0.65289921  0.07541836  0.84960622  1
  O2-  O459  1  0.61421194  0.30286115  0.20824969  1
  O2-  O460  1  0.64166274  0.32183945  0.52427853  1
  O2-  O461  1  0.65558586  0.32864176  0.86022110  1
  O2-  O462  1  0.64723501  0.57844279  0.20777899  1
  O2-  O463  1  0.67124292  0.58885635  0.45746149  1
  O2-  O464  1  0.63548716  0.56577587  0.86391407  1
  O2-  O465  1  0.62437544  0.75091204  0.18034559  1
  O2-  O466  1  0.67129041  0.84564460  0.52265680  1
  O2-  O467  1  0.65504447  0.82446986  0.86525519  1
  O2-  O468  1  0.91290925  0.09811371  0.19391572  1
  O2-  O469  1  0.92566390  0.08703010  0.53384980  1
  O2-  O470  1  0.90829142  0.08950876  0.85732489  1
  O2-  O471  1  0.97349612  0.38899540  0.20970832  1
  O2-  O472  1  0.82376365  0.27999091  0.54591803  1
  O2-  O473  1  0.91018664  0.33578980  0.85179057  1
  O2-  O474  1  0.96235394  0.53798050  0.20689776  1
  O2-  O475  1  0.91848896  0.58852202  0.50425230  1
  O2-  O476  1  0.86322841  0.54873228  0.86021846  1
  O2-  O477  1  0.88452262  0.85197433  0.19260258  1
  O2-  O478  1  0.90818948  0.83683197  0.52970327  1
  O2-  O479  1  0.98235248  0.92600261  0.85636692  1
  O2-  O480  1  0.15016087  0.08960311  0.33521465  1
  O2-  O481  1  0.17361412  0.09057432  0.65212305  1
  O2-  O482  1  0.17183737  0.09413164  0.98940881  1
  O2-  O483  1  0.16874848  0.36067998  0.29594600  1
  O2-  O484  1  0.16942079  0.33458064  0.63887635  1
  O2-  O485  1  0.15763059  0.32742874  0.99225696  1
  O2-  O486  1  0.15921716  0.58398629  0.31165938  1
  O2-  O487  1  0.16916304  0.58825707  0.64825053  1
  O2-  O488  1  0.09900944  0.53592056  0.97019111  1
  O2-  O489  1  0.14794378  0.83287166  0.32089382  1
  O2-  O490  1  0.19020405  0.84474147  0.65358242  1
  O2-  O491  1  0.14304764  0.80391120  0.98769550  1
  O2-  O492  1  0.41596759  0.08758078  0.31422777  1
  O2-  O493  1  0.41720835  0.08929429  0.64965532  1
  O2-  O494  1  0.42232471  0.10297837  0.97137693  1
  O2-  O495  1  0.41010058  0.33145246  0.30432527  1
  O2-  O496  1  0.41065359  0.33537650  0.64124327  1
  O2-  O497  1  0.34364546  0.32429002  0.98144798  1
  O2-  O498  1  0.40686453  0.58102091  0.30271500  1
  O2-  O499  1  0.39634215  0.57051170  0.67251711  1
  O2-  O500  1  0.39932561  0.59489940  0.99923735  1
  O2-  O501  1  0.43828180  0.85288734  0.29531288  1
  O2-  O502  1  0.42115456  0.83015691  0.64521816  1
  O2-  O503  1  0.41128798  0.83139207  0.94548004  1
  O2-  O504  1  0.66904789  0.07047467  0.32431449  1
  O2-  O505  1  0.68490906  0.08476809  0.66580149  1
  O2-  O506  1  0.65287402  0.06713049  0.97119539  1
  O2-  O507  1  0.67253128  0.32077821  0.32478151  1
  O2-  O508  1  0.65465196  0.32340091  0.64776471  1
  O2-  O509  1  0.66271658  0.33091013  0.98483482  1
  O2-  O510  1  0.67285251  0.56850263  0.33105799  1
  O2-  O511  1  0.66683010  0.56112701  0.62780534  1
  O2-  O512  1  0.63521115  0.57401271  0.99062390  1
  O2-  O513  1  0.60254180  0.76508765  0.30120100  1
  O2-  O514  1  0.66972784  0.81283517  0.64982191  1
  O2-  O515  1  0.65490546  0.82377616  0.98815770  1
  O2-  O516  1  0.95845908  0.10152390  0.30981226  1
  O2-  O517  1  0.93856215  0.09272446  0.65462099  1
  O2-  O518  1  0.90390104  0.08824702  0.97794021  1
  O2-  O519  1  0.92695578  0.32890498  0.32351885  1
  O2-  O520  1  0.90823665  0.32827134  0.65278850  1
  O2-  O521  1  0.91063330  0.33764698  0.97574871  1
  O2-  O522  1  0.92700427  0.56998731  0.32258499  1
  O2-  O523  1  0.91943142  0.56927990  0.62687452  1
  O2-  O524  1  0.86743148  0.56509177  0.98359789  1
  O2-  O525  1  0.90579102  0.83567634  0.31350613  1
  O2-  O526  1  0.82640178  0.80044855  0.63894463  1
  O2-  O527  1  0.93238405  0.88897944  0.98165077  1
  O2-  O528  1  0.06798960  0.16173755  0.01953107  1
  O2-  O529  1  0.10739091  0.13219027  0.36362530  1
  O2-  O530  1  0.08772775  0.14745823  0.70250113  1
  O2-  O531  1  0.06715346  0.39197816  0.03604173  1
  O2-  O532  1  0.09769082  0.43227579  0.35158798  1
  O2-  O533  1  0.07766730  0.41291083  0.68112212  1
  O2-  O534  1  0.16449210  0.67784850  0.03821240  1
  O2-  O535  1  0.09541959  0.67216236  0.35118581  1
  O2-  O536  1  0.10576047  0.69452790  0.69611586  1
  O2-  O537  1  0.08872512  0.93206411  0.03811971  1
  O2-  O538  1  0.06871532  0.92069816  0.36221123  1
  O2-  O539  1  0.11198207  0.92368251  0.69836115  1
  O2-  O540  1  0.33653576  0.17789308  0.02835065  1
  O2-  O541  1  0.32835279  0.16940795  0.35425122  1
  O2-  O542  1  0.33603428  0.17383781  0.68735699  1
  O2-  O543  1  0.31438842  0.43645838  0.04888663  1
  O2-  O544  1  0.32751408  0.41535373  0.34413203  1
  O2-  O545  1  0.32107476  0.40812404  0.68715469  1
  O2-  O546  1  0.32545846  0.69813795  0.02519991  1
  O2-  O547  1  0.34770916  0.69184169  0.34298938  1
  O2-  O548  1  0.32337202  0.66565596  0.70715514  1
  O2-  O549  1  0.33866791  0.94147622  0.02273945  1
  O2-  O550  1  0.30214846  0.91950984  0.35853415  1
  O2-  O551  1  0.35165495  0.92716253  0.69441853  1
  O2-  O552  1  0.65122649  0.18724257  0.03739858  1
  O2-  O553  1  0.57895467  0.15109502  0.35863719  1
  O2-  O554  1  0.58148321  0.15778827  0.68953005  1
  O2-  O555  1  0.58295875  0.41491488  0.04202286  1
  O2-  O556  1  0.57458035  0.39536035  0.35075160  1
  O2-  O557  1  0.57313603  0.40763912  0.69083423  1
  O2-  O558  1  0.56350387  0.66610071  0.03392200  1
  O2-  O559  1  0.49474443  0.60402327  0.31881997  1
  O2-  O560  1  0.56245276  0.65067462  0.70698900  1
  O2-  O561  1  0.55567325  0.89790018  -0.00517978  1
  O2-  O562  1  0.58591220  0.90600673  0.34750292  1
  O2-  O563  1  0.66461398  0.93761448  0.72667131  1
  O2-  O564  1  0.81232190  0.16543035  0.01232615  1
  O2-  O565  1  0.82657072  0.13209572  0.36502141  1
  O2-  O566  1  0.84255308  0.17159792  0.69681866  1
  O2-  O567  1  0.82094630  0.40675767  0.02702454  1
  O2-  O568  1  0.83876982  0.40681759  0.36873079  1
  O2-  O569  1  0.82409447  0.40620122  0.68782181  1
  O2-  O570  1  0.79255297  0.65895940  0.03964227  1
  O2-  O571  1  0.84626905  0.66486298  0.34437855  1
  O2-  O572  1  0.82757929  0.64586519  0.67303081  1
  O2-  O573  1  0.81765258  0.92904142  0.02555073  1
  O2-  O574  1  0.84992362  0.94272851  0.36666774  1
  O2-  O575  1  0.90346613  0.93810005  0.70963756  1
