# generated using pymatgen
data_H2O
_symmetry_space_group_name_H-M   'P 1'
_cell_length_a   18.00224491
_cell_length_b   18.00079770
_cell_length_c   22.01227954
_cell_angle_alpha   90.00661843
_cell_angle_beta   90.00466671
_cell_angle_gamma   120.00524225
_symmetry_Int_Tables_number   1
_chemical_formula_structural   H2O
_chemical_formula_sum   'H384 O192'
_cell_volume   6177.19221768
_cell_formula_units_Z   192
loop_
 _symmetry_equiv_pos_site_id
 _symmetry_equiv_pos_as_xyz
  1  'x, y, z'
loop_
 _atom_type_symbol
 _atom_type_oxidation_number
  H+  1.0
  O2-  -2.0
loop_
 _atom_site_type_symbol
 _atom_site_label
 _atom_site_symmetry_multiplicity
 _atom_site_fract_x
 _atom_site_fract_y
 _atom_site_fract_z
 _atom_site_occupancy
  H+  H0  1  0.61647498  0.62504911  0.67558008  1
  H+  H1  1  0.36751920  0.46918945  0.17689089  1
  H+  H2  1  0.11451548  0.89160197  0.49415239  1
  H+  H3  1  0.79251138  -0.03240683  0.96976279  1
  H+  H4  1  0.60785029  -0.03337718  0.48127335  1
  H+  H5  1  0.10545118  -0.02436136  0.66829992  1
  H+  H6  1  0.15070509  0.61113136  0.50378297  1
  H+  H7  1  0.52689023  0.63481468  0.67891620  1
  H+  H8  1  0.31531434  0.39470990  0.67238675  1
  H+  H9  1  0.77975925  0.86396255  0.02502814  1
  H+  H10  1  0.61083760  0.25093523  0.02349573  1
  H+  H11  1  0.22041537  0.60579778  0.66262373  1
  H+  H12  1  0.36855477  0.32661128  0.52772029  1
  H+  H13  1  0.86685716  0.85517612  0.32412087  1
  H+  H14  1  0.48595449  0.08795293  0.52735582  1
  H+  H15  1  0.47224117  0.10409959  0.31487948  1
  H+  H16  1  0.80405138  0.08226922  0.01664954  1
  H+  H17  1  0.13539019  0.77576832  0.65505218  1
  H+  H18  1  0.12918701  0.51824112  0.66322652  1
  H+  H19  1  0.41940452  0.32478397  0.23881517  1
  H+  H20  1  0.47107264  0.85863411  0.31838045  1
  H+  H21  1  0.17238062  0.40404299  0.34960131  1
  H+  H22  1  0.66988881  0.10435488  0.36155909  1
  H+  H23  1  0.32900156  0.16854653  0.73528098  1
  H+  H24  1  -0.02166406  0.94849762  0.05723852  1
  H+  H25  1  0.36818287  0.13132971  0.34890021  1
  H+  H26  1  0.02562191  0.62643709  0.82541422  1
  H+  H27  1  0.15303716  0.89743005  0.99065776  1
  H+  H28  1  0.25468234  0.11693771  1.01768664  1
  H+  H29  1  0.88416896  0.61657539  0.32866463  1
  H+  H30  1  0.01301346  0.89234122  0.33857583  1
  H+  H31  1  0.35358481  0.72125878  0.82864889  1
  H+  H32  1  0.87034057  0.82361810  0.99540702  1
  H+  H33  1  0.62138390  1.03204681  0.80310397  1
  H+  H34  1  0.40323946  -0.01617176  0.69444757  1
  H+  H35  1  0.62796601  0.63156469  0.51414185  1
  H+  H36  1  0.63020851  0.52376271  0.32929994  1
  H+  H37  1  0.33377478  0.66838427  0.41575111  1
  H+  H38  1  0.26294327  0.87483021  0.82832145  1
  H+  H39  1  0.38860053  0.86095135  0.84738866  1
  H+  H40  1  0.31441244  0.00873450  0.55631468  1
  H+  H41  1  0.79525047  -0.05555084  0.15599240  1
  H+  H42  1  0.36389068  0.71150435  0.16145151  1
  H+  H43  1  0.11025469  0.89100954  0.00049375  1
  H+  H44  1  0.45328016  0.09759720  0.85358877  1
  H+  H45  1  0.14765364  0.61721162  0.17814648  1
  H+  H46  1  0.77536691  0.39077437  0.49043010  1
  H+  H47  1  0.70494671  0.12335116  0.97460265  1
  H+  H48  1  0.22907476  0.11357338  0.34477749  1
  H+  H49  1  0.36404463  1.00209669  -0.00456177  1
  H+  H50  1  0.16003518  0.50368221  0.35737118  1
  H+  H51  1  0.63975123  0.86017567  0.84384048  1
  H+  H52  1  0.55974347  0.16397742  0.56147588  1
  H+  H53  1  0.60455710  0.86751814  0.16826783  1
  H+  H54  1  0.37729512  0.73571410  1.01051481  1
  H+  H55  1  0.35934889  0.10101715  0.52278752  1
  H+  H56  1  0.64786823  0.36350603  0.84424950  1
  H+  H57  1  0.86367013  0.48102985  0.68069654  1
  H+  H58  1  0.36112056  0.63195435  0.67706879  1
  H+  H59  1  0.78169161  0.63524264  0.83785300  1
  H+  H60  1  0.29664890  0.40058733  0.48855612  1
  H+  H61  1  0.53497360  0.63311783  0.82809815  1
  H+  H62  1  0.13854300  0.11209893  0.50073190  1
  H+  H63  1  0.62156288  0.85725936  0.32308412  1
  H+  H64  1  -0.02413907  0.60595317  0.17597381  1
  H+  H65  1  0.14646098  0.73729920  0.48538043  1
  H+  H66  1  0.88538393  0.10189091  0.32677499  1
  H+  H67  1  0.62656596  0.12393812  0.65989850  1
  H+  H68  1  0.35742669  0.09725466  -0.00077495  1
  H+  H69  1  0.22565161  0.86642750  0.50117508  1
  H+  H70  1  0.13734803  0.49130029  0.16598287  1
  H+  H71  1  0.61039227  0.13010765  0.30360303  1
  H+  H72  1  0.86328644  0.62690474  0.16157623  1
  H+  H73  1  0.70776361  0.12430794  0.80089109  1
  H+  H74  1  1.00813338  0.38225586  0.32532743  1
  H+  H75  1  0.23397979  0.62750127  0.33569648  1
  H+  H76  1  0.99785136  0.65170129  0.50456597  1
  H+  H77  1  0.53224000  0.63703373  0.13764377  1
  H+  H78  1  0.17427184  0.81088529  0.25295045  1
  H+  H79  1  0.64612318  0.74515836  0.00085799  1
  H+  H80  1  0.62122258  0.08913783  0.51431092  1
  H+  H81  1  0.91682975  0.14790392  0.17422674  1
  H+  H82  1  0.11217402  0.25888150  0.64705582  1
  H+  H83  1  0.63616528  0.77198162  0.17388637  1
  H+  H84  1  0.36406264  0.13786104  0.68042508  1
  H+  H85  1  0.10848375  0.46902822  0.82562978  1
  H+  H86  1  0.22559943  0.11457925  0.65914805  1
  H+  H87  1  0.52541408  0.88401015  0.82307607  1
  H+  H88  1  0.22214372  0.60735700  0.84053550  1
  H+  H89  1  0.04508138  0.24864578  0.44965053  1
  H+  H90  1  0.88220494  0.27757126  0.65412990  1
  H+  H91  1  0.00753158  0.62269662  0.52330092  1
  H+  H92  1  0.72976351  0.86312277  0.83902870  1
  H+  H93  1  0.57760065  0.42778429  0.10493940  1
  H+  H94  1  0.59014611  0.87115822  0.46571019  1
  H+  H95  1  0.69043581  0.05700495  0.19232638  1
  H+  H96  1  0.03830972  0.40794321  0.01621402  1
  H+  H97  1  0.28296420  0.87196048  0.99562114  1
  H+  H98  1  0.51162768  0.38360328  0.50037690  1
  H+  H99  1  0.88502192  0.37018739  0.16355198  1
  H+  H100  1  0.77121953  0.24003852  0.94734583  1
  H+  H101  1  0.49730567  0.63487543  -0.01283967  1
  H+  H102  1  0.27639262  0.89976692  0.15085700  1
  H+  H103  1  0.83091532  0.16021238  0.39519345  1
  H+  H104  1  0.58077108  0.94326171  0.17396575  1
  H+  H105  1  0.77145501  0.63866944  0.66356042  1
  H+  H106  1  0.87958805  0.36099986  0.49994236  1
  H+  H107  1  0.10591401  0.62801066  0.33767291  1
  H+  H108  1  0.34332007  0.66654310  0.06478011  1
  H+  H109  1  0.26319761  0.37060229  1.01915134  1
  H+  H110  1  0.63934239  0.60480338  0.84058330  1
  H+  H111  1  0.11566637  0.89523889  0.82258917  1
  H+  H112  1  0.11396314  0.23968392  0.00578485  1
  H+  H113  1  0.76644893  0.63578801  0.34268285  1
  H+  H114  1  0.98354391  0.60498415  0.99587479  1
  H+  H115  1  0.35406768  0.96918024  0.47797587  1
  H+  H116  1  0.17484127  0.34687319  0.93600131  1
  H+  H117  1  0.88434811  0.77584260  0.50576808  1
  H+  H118  1  0.48093473  0.11558947  0.17576635  1
  H+  H119  1  0.36458727  0.62297706  0.16185021  1
  H+  H120  1  0.39649143  0.27215074  0.66355196  1
  H+  H121  1  0.77390414  0.62766578  0.16028382  1
  H+  H122  1  0.63696585  0.15295986  0.17259305  1
  H+  H123  1  0.38478069  0.35674315  0.18322454  1
  H+  H124  1  0.34373722  0.91356913  0.78068635  1
  H+  H125  1  0.85107635  0.13396597  0.49121903  1
  H+  H126  1  0.88901683  0.86682926  0.50349097  1
  H+  H127  1  0.35775423  0.63707116  0.35365190  1
  H+  H128  1  0.15858861  0.39643603  0.84025462  1
  H+  H129  1  0.36455509  0.22358362  0.16430064  1
  H+  H130  1  0.60665905  0.39892005  0.49758992  1
  H+  H131  1  0.02319689  0.88802717  0.82268950  1
  H+  H132  1  0.24973630  0.37563245  0.33233644  1
  H+  H133  1  0.59044730  0.90220816  0.76751632  1
  H+  H134  1  0.84940364  0.22251484  0.49029975  1
  H+  H135  1  0.43219417  0.58278132  0.29709845  1
  H+  H136  1  0.39141119  0.26488502  0.33387892  1
  H+  H137  1  0.96148782  0.86995417  0.65905033  1
  H+  H138  1  0.01028300  0.34324031  0.31581201  1
  H+  H139  1  0.11123122  0.13866253  0.66474887  1
  H+  H140  1  0.61096939  0.38925669  0.34506880  1
  H+  H141  1  0.84141856  0.89246974  0.66648274  1
  H+  H142  1  1.02425238  0.89027142  0.49689978  1
  H+  H143  1  0.34511838  0.20524236  0.01053292  1
  H+  H144  1  0.22608460  0.84645155  0.31395190  1
  H+  H145  1  0.83636736  0.98087266  0.14373873  1
  H+  H146  1  0.84938286  0.25861357  0.31637391  1
  H+  H147  1  0.87071704  0.14458577  0.66409068  1
  H+  H148  1  0.88870172  0.77359513  0.83454417  1
  H+  H149  1  0.11868173  0.85617959  0.15744323  1
  H+  H150  1  0.63500939  0.27695198  0.31541370  1
  H+  H151  1  -0.03231832  0.12572256  0.49526638  1
  H+  H152  1  0.39973144  0.38893242  0.67098905  1
  H+  H153  1  0.96279480  0.84331810  0.99363255  1
  H+  H154  1  0.84583371  0.34591188  0.31834567  1
  H+  H155  1  0.84689254  -0.03471487  0.33694868  1
  H+  H156  1  0.89219366  0.51037022  0.84205657  1
  H+  H157  1  0.64495204  0.40468804  0.99157255  1
  H+  H158  1  0.85259068  0.51628469  0.51645754  1
  H+  H159  1  0.62780854  0.83138342  0.61830306  1
  H+  H160  1  0.13709132  0.36863735  -0.00506882  1
  H+  H161  1  0.89222926  0.60169996  0.99523051  1
  H+  H162  1  0.77897514  0.13707637  0.66104087  1
  H+  H163  1  0.24055133  0.61881822  -0.00808401  1
  H+  H164  1  0.66310455  0.88439409  0.99701404  1
  H+  H165  1  0.71378107  0.46399645  0.78456478  1
  H+  H166  1  0.47307505  0.87570445  0.51100992  1
  H+  H167  1  -0.02729976  0.61351081  0.32821966  1
  H+  H168  1  0.08288702  0.40879721  0.76713352  1
  H+  H169  1  0.88183118  0.36689932  0.65773130  1
  H+  H170  1  0.01447099  0.38012904  0.48887580  1
  H+  H171  1  0.41163904  0.53138217  0.66393249  1
  H+  H172  1  0.53024951  0.37822688  0.66963000  1
  H+  H173  1  0.71552176  0.91357944  0.68274710  1
  H+  H174  1  0.38460198  0.76884589  0.33248871  1
  H+  H175  1  0.88249899  0.25101131  0.15120821  1
  H+  H176  1  0.34812344  0.16620463  0.41098981  1
  H+  H177  1  0.18859473  0.35464918  0.64765683  1
  H+  H178  1  0.88893130  0.01724262  0.98852267  1
  H+  H179  1  0.87368444  0.77018875  0.32567838  1
  H+  H180  1  0.47795617  0.35731540  0.33153075  1
  H+  H181  1  0.85802739  0.10733415  0.83173854  1
  H+  H182  1  0.14024494  0.12158375  0.00195545  1
  H+  H183  1  1.00548487  0.15127722  0.18654958  1
  H+  H184  1  0.76712525  0.39599763  0.34227369  1
  H+  H185  1  0.80390712  0.16313759  0.16871440  1
  H+  H186  1  0.43627965  0.59724455  0.60729213  1
  H+  H187  1  0.63878573  0.28565763  0.49940176  1
  H+  H188  1  0.12863043  0.24098513  0.80848759  1
  H+  H189  1  0.16223762  0.27643286  0.48898045  1
  H+  H190  1  0.65446709  0.58414549  0.59763359  1
  H+  H191  1  0.36449389  0.00669633  0.84808585  1
  H+  H192  1  0.33275712  0.91820260  0.06106783  1
  H+  H193  1  0.44756687  0.33244556  1.00375043  1
  H+  H194  1  0.39417028  0.35775634  0.84341455  1
  H+  H195  1  0.40648987  0.55062622  0.51342325  1
  H+  H196  1  0.83801896  0.63289388  0.50164596  1
  H+  H197  1  0.08973785  0.37634496  0.66546722  1
  H+  H198  1  0.62742807  0.23803999  0.17005211  1
  H+  H199  1  0.73261520  0.59515792  0.00168605  1
  H+  H200  1  0.13458966  0.02136433  0.50303378  1
  H+  H201  1  0.77919677  0.88657446  0.50678845  1
  H+  H202  1  0.63716449  0.77099418  0.52852303  1
  H+  H203  1  0.48968181  0.11758993  0.66813320  1
  H+  H204  1  0.77519578  0.12373779  0.33512383  1
  H+  H205  1  0.88264718  0.61518150  0.66681334  1
  H+  H206  1  0.61307886  0.25766532  0.86007715  1
  H+  H207  1  0.07092349  0.91665907  0.39778536  1
  H+  H208  1  0.57823146  0.16707424  0.25065862  1
  H+  H209  1  0.72407305  0.38552723  -0.00467890  1
  H+  H210  1  0.83950426  0.23614673  0.80870318  1
  H+  H211  1  0.35064169  0.13148057  0.82888248  1
  H+  H212  1  0.23269434  0.76193258  0.94773276  1
  H+  H213  1  0.72771034  0.37369045  0.16997638  1
  H+  H214  1  0.85188115  0.97574922  0.82151893  1
  H+  H215  1  0.62700565  0.72365559  0.82641780  1
  H+  H216  1  0.08416282  0.17352147  0.72380800  1
  H+  H217  1  0.56142064  0.47656717  0.00085604  1
  H+  H218  1  0.62192143  0.53730605  0.50654214  1
  H+  H219  1  0.88204342  0.75929944  0.17444897  1
  H+  H220  1  0.00932529  0.38747251  0.67236069  1
  H+  H221  1  0.49668727  0.64156958  0.51984782  1
  H+  H222  1  0.06645546  0.18148312  0.41513975  1
  H+  H223  1  0.13101520  0.03487069  0.82944267  1
  H+  H224  1  0.11505247  0.62395328  0.01029746  1
  H+  H225  1  0.23744806  0.61656074  0.17580811  1
  H+  H226  1  0.66384523  0.87611104  0.53494540  1
  H+  H227  1  0.27925616  0.14193691  0.49874518  1
  H+  H228  1  0.38565326  0.87557429  0.51304966  1
  H+  H229  1  0.22717277  0.09587774  0.17564259  1
  H+  H230  1  0.71692731  0.10414857  0.49882363  1
  H+  H231  1  0.76128348  0.64937892  0.49384607  1
  H+  H232  1  0.85920189  0.70224530  0.00488989  1
  H+  H233  1  0.02679742  0.15245063  0.02013157  1
  H+  H234  1  0.86083278  0.33710880  0.87481678  1
  H+  H235  1  0.35954389  0.87633734  0.33204969  1
  H+  H236  1  0.63540939  0.36809993  0.17170919  1
  H+  H237  1  0.48759361  0.83285169  0.65409521  1
  H+  H238  1  0.17550552  0.58335549  0.93311145  1
  H+  H239  1  0.16827487  0.83789556  0.56327037  1
  H+  H240  1  0.29645794  0.40296292  0.82512087  1
  H+  H241  1  0.97608952  0.11514511  0.65363332  1
  H+  H242  1  0.83003913  0.37052127  -0.00581703  1
  H+  H243  1  0.35850686  0.96561349  0.33279756  1
  H+  H244  1  0.36876281  0.37830395  0.33854982  1
  H+  H245  1  0.46204634  0.83295444  0.17192517  1
  H+  H246  1  0.10521341  0.71526744  0.15819583  1
  H+  H247  1  0.58068760  0.70683057  0.30771411  1
  H+  H248  1  0.86968224  0.63471764  0.83549537  1
  H+  H249  1  0.41507876  0.08046985  0.61734023  1
  H+  H250  1  0.39486128  0.42887893  0.48328592  1
  H+  H251  1  0.77685529  0.38931014  0.67496507  1
  H+  H252  1  0.22015398  0.12104263  0.83130880  1
  H+  H253  1  0.85888976  0.48238171  0.33932614  1
  H+  H254  1  0.64833418  0.16653139  -0.02003230  1
  H+  H255  1  0.64386530  0.61540237  0.17147763  1
  H+  H256  1  0.37494078  0.22792747  0.50903631  1
  H+  H257  1  0.16236079  0.82611419  0.10934300  1
  H+  H258  1  0.88264595  0.02981688  0.65530860  1
  H+  H259  1  0.36201151  0.33929522  0.00699975  1
  H+  H260  1  0.91568367  0.83299465  0.89145490  1
  H+  H261  1  0.48634199  0.61044059  0.22770336  1
  H+  H262  1  0.36335100  0.22682640  0.82998803  1
  H+  H263  1  0.59444989  0.13537811  0.82287830  1
  H+  H264  1  0.85870261  0.48010996  0.15590588  1
  H+  H265  1  0.85669036  0.72916884  0.66488463  1
  H+  H266  1  0.36079350  0.71935875  0.67198217  1
  H+  H267  1  0.10922310  0.63442475  0.67078785  1
  H+  H268  1  0.83705207  0.82694199  0.12751857  1
  H+  H269  1  0.36864012  0.64475673  0.50387363  1
  H+  H270  1  0.40914967  0.89778122  0.69327016  1
  H+  H271  1  0.40670304  0.62935580  0.98703082  1
  H+  H272  1  0.15001096  0.38299542  0.18251402  1
  H+  H273  1  0.40872972  0.87859732  0.99782234  1
  H+  H274  1  0.87088911  0.27669497  0.96197010  1
  H+  H275  1  0.13827396  0.02685428  0.33639685  1
  H+  H276  1  0.86107878  -0.02169849  0.49336234  1
  H+  H277  1  0.36607644  0.98691114  0.15113737  1
  H+  H278  1  0.27337890  0.38838959  0.18004170  1
  H+  H279  1  0.51647213  0.38553202  0.16358916  1
  H+  H280  1  0.63253724  0.51850451  0.65482454  1
  H+  H281  1  0.86171606  0.47186290  1.00033951  1
  H+  H282  1  0.41559697  0.52842540  0.83847628  1
  H+  H283  1  0.64892802  0.26965101  0.65857744  1
  H+  H284  1  0.14162116  0.09939982  0.17993293  1
  H+  H285  1  0.59721784  0.18323543  0.07427720  1
  H+  H286  1  0.13038498  0.49103913  0.00524952  1
  H+  H287  1  0.11558686  0.02678690  1.01578867  1
  H+  H288  1  0.34938410  0.42784073  0.39183198  1
  H+  H289  1  0.66566761  0.58137410  0.26905070  1
  H+  H290  1  0.57762406  0.41896620  0.40390144  1
  H+  H291  1  0.91854559  0.07991265  0.26649263  1
  H+  H292  1  0.42391544  0.83789442  0.60684089  1
  H+  H293  1  0.11357788  0.71608029  0.82839462  1
  H+  H294  1  0.79681509  0.13405709  0.07289312  1
  H+  H295  1  0.60725766  0.67886243  0.09106844  1
  H+  H296  1  0.59431138  0.70129714  0.45832316  1
  H+  H297  1  0.16815117  0.08577489  0.59847163  1
  H+  H298  1  0.87407578  0.56812601  0.57903129  1
  H+  H299  1  0.56932897  0.20273627  0.42218719  1
  H+  H300  1  0.11454077  0.43395818  0.10519327  1
  H+  H301  1  0.17613248  0.35350288  0.27944038  1
  H+  H302  1  0.39234135  0.11738021  0.17235775  1
  H+  H303  1  0.82513312  0.92381882  0.72985512  1
  H+  H304  1  0.17741596  0.80611156  0.91272779  1
  H+  H305  1  0.82595729  0.66734354  0.40192176  1
  H+  H306  1  0.91452146  0.58033848  0.23513518  1
  H+  H307  1  0.67011801  0.33426523  0.56301204  1
  H+  H308  1  0.24070881  0.45527024  0.87975049  1
  H+  H309  1  0.86203876  0.89034979  0.82051177  1
  H+  H310  1  0.56927139  0.91649772  0.38249231  1
  H+  H311  1  0.08094773  0.65234426  0.10267350  1
  H+  H312  1  0.87081464  0.06635903  0.89161724  1
  H+  H313  1  0.11556195  0.67786448  0.42647312  1
  H+  H314  1  0.60091049  0.91811115  0.07501494  1
  H+  H315  1  0.89591124  0.82260603  0.23049099  1
  H+  H316  1  0.63821623  0.65234404  0.00103331  1
  H+  H317  1  0.65250010  0.48506321  0.82218654  1
  H+  H318  1  0.43012777  0.83717567  0.90210237  1
  H+  H319  1  0.65198278  0.33579167  0.91966042  1
  H+  H320  1  0.49912486  0.88184591  0.99852280  1
  H+  H321  1  0.54584142  0.17731158  0.78979055  1
  H+  H322  1  0.91634870  0.08925519  0.55877607  1
  H+  H323  1  0.04278653  0.92432873  0.08799137  1
  H+  H324  1  0.58613213  0.62126140  0.30916222  1
  H+  H325  1  0.61840218  0.14187971  0.72615812  1
  H+  H326  1  0.82493892  0.42093781  0.09508366  1
  H+  H327  1  0.63595267  0.52360437  0.17621267  1
  H+  H328  1  0.42722611  0.32431761  0.59712438  1
  H+  H329  1  0.10510196  0.46439374  0.50025764  1
  H+  H330  1  0.60057684  0.41508836  0.72462454  1
  H+  H331  1  0.16158872  0.57462374  0.56840464  1
  H+  H332  1  0.11258303  0.12843534  0.34719218  1
  H+  H333  1  0.59280582  0.66134354  0.74277678  1
  H+  H334  1  1.01644471  0.11532333  0.33791173  1
  H+  H335  1  0.82732702  0.17449723  0.75364727  1
  H+  H336  1  0.13038056  0.86085029  0.65407425  1
  H+  H337  1  0.83600797  0.42505039  0.43233543  1
  H+  H338  1  0.65385609  0.82384367  0.23689602  1
  H+  H339  1  0.10851050  0.71651228  0.33031560  1
  H+  H340  1  0.68631342  0.85090542  0.93319213  1
  H+  H341  1  0.17993767  0.59028659  0.27381212  1
  H+  H342  1  0.60921423  -0.01736968  0.32755749  1
  H+  H343  1  0.09065409  0.79848375  0.87598321  1
  H+  H344  1  0.66890129  0.34881522  0.26680918  1
  H+  H345  1  0.66497304  0.99628591  0.03440424  1
  H+  H346  1  0.66205161  0.01009066  0.65283731  1
  H+  H347  1  0.32604544  0.90540292  0.42107038  1
  H+  H348  1  0.40330895  0.80597081  0.23143273  1
  H+  H349  1  0.40158546  0.07274175  0.26646958  1
  H+  H350  1  0.64073877  0.35537074  0.65625629  1
  H+  H351  1  0.08361497  0.66514452  0.73065715  1
  H+  H352  1  0.32082315  0.66400465  0.76871103  1
  H+  H353  1  0.67032412  0.06101684  0.59110729  1
  H+  H354  1  0.83229214  0.64898161  0.06812238  1
  H+  H355  1  0.92330897  0.57122791  0.90031194  1
  H+  H356  1  0.38666552  0.06766362  0.93286070  1
  H+  H357  1  0.18315273  0.32316776  0.55126500  1
  H+  H358  1  0.00906254  0.87624719  0.17284582  1
  H+  H359  1  0.35887568  0.42069370  0.76745588  1
  H+  H360  1  0.66174104  0.56865592  0.90091138  1
  H+  H361  1  0.10466153  -0.03424893  0.17045963  1
  H+  H362  1  0.83721154  0.40124585  0.76902965  1
  H+  H363  1  0.14393714  0.29009632  0.18975280  1
  H+  H364  1  0.07593845  0.91580202  0.72651217  1
  H+  H365  1  0.89309855  0.32888972  0.22378529  1
  H+  H366  1  0.33252606  0.16106209  0.10516800  1
  H+  H367  1  0.27168886  0.62586684  0.50038105  1
  H+  H368  1  0.12520662  0.71375781  0.00248511  1
  H+  H369  1  0.90647161  0.84023475  0.59869750  1
  H+  H370  1  0.11425651  0.19002380  0.10190892  1
  H+  H371  1  0.32182461  0.39594496  0.07960618  1
  H+  H372  1  0.44242557  0.59436591  0.89500239  1
  H+  H373  1  0.13151293  0.60273187  0.84268388  1
  H+  H374  1  0.90700863  0.33079252  0.55989569  1
  H+  H375  1  0.61440738  0.21036486  0.42456086  1
  H+  H376  1  0.81879758  0.91017543  0.39854811  1
  H+  H377  1  0.11896641  0.14817216  0.81311405  1
  H+  H378  1  0.70696278  0.85025330  0.32977102  1
  H+  H379  1  0.12408254  0.43622152  0.41658063  1
  H+  H380  1  0.19593812  0.22777250  0.14333225  1
  H+  H381  1  0.97154075  0.61238566  0.66499128  1
  H+  H382  1  0.69352105  0.10720163  0.25185267  1
  H+  H383  1  0.40411911  0.31726229  0.90443522  1
  O2-  O384  1  0.13347233  0.19636275  0.14538107  1
  O2-  O385  1  0.05952913  0.20418625  0.45861635  1
  O2-  O386  1  0.09351632  0.18247186  0.79421939  1
  O2-  O387  1  0.11789799  0.43253322  0.14976150  1
  O2-  O388  1  0.07678289  0.40643189  0.48057205  1
  O2-  O389  1  0.08944928  0.40933097  0.81206221  1
  O2-  O390  1  0.07965079  0.65325288  0.14814168  1
  O2-  O391  1  0.14743174  0.68871269  0.46527125  1
  O2-  O392  1  0.08607755  0.65670284  0.81041314  1
  O2-  O393  1  0.06786170  0.90487728  0.15397629  1
  O2-  O394  1  0.08440645  0.92354329  0.48125202  1
  O2-  O395  1  0.08308924  0.92123712  0.80611594  1
  O2-  O396  1  0.33555403  0.16242558  0.15059319  1
  O2-  O397  1  0.34143353  0.16494052  0.49094607  1
  O2-  O398  1  0.32929034  0.16763519  0.81073189  1
  O2-  O399  1  0.33242060  0.40978740  0.16195345  1
  O2-  O400  1  0.35410017  0.44757473  0.47262247  1
  O2-  O401  1  0.35625739  0.42123347  0.81251036  1
  O2-  O402  1  0.33507417  0.65038346  0.14265304  1
  O2-  O403  1  0.33083230  0.66300385  0.48406153  1
  O2-  O404  1  0.31558469  0.66238852  0.81365345  1
  O2-  O405  1  0.33306278  0.92947574  0.13145615  1
  O2-  O406  1  0.32600405  0.90829612  0.46712381  1
  O2-  O407  1  0.32576204  0.90872348  0.82486814  1
  O2-  O408  1  0.59695399  0.17426344  0.16231181  1
  O2-  O409  1  0.54854420  0.12662780  0.52656656  1
  O2-  O410  1  0.55923163  0.16598103  0.83054769  1
  O2-  O411  1  0.57800497  0.41921183  0.14876883  1
  O2-  O412  1  0.57067442  0.42225121  0.48246843  1
  O2-  O413  1  0.65513713  0.43665189  0.80019251  1
  O2-  O414  1  0.59471388  0.66793268  0.13584650  1
  O2-  O415  1  0.59163978  0.69337179  0.50216284  1
  O2-  O416  1  0.59872679  0.66395121  0.81035945  1
  O2-  O417  1  0.57001875  0.89432884  0.14901829  1
  O2-  O418  1  0.56763313  0.90999018  0.46121973  1
  O2-  O419  1  0.58726612  0.91578848  0.81025788  1
  O2-  O420  1  0.85367003  0.18645539  0.14081874  1
  O2-  O421  1  0.81847339  0.16145965  0.47507194  1
  O2-  O422  1  0.81496736  0.17486633  0.79819964  1
  O2-  O423  1  0.82373464  0.42004031  0.14025724  1
  O2-  O424  1  0.83659971  0.42119007  0.47796007  1
  O2-  O425  1  0.83193740  0.39718270  0.81483676  1
  O2-  O426  1  0.83350257  0.65634325  0.14330995  1
  O2-  O427  1  0.82187126  0.67282114  0.48023603  1
  O2-  O428  1  0.84257814  0.66945096  0.82634767  1
  O2-  O429  1  0.79113856  0.80845501  0.09571979  1
  O2-  O430  1  0.83144605  0.91641051  0.48119241  1
  O2-  O431  1  0.82585811  0.91455291  0.80631152  1
  O2-  O432  1  0.16560104  0.06173093  0.18661086  1
  O2-  O433  1  0.16750677  0.08355606  0.51812698  1
  O2-  O434  1  0.15854301  0.09561675  0.84191902  1
  O2-  O435  1  0.17493308  0.34935456  0.20531712  1
  O2-  O436  1  0.21143385  0.31555964  0.51531440  1
  O2-  O437  1  0.20807074  0.39619409  0.86522334  1
  O2-  O438  1  0.17972138  0.59057957  0.19579163  1
  O2-  O439  1  0.16480351  0.56913514  0.52355468  1
  O2-  O440  1  0.16221478  0.57334316  0.85908649  1
  O2-  O441  1  0.15487859  0.82688054  0.15315823  1
  O2-  O442  1  0.16618106  0.84059259  0.51740411  1
  O2-  O443  1  0.14871859  0.81313321  0.86424598  1
  O2-  O444  1  0.41955769  0.08372442  0.18733864  1
  O2-  O445  1  0.37031643  0.05497253  0.54308471  1
  O2-  O446  1  0.39125676  0.06779997  0.86413608  1
  O2-  O447  1  0.41870863  0.32789086  0.19296345  1
  O2-  O448  1  0.41713376  0.31748505  0.53320881  1
  O2-  O449  1  0.41575365  0.32074359  0.86036619  1
  O2-  O450  1  0.42677766  0.58071262  0.21100136  1
  O2-  O451  1  0.43379966  0.60618220  0.53527705  1
  O2-  O452  1  0.44840054  0.58994770  0.84991216  1
  O2-  O453  1  0.40194887  0.80032280  0.18626508  1
  O2-  O454  1  0.42994200  0.87438939  0.53904067  1
  O2-  O455  1  0.42396542  0.83414974  0.85711135  1
  O2-  O456  1  0.70076117  0.11288363  0.20576153  1
  O2-  O457  1  0.65813579  0.06245253  0.51537970  1
  O2-  O458  1  0.64339073  0.09418080  0.79603082  1
  O2-  O459  1  0.66812259  0.34149676  0.18811764  1
  O2-  O460  1  0.66834399  0.34248756  0.51806566  1
  O2-  O461  1  0.65098628  0.32041901  0.87299964  1
  O2-  O462  1  0.67140439  0.58441548  0.18962943  1
  O2-  O463  1  0.65572150  0.59514194  0.52490871  1
  O2-  O464  1  0.66581203  0.57073405  0.85616737  1
  O2-  O465  1  0.65504429  0.82915187  0.19152067  1
  O2-  O466  1  0.67627589  0.83419763  0.55284263  1
  O2-  O467  1  0.67157048  0.83202554  0.85942140  1
  O2-  O468  1  0.94414168  0.11762780  0.19417099  1
  O2-  O469  1  0.90987736  0.08644464  0.51347734  1
  O2-  O470  1  0.88163348  0.07204481  0.84759698  1
  O2-  O471  1  0.91453372  0.34124191  0.18086071  1
  O2-  O472  1  0.90457276  0.32519067  0.51462921  1
  O2-  O473  1  0.87685711  0.35022090  0.83081954  1
  O2-  O474  1  0.91470225  0.57873885  0.18941734  1
  O2-  O475  1  0.84428463  0.55882682  0.53941752  1
  O2-  O476  1  0.92178365  0.57125127  0.85493697  1
  O2-  O477  1  0.90282623  0.82058486  0.18506661  1
  O2-  O478  1  0.91816727  0.83672826  0.52065704  1
  O2-  O479  1  0.91742624  0.83638005  0.84655279  1
  O2-  O480  1  0.17031764  0.09021801  0.32916577  1
  O2-  O481  1  0.16534541  0.08558651  0.64366979  1
  O2-  O482  1  0.16136861  0.08083683  0.99744491  1
  O2-  O483  1  0.18533129  0.35546017  0.32481321  1
  O2-  O484  1  0.13358469  0.31838927  0.62835353  1
  O2-  O485  1  0.16306385  0.33389421  0.98030338  1
  O2-  O486  1  0.17487327  0.59037923  0.31908847  1
  O2-  O487  1  0.15999927  0.57845614  0.64768621  1
  O2-  O488  1  0.17869935  0.58539205  0.97921108  1
  O2-  O489  1  0.16761327  0.80973557  0.29677790  1
  O2-  O490  1  0.16413979  0.83507851  0.63861080  1
  O2-  O491  1  0.20423903  0.79310002  0.96114573  1
  O2-  O492  1  0.40822022  0.07243781  0.31150541  1
  O2-  O493  1  0.42686094  0.08916056  0.66166420  1
  O2-  O494  1  0.38749907  0.06639324  0.97982575  1
  O2-  O495  1  0.41831698  0.32349267  0.31472555  1
  O2-  O496  1  0.43269585  0.33109890  0.64637265  1
  O2-  O497  1  0.39001334  0.30705076  0.98698425  1
  O2-  O498  1  0.38188920  0.56693844  0.27028269  1
  O2-  O499  1  0.43685676  0.59324000  0.65370788  1
  O2-  O500  1  0.43915641  0.60311497  0.96991723  1
  O2-  O501  1  0.40831866  0.82333968  0.30851393  1
  O2-  O502  1  0.42890300  0.82347011  0.65058460  1
  O2-  O503  1  0.43929402  0.84798491  0.98422774  1
  O2-  O504  1  0.66297584  0.08134707  0.32059907  1
  O2-  O505  1  0.67517800  0.06672549  0.63646268  1
  O2-  O506  1  0.68592084  0.15724178  0.95078828  1
  O2-  O507  1  0.66324297  0.34053775  0.31189656  1
  O2-  O508  1  0.67400702  0.32787986  0.64084096  1
  O2-  O509  1  0.66140024  0.36105003  0.98226869  1
  O2-  O510  1  0.65960912  0.58410761  0.31395793  1
  O2-  O511  1  0.65568902  0.57997393  0.64382317  1
  O2-  O512  1  0.67099910  0.57204582  0.98473482  1
  O2-  O513  1  0.64724779  0.82050979  0.31304680  1
  O2-  O514  1  0.59660759  0.83478430  0.65586188  1
  O2-  O515  1  0.70015882  0.86288635  0.97811811  1
  O2-  O516  1  0.90881825  0.06571556  0.31087404  1
  O2-  O517  1  0.91593146  0.08885237  0.63753814  1
  O2-  O518  1  0.84405112  0.02623572  0.97159897  1
  O2-  O519  1  0.84250382  0.30026432  0.29139773  1
  O2-  O520  1  0.91157971  0.33811796  0.63899824  1
  O2-  O521  1  0.83184857  0.29548472  0.94732332  1
  O2-  O522  1  0.91196489  0.58466093  0.31215918  1
  O2-  O523  1  0.90883714  0.57867931  0.65551186  1
  O2-  O524  1  0.92367488  0.57325131  0.97903015  1
  O2-  O525  1  0.89898063  0.82822426  0.30671726  1
  O2-  O526  1  0.90117908  0.84232609  0.64384919  1
  O2-  O527  1  0.90673232  0.80397131  0.97455707  1
  O2-  O528  1  0.08833463  0.18189479  0.02731836  1
  O2-  O529  1  0.07362855  0.15317006  0.35605514  1
  O2-  O530  1  0.07883467  0.16792604  0.67733688  1
  O2-  O531  1  0.09928747  0.43032288  0.02293995  1
  O2-  O532  1  0.16576908  0.45929660  0.38116119  1
  O2-  O533  1  0.06991470  0.41158769  0.68722315  1
  O2-  O534  1  0.08658168  0.65685390  0.02335587  1
  O2-  O535  1  0.07483392  0.65850184  0.35035950  1
  O2-  O536  1  0.08006116  0.66596609  0.68543965  1
  O2-  O537  1  0.02516099  0.93801875  0.04749910  1
  O2-  O538  1  0.07287185  0.92160301  0.35305189  1
  O2-  O539  1  0.07155266  0.91463533  0.68132243  1
  O2-  O540  1  0.31915314  0.14593327  0.02820513  1
  O2-  O541  1  0.34476782  0.16689386  0.36579307  1
  O2-  O542  1  0.33127417  0.16751461  0.68945897  1
  O2-  O543  1  0.32101331  0.38744076  0.03508636  1
  O2-  O544  1  0.34270951  0.41468005  0.34784550  1
  O2-  O545  1  0.37371794  0.42504919  0.68768757  1
  O2-  O546  1  0.34361203  0.67334826  0.01955788  1
  O2-  O547  1  0.33509902  0.67285785  0.36840203  1
  O2-  O548  1  0.32673691  0.65909743  0.68768833  1
  O2-  O549  1  0.33922744  0.91795566  0.01481450  1
  O2-  O550  1  0.32722692  0.90486350  0.34727578  1
  O2-  O551  1  0.40144414  0.93792434  0.71989182  1
  O2-  O552  1  0.59321976  0.19039010  0.03016757  1
  O2-  O553  1  0.57995435  0.16426309  0.29527262  1
  O2-  O554  1  0.60556382  0.15587171  0.68534006  1
  O2-  O555  1  0.61773603  0.48715579  0.01486333  1
  O2-  O556  1  0.57950328  0.41913803  0.35833970  1
  O2-  O557  1  0.59391173  0.41194656  0.67999772  1
  O2-  O558  1  0.61193604  0.68573247  0.01602874  1
  O2-  O559  1  0.54737790  0.64427287  0.29906336  1
  O2-  O560  1  0.58926304  0.65900310  0.69509700  1
  O2-  O561  1  0.61838940  0.93520158  0.03175145  1
  O2-  O562  1  0.57470674  0.91762899  0.33755568  1
  O2-  O563  1  0.66019652  0.91533682  0.68477961  1
  O2-  O564  1  0.76494902  0.09821057  0.03687056  1
  O2-  O565  1  0.83560134  0.15765611  0.35015220  1
  O2-  O566  1  0.83785097  0.17325104  0.67801351  1
  O2-  O567  1  0.81836850  0.41290485  0.01537213  1
  O2-  O568  1  0.82764789  0.42287756  0.35672161  1
  O2-  O569  1  0.83500762  0.41830869  0.69361414  1
  O2-  O570  1  0.82917339  0.64271820  0.02228595  1
  O2-  O571  1  0.82749666  0.66603823  0.35633409  1
  O2-  O572  1  0.83174246  0.66827405  0.67701748  1
  O2-  O573  1  0.83205066  0.87094323  0.04621729  1
  O2-  O574  1  0.81284759  0.90523871  0.35365310  1
  O2-  O575  1  0.81782877  0.92737539  0.68484434  1
