# generated using pymatgen
data_H2O
_symmetry_space_group_name_H-M   'P 1'
_cell_length_a   17.97140826
_cell_length_b   17.98113603
_cell_length_c   21.98796891
_cell_angle_alpha   90.00569199
_cell_angle_beta   90.01062092
_cell_angle_gamma   120.01744014
_symmetry_Int_Tables_number   1
_chemical_formula_structural   H2O
_chemical_formula_sum   'H384 O192'
_cell_volume   6152.31574005
_cell_formula_units_Z   192
loop_
 _symmetry_equiv_pos_site_id
 _symmetry_equiv_pos_as_xyz
  1  'x, y, z'
loop_
 _atom_type_symbol
 _atom_type_oxidation_number
  H+  1.0
  O2-  -2.0
loop_
 _atom_site_type_symbol
 _atom_site_label
 _atom_site_symmetry_multiplicity
 _atom_site_fract_x
 _atom_site_fract_y
 _atom_site_fract_z
 _atom_site_occupancy
  H+  H0  1  0.14098341  0.25549676  0.99162742  1
  H+  H1  1  0.39127501  0.58627998  0.98005519  1
  H+  H2  1  0.76358665  0.87688181  -0.00004534  1
  H+  H3  1  0.92121493  0.83328539  -0.06518938  1
  H+  H4  1  0.34917590  0.34249792  0.85413579  1
  H+  H5  1  0.12902415  0.52742427  0.18453668  1
  H+  H6  1  0.85397315  0.32877723  0.52074745  1
  H+  H7  1  0.77227060  0.13931997  0.17761588  1
  H+  H8  1  0.14451534  0.38034436  0.02246232  1
  H+  H9  1  0.48641059  0.36572735  0.01098274  1
  H+  H10  1  0.35307195  0.79052387  0.97271038  1
  H+  H11  1  0.86140830  0.14321844  0.16307898  1
  H+  H12  1  0.58524229  0.16752499  0.39931690  1
  H+  H13  1  0.13904735  0.21825117  0.69155709  1
  H+  H14  1  0.03252634  0.88320435  0.15132913  1
  H+  H15  1  0.54060208  0.89121961  0.82087746  1
  H+  H16  1  0.63754729  0.62085926  0.17166373  1
  H+  H17  1  0.89412522  0.53688108  0.50848042  1
  H+  H18  1  0.36390314  0.45949980  -0.00008833  1
  H+  H19  1  0.92237520  0.83574470  0.59324983  1
  H+  H20  1  0.15559758  0.10817553  0.67754554  1
  H+  H21  1  0.14627064  0.86387726  0.17437317  1
  H+  H22  1  0.52825890  0.15340599  0.65610012  1
  H+  H23  1  0.12152830  0.64796224  0.50494598  1
  H+  H24  1  0.64131456  0.66322085  0.35987109  1
  H+  H25  1  0.88374636  0.09743085  0.49871821  1
  H+  H26  1  0.65635031  0.63804307  0.83632661  1
  H+  H27  1  0.42581578  0.70732916  0.01097067  1
  H+  H28  1  0.48270842  0.59286421  0.32798867  1
  H+  H29  1  -0.05026475  0.36051912  0.50978491  1
  H+  H30  1  0.51523742  0.62320655  0.84244073  1
  H+  H31  1  0.14082553  0.77311704  -0.00242317  1
  H+  H32  1  0.73884051  0.38995883  0.83968486  1
  H+  H33  1  0.25685300  0.38932123  0.16853088  1
  H+  H34  1  0.11316685  0.72619194  0.83119456  1
  H+  H35  1  -0.03012847  0.09333736  0.50413502  1
  H+  H36  1  0.12890471  0.12282417  -0.00382180  1
  H+  H37  1  0.83566335  0.36698706  0.00913242  1
  H+  H38  1  0.64184353  0.12182406  0.33065542  1
  H+  H39  1  0.45608923  0.85575900  0.98790886  1
  H+  H40  1  0.33496681  0.65861630  0.42905596  1
  H+  H41  1  0.31170966  0.27468185  0.63135564  1
  H+  H42  1  0.87592361  0.63494657  0.33907017  1
  H+  H43  1  0.73238601  0.12172317  0.32928028  1
  H+  H44  1  0.09814175  0.63721138  0.16921805  1
  H+  H45  1  -0.01506203  0.62491688  0.51222388  1
  H+  H46  1  0.24552519  0.11111591  0.99239601  1
  H+  H47  1  0.14527303  0.01405927  0.17515432  1
  H+  H48  1  0.48924204  0.11886606  -0.02987460  1
  H+  H49  1  0.85987677  0.72502736  0.00790666  1
  H+  H50  1  0.46870450  0.35938915  0.33181905  1
  H+  H51  1  0.61570530  0.98476009  0.16194121  1
  H+  H52  1  0.88216596  1.02393518  0.16935188  1
  H+  H53  1  0.27678285  0.13302542  0.16224436  1
  H+  H54  1  0.75009682  0.37645641  0.01071101  1
  H+  H55  1  0.03477338  0.66545309  0.35514935  1
  H+  H56  1  0.08813557  0.66484272  0.77331403  1
  H+  H57  1  0.72277823  0.61465379  0.17696477  1
  H+  H58  1  0.89671787  0.62603938  0.99411812  1
  H+  H59  1  0.39731231  0.73928578  0.82913856  1
  H+  H60  1  0.09582439  0.68286373  0.44586014  1
  H+  H61  1  0.88571138  0.28139482  0.17888539  1
  H+  H62  1  0.38515529  0.36025023  1.00754717  1
  H+  H63  1  0.67725118  0.59428235  0.60095924  1
  H+  H64  1  0.64212582  0.76236802  0.83908146  1
  H+  H65  1  0.38967554  0.11525959  0.17625033  1
  H+  H66  1  0.58626245  0.41298290  0.44090152  1
  H+  H67  1  0.63310482  0.36927131  0.17769303  1
  H+  H68  1  0.59810554  0.40841264  0.84581135  1
  H+  H69  1  0.73680483  0.61890861  0.50399996  1
  H+  H70  1  0.71829086  0.86604199  0.16822521  1
  H+  H71  1  0.47543746  0.86604522  0.66171441  1
  H+  H72  1  0.03185328  0.63985826  0.67634208  1
  H+  H73  1  0.97441173  0.37296068  0.18108821  1
  H+  H74  1  -0.01956526  0.86575404  -0.00627708  1
  H+  H75  1  0.39456030  0.26742047  0.50525305  1
  H+  H76  1  0.52228641  0.13878728  0.16689717  1
  H+  H77  1  0.12416704  0.97602932  0.00333765  1
  H+  H78  1  0.39220587  0.02135154  0.50567002  1
  H+  H79  1  0.92003027  0.33741408  0.61090753  1
  H+  H80  1  0.16425763  0.26671459  0.84829736  1
  H+  H81  1  0.63967844  0.60701054  -0.00977072  1
  H+  H82  1  0.12665591  0.88747763  0.67490004  1
  H+  H83  1  0.63999155  0.27290217  0.97873204  1
  H+  H84  1  0.89484084  0.86598663  0.83726845  1
  H+  H85  1  0.11661010  0.12570446  0.49598720  1
  H+  H86  1  0.37256967  0.35464594  0.17593696  1
  H+  H87  1  0.07633486  0.12119311  0.86162639  1
  H+  H88  1  0.02884873  0.89167494  0.34270987  1
  H+  H89  1  0.89847065  0.00113689  0.97066570  1
  H+  H90  1  0.87440603  0.26818817  0.96496512  1
  H+  H91  1  0.61409654  0.73095567  0.66992737  1
  H+  H92  1  0.71789774  0.85748290  0.65161916  1
  H+  H93  1  0.11628124  0.14185994  0.33922659  1
  H+  H94  1  0.87776291  0.52867551  0.17262491  1
  H+  H95  1  0.89105028  0.28117980  0.82694627  1
  H+  H96  1  0.60743683  0.97630671  0.66340008  1
  H+  H97  1  0.89825978  0.77889242  0.83659142  1
  H+  H98  1  0.49531611  0.63410673  0.51051924  1
  H+  H99  1  0.40179303  0.36065785  0.50611580  1
  H+  H100  1  0.63269284  0.76173972  -0.01531856  1
  H+  H101  1  0.54209573  0.40659179  0.68187512  1
  H+  H102  1  0.23318558  0.87119193  0.66502957  1
  H+  H103  1  1.01584117  0.11666326  0.15447698  1
  H+  H104  1  0.72921828  0.35856872  0.51308768  1
  H+  H105  1  0.39335884  0.28834829  0.85863821  1
  H+  H106  1  0.12154385  0.72662505  0.67735599  1
  H+  H107  1  0.16370275  0.13121167  0.84055347  1
  H+  H108  1  0.14384816  0.78204370  0.51528287  1
  H+  H109  1  0.59583293  0.46989385  0.34653475  1
  H+  H110  1  0.37272291  0.39632419  0.67832279  1
  H+  H111  1  0.39532493  0.03842066  0.98180718  1
  H+  H112  1  0.36570901  0.90629652  -0.00106602  1
  H+  H113  1  0.11832387  0.54985463  0.91617883  1
  H+  H114  1  0.14606829  0.87348338  0.32931276  1
  H+  H115  1  0.78074740  0.64105840  0.67093258  1
  H+  H116  1  0.38322522  0.14678138  1.00547415  1
  H+  H117  1  0.77055159  0.22388546  1.03107535  1
  H+  H118  1  0.88964992  0.62142568  0.83616421  1
  H+  H119  1  0.21564354  0.62128848  0.18798270  1
  H+  H120  1  0.86932733  0.01003417  0.65806471  1
  H+  H121  1  0.85480595  0.63485104  0.16474982  1
  H+  H122  1  0.14273394  0.60846227  0.66437153  1
  H+  H123  1  0.27849117  0.13265149  0.49556502  1
  H+  H124  1  0.74988385  0.17737413  0.85263805  1
  H+  H125  1  0.63727192  0.11502355  0.18223321  1
  H+  H126  1  0.66501736  0.82547021  0.92672963  1
  H+  H127  1  0.08225790  0.13672504  0.05355359  1
  H+  H128  1  0.39672256  0.87741240  0.82981557  1
  H+  H129  1  0.96419029  0.10904312  0.81386474  1
  H+  H130  1  0.87086410  0.72829232  0.66750684  1
  H+  H131  1  0.85377257  0.88827644  0.14944595  1
  H+  H132  1  0.70993344  0.08071086  1.01119763  1
  H+  H133  1  0.68225314  0.20938161  0.84658328  1
  H+  H134  1  0.63302286  0.27960412  0.17975713  1
  H+  H135  1  0.40985632  0.10976652  0.88146540  1
  H+  H136  1  0.52561960  0.13850766  0.33962320  1
  H+  H137  1  0.26478536  0.38353195  0.34776462  1
  H+  H138  1  0.47948442  0.86874394  0.33038273  1
  H+  H139  1  0.84752953  0.11983645  0.68041075  1
  H+  H140  1  0.88731850  0.16465240  -0.02113125  1
  H+  H141  1  0.24210250  0.09989496  0.67426209  1
  H+  H142  1  0.35308689  0.98824107  0.82194993  1
  H+  H143  1  0.96425887  0.57350071  0.30458594  1
  H+  H144  1  0.60870292  0.88716991  0.65871148  1
  H+  H145  1  0.64479345  0.11478345  0.50064290  1
  H+  H146  1  0.37806281  0.35675242  0.33127436  1
  H+  H147  1  0.78548154  0.65444720  0.82599135  1
  H+  H148  1  0.22036265  0.60622832  0.50693170  1
  H+  H149  1  0.76645266  0.88176866  0.33561808  1
  H+  H150  1  0.09849744  0.91817573  0.09734338  1
  H+  H151  1  0.02828808  0.64554167  0.00681485  1
  H+  H152  1  0.87605896  0.72392660  0.34130829  1
  H+  H153  1  0.11501655  0.36102882  0.81817560  1
  H+  H154  1  0.36777782  0.64027268  0.67502735  1
  H+  H155  1  0.21069459  0.69655458  -0.00130221  1
  H+  H156  1  0.00832619  0.39225014  0.34036998  1
  H+  H157  1  0.64092787  0.35788934  0.50857370  1
  H+  H158  1  0.29950875  0.38693450  0.50119745  1
  H+  H159  1  0.53507531  0.38384872  0.50291631  1
  H+  H160  1  0.52941877  0.64035488  0.67337380  1
  H+  H161  1  0.23385721  0.61310488  0.66408523  1
  H+  H162  1  0.52513756  0.90397174  0.47503639  1
  H+  H163  1  0.88689360  1.02475891  0.32607989  1
  H+  H164  1  0.36294682  0.22491511  0.34062635  1
  H+  H165  1  0.37059837  0.89064910  0.34596015  1
  H+  H166  1  0.42473762  0.85504284  0.89132760  1
  H+  H167  1  0.88482593  0.86540604  0.32834145  1
  H+  H168  1  0.76389182  0.39366407  0.34372858  1
  H+  H169  1  0.87294150  0.40234492  0.81615624  1
  H+  H170  1  0.12894656  0.46990247  0.66920244  1
  H+  H171  1  0.82192131  0.90541708  0.39672937  1
  H+  H172  1  0.09964840  0.48025053  0.34341029  1
  H+  H173  1  0.89389372  0.62001923  0.66288309  1
  H+  H174  1  0.08539830  0.47163076  0.00429515  1
  H+  H175  1  0.87292099  0.49271756  0.82087759  1
  H+  H176  1  0.27355907  0.36840189  0.00284716  1
  H+  H177  1  0.39232498  1.02619533  0.33100992  1
  H+  H178  1  0.52798067  0.13298746  0.49236676  1
  H+  H179  1  0.85572410  0.38462815  0.16075383  1
  H+  H180  1  0.99447283  0.08186428  0.97146428  1
  H+  H181  1  0.73246816  0.11015041  0.50043610  1
  H+  H182  1  0.12748658  0.74738682  0.34795401  1
  H+  H183  1  0.86507272  0.23316717  0.33738167  1
  H+  H184  1  0.58910267  0.21028621  0.75378588  1
  H+  H185  1  0.76184815  0.12509963  0.68081483  1
  H+  H186  1  0.86412652  0.21405703  0.49405210  1
  H+  H187  1  0.10878020  0.19668619  0.14296264  1
  H+  H188  1  0.88630594  0.49719179  0.66996496  1
  H+  H189  1  -0.02247299  0.61798465  0.83877299  1
  H+  H190  1  0.61022087  0.38039555  0.01162937  1
  H+  H191  1  1.03303136  0.37365349  0.81167626  1
  H+  H192  1  0.36695366  0.63094495  0.48824351  1
  H+  H193  1  0.36313126  0.22510152  0.16364416  1
  H+  H194  1  0.61726776  0.22239477  0.49209476  1
  H+  H195  1  0.62842251  0.86941602  0.32162636  1
  H+  H196  1  0.28377265  0.39255655  0.67938679  1
  H+  H197  1  0.63995915  -0.00469329  0.98238687  1
  H+  H198  1  0.16564174  0.83329770  0.90068873  1
  H+  H199  1  0.85421562  0.87501941  0.66743011  1
  H+  H200  1  0.08897512  0.16074677  0.43725071  1
  H+  H201  1  0.63385568  0.15767985  -0.06264106  1
  H+  H202  1  0.39225897  0.26696130  0.00795435  1
  H+  H203  1  0.12253869  0.40433710  0.18457801  1
  H+  H204  1  0.39469726  0.88914700  0.16716056  1
  H+  H205  1  0.17209982  0.01587517  0.83613738  1
  H+  H206  1  0.27825094  0.88859623  0.16144306  1
  H+  H207  1  0.75998499  0.86014860  0.48834650  1
  H+  H208  1  0.01099008  0.64114625  0.16669675  1
  H+  H209  1  0.52526914  0.17779211  0.80967941  1
  H+  H210  1  0.52855786  0.63360749  0.15707341  1
  H+  H211  1  -0.01984277  0.86600045  0.65371507  1
  H+  H212  1  0.41461360  0.53732003  0.50524276  1
  H+  H213  1  0.13888704  1.02618237  0.33105317  1
  H+  H214  1  0.06459282  0.54654338  1.00235951  1
  H+  H215  1  0.36692489  0.21200292  0.68349447  1
  H+  H216  1  0.10958571  0.38401608  0.47636380  1
  H+  H217  1  0.22769075  0.86657416  0.99377365  1
  H+  H218  1  0.13646533  0.09692997  0.17249164  1
  H+  H219  1  0.35542253  0.15173227  0.74306359  1
  H+  H220  1  0.87259507  0.36830401  0.33062551  1
  H+  H221  1  -0.00506502  0.37806012  0.66226440  1
  H+  H222  1  0.27450001  0.13544015  0.34020620  1
  H+  H223  1  0.42103769  0.62122948  0.84594664  1
  H+  H224  1  0.47995854  0.51621551  0.20616208  1
  H+  H225  1  0.59509865  0.86071537  1.00005522  1
  H+  H226  1  0.60761760  0.48072841  0.16520098  1
  H+  H227  1  0.11604237  0.88928280  0.49744051  1
  H+  H228  1  0.15237115  0.42043227  0.46542267  1
  H+  H229  1  0.36416333  0.72734024  0.67946935  1
  H+  H230  1  0.15423297  0.25435256  0.51229773  1
  H+  H231  1  0.12913845  0.36609170  0.33711615  1
  H+  H232  1  0.13923896  0.77272518  0.17779821  1
  H+  H233  1  0.64804989  0.62775535  0.65941945  1
  H+  H234  1  0.64671680  0.85673826  0.83543066  1
  H+  H235  1  0.60260493  0.38420069  0.34451181  1
  H+  H236  1  0.66809707  0.08652306  0.59437997  1
  H+  H237  1  0.14261188  0.62398140  0.33784655  1
  H+  H238  1  0.91310208  0.44428817  0.47246406  1
  H+  H239  1  0.37947330  0.48644961  0.83325594  1
  H+  H240  1  0.77248248  0.63358972  0.00579752  1
  H+  H241  1  0.38826919  0.75679098  0.50450523  1
  H+  H242  1  0.68832706  0.59992938  0.89093420  1
  H+  H243  1  0.52286887  0.61867144  0.99931682  1
  H+  H244  1  0.88616349  0.13982227  1.00683323  1
  H+  H245  1  0.22865078  0.66367518  -0.06219193  1
  H+  H246  1  0.11504427  0.88313176  1.00534298  1
  H+  H247  1  0.36373227  0.88940222  0.67655504  1
  H+  H248  1  0.36946038  0.88478708  0.49646941  1
  H+  H249  1  0.35833884  0.46794657  0.34427261  1
  H+  H250  1  0.64108925  0.51950208  -0.00922678  1
  H+  H251  1  0.27277236  0.62552806  0.33464503  1
  H+  H252  1  0.39145934  0.11058982  0.50331032  1
  H+  H253  1  0.39181993  0.49263614  0.17599326  1
  H+  H254  1  0.61046007  0.89185142  0.16017905  1
  H+  H255  1  0.88587917  0.86036604  0.50060458  1
  H+  H256  1  0.61820865  0.98434251  0.33189178  1
  H+  H257  1  0.82235496  0.65818299  0.10257069  1
  H+  H258  1  0.02586170  0.88890327  0.49402965  1
  H+  H259  1  0.51817046  0.39015255  0.16489091  1
  H+  H260  1  0.87265858  0.64638491  0.49535075  1
  H+  H261  1  0.11179524  0.87663074  0.82440036  1
  H+  H262  1  0.85860638  0.96599671  0.81662110  1
  H+  H263  1  0.63017440  0.27589857  0.33064065  1
  H+  H264  1  0.36460300  0.98265516  0.16251067  1
  H+  H265  1  0.38902001  0.11379882  0.32876098  1
  H+  H266  1  0.39647777  0.11165495  0.66004707  1
  H+  H267  1  0.14205991  0.01950375  0.51252052  1
  H+  H268  1  0.64638700  0.53222612  0.50699764  1
  H+  H269  1  0.91987120  0.83702313  0.09674804  1
  H+  H270  1  0.36327887  0.62248713  0.33257817  1
  H+  H271  1  0.39232703  0.52976298  0.66161195  1
  H+  H272  1  0.22540751  0.86665500  0.84070413  1
  H+  H273  1  0.06711481  0.49635535  0.49194346  1
  H+  H274  1  0.13316625  0.30741058  0.19144843  1
  H+  H275  1  0.37119924  0.66945274  0.19142628  1
  H+  H276  1  0.41864534  0.08376214  0.23598691  1
  H+  H277  1  0.13422625  0.98831121  0.67865808  1
  H+  H278  1  0.63961617  0.12634789  0.64791672  1
  H+  H279  1  0.89209474  0.77492672  0.50126486  1
  H+  H280  1  0.14829595  0.35206611  0.66284730  1
  H+  H281  1  0.44854253  0.72042358  0.98078300  1
  H+  H282  1  0.89553276  0.40299704  0.67162708  1
  H+  H283  1  0.49666349  0.89015408  0.16703713  1
  H+  H284  1  0.62367268  0.49825499  0.68395512  1
  H+  H285  1  0.60912404  0.73053771  0.15476289  1
  H+  H286  1  0.34766993  0.69019008  0.25554731  1
  H+  H287  1  0.84685100  0.95585084  0.48920700  1
  H+  H288  1  0.82563347  0.16465310  0.76902105  1
  H+  H289  1  0.59406370  0.91063054  0.76102625  1
  H+  H290  1  0.11841506  0.15992412  0.75109277  1
  H+  H291  1  0.82234254  0.89848793  0.72847050  1
  H+  H292  1  0.08852160  0.91987594  0.40214283  1
  H+  H293  1  0.09052555  0.42491372  0.12215815  1
  H+  H294  1  0.17562427  0.07836879  0.57241396  1
  H+  H295  1  0.91955830  0.08266637  0.22923030  1
  H+  H296  1  0.23652418  0.36578867  0.84548762  1
  H+  H297  1  0.17104211  0.32179744  0.93508992  1
  H+  H298  1  0.19547678  0.07524268  0.92949490  1
  H+  H299  1  0.43431284  0.56850782  0.92033918  1
  H+  H300  1  0.85500873  0.48417012  0.33479818  1
  H+  H301  1  0.89799464  0.06904441  0.60026152  1
  H+  H302  1  0.66482859  0.08244904  0.24122389  1
  H+  H303  1  0.67530865  0.35133409  0.93167800  1
  H+  H304  1  0.42222657  0.08305780  0.59668376  1
  H+  H305  1  0.27101457  0.10091395  0.84006747  1
  H+  H306  1  0.64832829  0.58170131  0.26687424  1
  H+  H307  1  0.31449778  0.40437055  0.10457571  1
  H+  H308  1  0.83880613  0.16432823  0.42989028  1
  H+  H309  1  0.56272277  0.42573517  0.78751695  1
  H+  H310  1  0.76927616  0.18002317  0.09301054  1
  H+  H311  1  0.39915534  0.31234714  0.59691005  1
  H+  H312  1  0.13301006  0.61403830  0.86241408  1
  H+  H313  1  0.85255549  0.87624274  0.00468720  1
  H+  H314  1  0.65750413  0.81720963  0.59181795  1
  H+  H315  1  0.33458285  0.16254432  0.43381999  1
  H+  H316  1  0.84473836  0.66973931  0.43155072  1
  H+  H317  1  0.09073735  0.91366804  0.74020449  1
  H+  H318  1  0.39266378  0.77869297  0.33595229  1
  H+  H319  1  0.85148117  0.43452167  0.73216548  1
  H+  H320  1  0.47720487  0.81450093  0.53626227  1
  H+  H321  1  0.16949090  0.58364629  0.57065079  1
  H+  H322  1  0.97788477  0.11236838  0.32703055  1
  H+  H323  1  0.61465022  0.77483123  0.31888229  1
  H+  H324  1  0.92656201  0.59316056  0.60281602  1
  H+  H325  1  0.84641515  0.67844536  0.76579054  1
  H+  H326  1  0.88219894  0.76921972  0.14899673  1
  H+  H327  1  0.86946611  0.14499256  0.33392725  1
  H+  H328  1  0.58218131  0.65951347  0.05885422  1
  H+  H329  1  0.58592585  0.41577893  0.07259002  1
  H+  H330  1  0.90278926  0.57954368  0.23864414  1
  H+  H331  1  0.85983388  0.14375601  0.83006909  1
  H+  H332  1  0.83733082  0.43266270  0.43104216  1
  H+  H333  1  0.36968979  0.98118483  0.67171418  1
  H+  H334  1  0.76418425  0.38373600  0.16232790  1
  H+  H335  1  0.64353621  0.31116747  0.83600012  1
  H+  H336  1  0.28208049  0.62458553  0.08518131  1
  H+  H337  1  0.40892709  0.33126042  0.23558092  1
  H+  H338  1  0.02609434  0.88615462  0.82312689  1
  H+  H339  1  0.92673984  0.59932510  0.93374047  1
  H+  H340  1  0.32741514  0.92475717  0.76608118  1
  H+  H341  1  0.59365492  0.67126691  0.77631316  1
  H+  H342  1  0.36017052  0.67148263  0.77626666  1
  H+  H343  1  0.65913301  0.33825968  0.27252882  1
  H+  H344  1  0.18335849  0.31526222  0.61092611  1
  H+  H345  1  0.63139763  0.28419505  0.60300447  1
  H+  H346  1  0.62991430  0.14591268  0.00641079  1
  H+  H347  1  0.34033912  0.91521753  0.43702734  1
  H+  H348  1  0.40165050  0.80464979  0.19643221  1
  H+  H349  1  0.17633987  0.84056112  0.27096871  1
  H+  H350  1  0.81544180  0.40170474  0.07851831  1
  H+  H351  1  0.03542997  0.44050459  0.43065345  1
  H+  H352  1  0.92743074  0.07082643  0.88043115  1
  H+  H353  1  0.23360758  0.86992318  0.51215030  1
  H+  H354  1  0.64492244  0.68196770  0.50917165  1
  H+  H355  1  0.11246539  0.22947833  0.34253378  1
  H+  H356  1  0.57116010  0.89967615  0.05756976  1
  H+  H357  1  0.77293444  0.87438579  0.82554397  1
  H+  H358  1  0.82067684  0.91870492  0.09412352  1
  H+  H359  1  0.16865953  0.08118888  0.26982623  1
  H+  H360  1  0.42586103  0.56198705  0.26937524  1
  H+  H361  1  0.92065380  0.83926577  0.27119897  1
  H+  H362  1  0.34208885  0.42773491  0.77410313  1
  H+  H363  1  0.08030645  0.66771137  0.07045730  1
  H+  H364  1  0.16739406  0.35146875  0.27495075  1
  H+  H365  1  0.59295824  0.17183777  0.11357636  1
  H+  H366  1  0.09561639  0.40205912  0.72493261  1
  H+  H367  1  0.15828577  0.58868329  0.27527219  1
  H+  H368  1  0.61797707  0.98557524  0.48373859  1
  H+  H369  1  0.65745136  0.83476430  0.22769035  1
  H+  H370  1  0.17262379  0.84142789  0.60537098  1
  H+  H371  1  0.30458291  0.67253343  0.08962631  1
  H+  H372  1  0.92740919  0.35094133  0.88011942  1
  H+  H373  1  0.79265394  0.25950680  0.92867904  1
  H+  H374  1  0.58950308  0.92590572  0.39169993  1
  H+  H375  1  0.90483481  0.34183489  0.27018919  1
  H+  H376  1  0.19921391  0.47020651  0.05363002  1
  H+  H377  1  0.34662197  0.41757383  0.43770320  1
  H+  H378  1  0.28295893  0.89440316  0.34536733  1
  H+  H379  1  0.40664897  0.82858489  0.60786233  1
  H+  H380  1  0.34657462  0.16511944  0.06897905  1
  H+  H381  1  0.42245004  0.58965952  0.60186194  1
  H+  H382  1  0.33882178  0.93609668  0.05982036  1
  H+  H383  1  0.16444224  0.34609304  0.51751176  1
  O2-  O384  1  0.07460006  0.13501222  0.13633284  1
  O2-  O385  1  0.08844549  0.15880989  0.48271508  1
  O2-  O386  1  0.12368929  0.15514404  0.83383332  1
  O2-  O387  1  0.08355319  0.42905673  0.16638112  1
  O2-  O388  1  0.01529611  0.45143270  0.47059764  1
  O2-  O389  1  0.09059462  0.39131186  0.79517505  1
  O2-  O390  1  0.07246247  0.67075595  0.15240274  1
  O2-  O391  1  0.09226580  0.68030984  0.49114409  1
  O2-  O392  1  0.08182412  0.66484812  0.81824093  1
  O2-  O393  1  0.09535818  0.91425339  0.14320679  1
  O2-  O394  1  0.08785912  0.92073856  0.48065522  1
  O2-  O395  1  0.08629427  0.91027589  0.80538866  1
  O2-  O396  1  0.33777605  0.16514452  0.14757108  1
  O2-  O397  1  0.33849682  0.16310020  0.47938683  1
  O2-  O398  1  0.36035916  0.14622915  0.81576277  1
  O2-  O399  1  0.31679705  0.40601996  0.14961770  1
  O2-  O400  1  0.35733944  0.42213399  0.48278587  1
  O2-  O401  1  0.33697863  0.42679967  0.81899327  1
  O2-  O402  1  0.34489991  0.69919305  0.21126766  1
  O2-  O403  1  0.33285926  0.65797022  0.47398711  1
  O2-  O404  1  0.37645703  0.67825809  0.81960282  1
  O2-  O405  1  0.33864841  0.92288686  0.14521593  1
  O2-  O406  1  0.33872050  0.91420131  0.48309978  1
  O2-  O407  1  0.32610650  0.92635461  0.81155749  1
  O2-  O408  1  0.58595464  0.17228107  0.15754326  1
  O2-  O409  1  0.58781016  0.16247908  0.47555566  1
  O2-  O410  1  0.58684338  0.21131122  0.79870682  1
  O2-  O411  1  0.57908286  0.41984435  0.15033534  1
  O2-  O412  1  0.59452808  0.41485913  0.48595439  1
  O2-  O413  1  0.54549723  0.40427369  0.82951697  1
  O2-  O414  1  0.58639855  0.67060578  0.13933472  1
  O2-  O415  1  0.61283075  0.71046326  0.49492055  1
  O2-  O416  1  0.59697035  0.67244738  0.82098321  1
  O2-  O417  1  0.58158466  0.92433885  0.14520865  1
  O2-  O418  1  0.58514347  0.92838421  0.46286677  1
  O2-  O419  1  0.59927201  0.91028574  0.80565114  1
  O2-  O420  1  0.82970334  0.17488873  0.15780061  1
  O2-  O421  1  0.83588981  0.15601206  0.47501939  1
  O2-  O422  1  0.83420325  0.17801046  0.81512850  1
  O2-  O423  1  0.82233832  0.41053113  0.14206649  1
  O2-  O424  1  0.85402496  0.43599783  0.47553202  1
  O2-  O425  1  0.84216481  0.43269848  0.80230167  1
  O2-  O426  1  0.82310303  0.66416082  0.14809724  1
  O2-  O427  1  0.84142227  0.67405009  0.47767406  1
  O2-  O428  1  0.84943786  0.68145013  0.81094981  1
  O2-  O429  1  0.82265504  0.91953782  0.14009714  1
  O2-  O430  1  0.82084582  0.89660007  0.47179456  1
  O2-  O431  1  0.83293676  0.90411873  0.80666545  1
  O2-  O432  1  0.17257546  0.07478713  0.19028654  1
  O2-  O433  1  0.17479279  0.08061111  0.52743022  1
  O2-  O434  1  0.20714272  0.07281383  0.85531873  1
  O2-  O435  1  0.17376563  0.36631236  0.20304144  1
  O2-  O436  1  0.19178312  0.31346896  0.53088656  1
  O2-  O437  1  0.17633655  0.32507125  0.86007607  1
  O2-  O438  1  0.15473010  0.58954759  0.19944706  1
  O2-  O439  1  0.16302326  0.58588184  0.52517192  1
  O2-  O440  1  0.16282311  0.59227619  0.88830930  1
  O2-  O441  1  0.17630785  0.83417462  0.19127757  1
  O2-  O442  1  0.17407226  0.84385118  0.52884255  1
  O2-  O443  1  0.16422357  0.83317405  0.85518548  1
  O2-  O444  1  0.41987872  0.08395355  0.19009467  1
  O2-  O445  1  0.42341564  0.08244578  0.51958686  1
  O2-  O446  1  0.40940316  0.10438834  0.83640273  1
  O2-  O447  1  0.41023174  0.33171966  0.18983513  1
  O2-  O448  1  0.42605645  0.32609338  0.52406029  1
  O2-  O449  1  0.34312170  0.29018155  0.87361903  1
  O2-  O450  1  0.44438796  0.54184352  0.19723087  1
  O2-  O451  1  0.43314115  0.59655901  0.51962500  1
  O2-  O452  1  0.44756720  0.58601833  0.85884539  1
  O2-  O453  1  0.43404880  0.86770781  0.18606297  1
  O2-  O454  1  0.42469534  0.81457351  0.52454284  1
  O2-  O455  1  0.43056708  0.85256444  0.84636526  1
  O2-  O456  1  0.66462589  0.08117560  0.19515621  1
  O2-  O457  1  0.67228419  0.08218718  0.51660702  1
  O2-  O458  1  0.71625596  0.19818709  0.87652674  1
  O2-  O459  1  0.66554343  0.34100706  0.19274381  1
  O2-  O460  1  0.66805076  0.32362090  0.52328178  1
  O2-  O461  1  0.68198542  0.36336377  0.86031796  1
  O2-  O462  1  0.66102166  0.58629327  0.19077651  1
  O2-  O463  1  0.67710695  0.59291956  0.52078285  1
  O2-  O464  1  0.69643135  0.61390352  0.84741557  1
  O2-  O465  1  0.65688341  0.83576066  0.18200984  1
  O2-  O466  1  0.66232608  0.79885870  0.51803767  1
  O2-  O467  1  0.67656344  0.82758674  0.85393856  1
  O2-  O468  1  0.91922115  0.08447115  0.18367764  1
  O2-  O469  1  0.90794638  0.06182849  0.51440107  1
  O2-  O470  1  0.91146459  0.07894621  0.83746397  1
  O2-  O471  1  0.91154924  0.34300690  0.19145557  1
  O2-  O472  1  0.89766673  0.31308956  0.53046415  1
  O2-  O473  1  0.92450293  0.34549945  0.83589527  1
  O2-  O474  1  0.90491999  0.58697263  0.18991682  1
  O2-  O475  1  0.92416982  0.59565058  0.52697018  1
  O2-  O476  1  0.91579521  0.58678884  0.85197105  1
  O2-  O477  1  0.91717563  0.83367419  0.14116406  1
  O2-  O478  1  0.92182166  0.83622355  0.51664050  1
  O2-  O479  1  0.92921615  0.83999937  0.85334169  1
  O2-  O480  1  0.16881559  0.08645008  0.31504585  1
  O2-  O481  1  0.18081412  0.07215934  0.65899057  1
  O2-  O482  1  0.18679353  0.07773104  0.97469801  1
  O2-  O483  1  0.16216184  0.33967423  0.32113191  1
  O2-  O484  1  0.18264015  0.32246639  0.65577049  1
  O2-  O485  1  0.17176748  0.31800982  0.98109934  1
  O2-  O486  1  0.16577938  0.58855564  0.32068772  1
  O2-  O487  1  0.17370656  0.58029560  0.64702194  1
  O2-  O488  1  0.05302473  0.49350905  0.98136409  1
  O2-  O489  1  0.17784352  0.84339724  0.31647886  1
  O2-  O490  1  0.17098687  0.84075809  0.65124944  1
  O2-  O491  1  0.16654096  0.83250443  0.98000354  1
  O2-  O492  1  0.42082453  0.08526155  0.31277294  1
  O2-  O493  1  0.42805294  0.08365198  0.64211145  1
  O2-  O494  1  0.42693502  0.09855067  0.96559780  1
  O2-  O495  1  0.40927826  0.32859082  0.31377349  1
  O2-  O496  1  0.37321175  0.30125550  0.63916552  1
  O2-  O497  1  0.42245409  0.33190597  0.99834520  1
  O2-  O498  1  0.42315475  0.57175361  0.31407817  1
  O2-  O499  1  0.42076282  0.59058529  0.64692536  1
  O2-  O500  1  0.42181581  0.55606590  0.96932889  1
  O2-  O501  1  0.41650640  0.83794119  0.32128358  1
  O2-  O502  1  0.41114847  0.83449686  0.65248113  1
  O2-  O503  1  0.40361202  0.85080424  0.96867211  1
  O2-  O504  1  0.67122398  0.09063686  0.31477938  1
  O2-  O505  1  0.66017201  0.08577218  0.63946392  1
  O2-  O506  1  0.68476115  0.05457701  0.97208725  1
  O2-  O507  1  0.65663186  0.33749994  0.31784886  1
  O2-  O508  1  0.60365752  0.27697247  0.64333018  1
  O2-  O509  1  0.66672831  0.33707106  0.97738742  1
  O2-  O510  1  0.63609174  0.57186738  0.31190830  1
  O2-  O511  1  0.68001660  0.59771838  0.64625596  1
  O2-  O512  1  0.67384473  0.57976419  0.97692939  1
  O2-  O513  1  0.65372622  0.83327806  0.30514656  1
  O2-  O514  1  0.65722169  0.83007729  0.63669754  1
  O2-  O515  1  0.66058321  0.82356223  0.97324478  1
  O2-  O516  1  0.91850088  0.08423875  0.30942546  1
  O2-  O517  1  0.89628026  0.07087321  0.64503079  1
  O2-  O518  1  0.94558173  0.04368153  0.94466190  1
  O2-  O519  1  0.90421645  0.33865215  0.31558802  1
  O2-  O520  1  0.93256767  0.35802815  0.65348503  1
  O2-  O521  1  0.83698038  0.29278633  0.96114952  1
  O2-  O522  1  0.90935346  0.57187576  0.30392367  1
  O2-  O523  1  0.92760121  0.59174064  0.64858206  1
  O2-  O524  1  0.93426153  0.60455301  0.97855282  1
  O2-  O525  1  0.92228873  0.84105983  0.31546169  1
  O2-  O526  1  0.92068005  0.83319829  0.63910344  1
  O2-  O527  1  0.91911038  0.83310629  0.98040457  1
  O2-  O528  1  0.09156863  0.14707049  0.00926103  1
  O2-  O529  1  0.08342060  0.16825148  0.35651923  1
  O2-  O530  1  0.11750812  0.15864872  0.70614792  1
  O2-  O531  1  0.13992762  0.42517193  0.04699813  1
  O2-  O532  1  0.06599410  0.42140527  0.36081773  1
  O2-  O533  1  0.09663184  0.40728082  0.67847700  1
  O2-  O534  1  0.08794150  0.66840243  0.02561747  1
  O2-  O535  1  0.09510526  0.68770645  0.36644407  1
  O2-  O536  1  0.09222718  0.66628652  0.69174744  1
  O2-  O537  1  0.08827131  0.91702620  0.02100789  1
  O2-  O538  1  0.08993968  0.92113348  0.35652202  1
  O2-  O539  1  0.09660711  0.92022634  0.69170909  1
  O2-  O540  1  0.34921767  0.17204827  0.02370574  1
  O2-  O541  1  0.33502364  0.16415001  0.35575090  1
  O2-  O542  1  0.34464191  0.15190053  0.69701893  1
  O2-  O543  1  0.33306761  0.40177682  0.02116940  1
  O2-  O544  1  0.32646755  0.40862911  0.36110271  1
  O2-  O545  1  0.34544949  0.42922396  0.69219496  1
  O2-  O546  1  0.25850405  0.70117640  -0.02548324  1
  O2-  O547  1  0.33689013  0.65895305  0.34041398  1
  O2-  O548  1  0.33417277  0.66600688  0.69223001  1
  O2-  O549  1  0.33556401  0.93746231  0.01496872  1
  O2-  O550  1  0.34272290  0.92393909  0.36182698  1
  O2-  O551  1  0.33370437  0.92176959  0.68851788  1
  O2-  O552  1  0.60456414  0.16374331  -0.02612165  1
  O2-  O553  1  0.58680126  0.17068987  0.35362580  1
  O2-  O554  1  0.59100131  0.19483406  0.66710486  1
  O2-  O555  1  0.58122430  0.41180862  0.02710526  1
  O2-  O556  1  0.56915534  0.41026231  0.36227300  1
  O2-  O557  1  0.59373103  0.44201342  0.70540113  1
  O2-  O558  1  0.58360820  0.65543167  0.01383674  1
  O2-  O559  1  0.60244794  0.62974234  0.32670511  1
  O2-  O560  1  0.59065425  0.67132466  0.68609419  1
  O2-  O561  1  0.56157806  0.88884299  0.01365338  1
  O2-  O562  1  0.58734323  0.92286147  0.34527788  1
  O2-  O563  1  0.57695899  0.91492805  0.67606101  1
  O2-  O564  1  0.73205738  0.18881776  0.06399828  1
  O2-  O565  1  0.83750920  0.17203520  0.35155094  1
  O2-  O566  1  0.81868745  0.14878578  0.70034572  1
  O2-  O567  1  0.81162219  0.40039721  0.02937739  1
  O2-  O568  1  0.82533369  0.42420693  0.35640061  1
  O2-  O569  1  0.85917713  0.43505592  0.68561878  1
  O2-  O570  1  0.83114223  0.66601246  0.02525512  1
  O2-  O571  1  0.84944202  0.66613783  0.35912097  1
  O2-  O572  1  0.84264654  0.66912969  0.68476727  1
  O2-  O573  1  0.82344441  0.90840329  0.01761075  1
  O2-  O574  1  0.82639968  0.91107798  0.35084423  1
  O2-  O575  1  0.81955695  0.89988028  0.68296422  1
