# generated using pymatgen
data_H2O
_symmetry_space_group_name_H-M   'P 1'
_cell_length_a   17.99525124
_cell_length_b   17.99230519
_cell_length_c   21.99855140
_cell_angle_alpha   90.00055322
_cell_angle_beta   90.01046626
_cell_angle_gamma   119.99518232
_symmetry_Int_Tables_number   1
_chemical_formula_structural   H2O
_chemical_formula_sum   'H384 O192'
_cell_volume   6168.65539534
_cell_formula_units_Z   192
loop_
 _symmetry_equiv_pos_site_id
 _symmetry_equiv_pos_as_xyz
  1  'x, y, z'
loop_
 _atom_type_symbol
 _atom_type_oxidation_number
  H+  1.0
  O2-  -2.0
loop_
 _atom_site_type_symbol
 _atom_site_label
 _atom_site_symmetry_multiplicity
 _atom_site_fract_x
 _atom_site_fract_y
 _atom_site_fract_z
 _atom_site_occupancy
  H+  H0  1  0.61795152  0.64151953  -0.01799709  1
  H+  H1  1  0.12917915  0.64530969  1.01013620  1
  H+  H2  1  0.71893151  0.61212958  0.50728017  1
  H+  H3  1  0.38619593  0.30044974  0.66148313  1
  H+  H4  1  0.42222683  0.08693769  0.65930166  1
  H+  H5  1  0.73440622  0.88309480  0.16862280  1
  H+  H6  1  0.79085421  0.15256856  0.67841537  1
  H+  H7  1  0.52997417  0.14706441  0.49582365  1
  H+  H8  1  0.26449238  0.63810271  0.15860758  1
  H+  H9  1  0.13558281  0.53552362  0.34155278  1
  H+  H10  1  0.42505416  0.04580691  0.51130254  1
  H+  H11  1  0.70616912  0.60756992  0.86991896  1
  H+  H12  1  0.39398235  -0.00984022  0.19033809  1
  H+  H13  1  0.60388114  0.62793150  0.49378960  1
  H+  H14  1  0.86420155  0.12671611  0.84531761  1
  H+  H15  1  0.98208421  0.62171601  0.66746704  1
  H+  H16  1  0.63634138  0.85200331  0.31322961  1
  H+  H17  1  0.62302273  0.56485421  0.16232575  1
  H+  H18  1  0.87125293  0.14162163  0.48742286  1
  H+  H19  1  0.11116897  0.13956961  0.51257511  1
  H+  H20  1  0.85952588  0.88466339  0.16209404  1
  H+  H21  1  0.14016311  0.86077008  -0.00074094  1
  H+  H22  1  0.10738772  0.35670161  0.63628056  1
  H+  H23  1  0.87027431  0.27608490  0.65439563  1
  H+  H24  1  0.65159109  0.04491398  0.16656505  1
  H+  H25  1  0.06585110  0.86573630  0.47129212  1
  H+  H26  1  0.11146443  0.72493713  0.49563326  1
  H+  H27  1  0.71296890  0.37174201  0.26899876  1
  H+  H28  1  0.64077913  0.78133083  0.99547622  1
  H+  H29  1  0.09339786  0.74781839  0.47649776  1
  H+  H30  1  0.14667750  0.52228586  1.00034030  1
  H+  H31  1  0.73199116  0.37124664  0.48537716  1
  H+  H32  1  0.52750170  0.89418719  0.16239623  1
  H+  H33  1  0.09197404  0.38612310  0.34748781  1
  H+  H34  1  1.01585070  0.14156740  0.17571111  1
  H+  H35  1  0.60974878  0.39193209  0.66732651  1
  H+  H36  1  0.38972616  0.80439223  0.27569183  1
  H+  H37  1  0.44279060  0.60575381  0.15688049  1
  H+  H38  1  0.86435041  0.76405213  0.50466632  1
  H+  H39  1  0.16215406  0.61725719  0.84468813  1
  H+  H40  1  0.27830935  0.14196814  0.67772498  1
  H+  H41  1  0.38458694  0.50365171  0.33022184  1
  H+  H42  1  0.22679131  0.62347849  0.33473757  1
  H+  H43  1  0.54520157  0.11866471  0.77032372  1
  H+  H44  1  0.64154686  0.53323705  0.97394605  1
  H+  H45  1  0.25036374  0.15723293  0.94006911  1
  H+  H46  1  0.35840719  0.82931971  0.67775145  1
  H+  H47  1  0.58238235  0.92223066  0.07414251  1
  H+  H48  1  0.27249737  0.61242720  0.83189193  1
  H+  H49  1  0.52079179  0.40867290  0.82618850  1
  H+  H50  1  0.63379829  0.15624689  0.48037552  1
  H+  H51  1  0.98641190  0.15184680  0.64414236  1
  H+  H52  1  0.22945333  0.23680116  0.62319677  1
  H+  H53  1  0.11764282  0.63968622  0.67230597  1
  H+  H54  1  0.09926069  0.99760316  -0.01284004  1
  H+  H55  1  0.86081733  0.67032986  0.94443610  1
  H+  H56  1  0.70033716  0.36752933  0.84139229  1
  H+  H57  1  0.10657491  0.22432149  0.35066003  1
  H+  H58  1  0.39601244  0.77184318  1.00491437  1
  H+  H59  1  0.19099433  0.92527106  0.53418400  1
  H+  H60  1  0.34885330  0.62306896  0.49355410  1
  H+  H61  1  0.09992444  0.12518327  -0.01002640  1
  H+  H62  1  0.85312954  0.52214874  0.52983447  1
  H+  H63  1  0.89048596  0.11615509  0.18118129  1
  H+  H64  1  0.23584886  0.61187737  -0.00182853  1
  H+  H65  1  0.24441757  0.42300294  0.62619791  1
  H+  H66  1  0.64009568  0.38607049  0.18090569  1
  H+  H67  1  0.40135289  0.03654506  0.99729929  1
  H+  H68  1  0.63951423  0.75804327  0.33038163  1
  H+  H69  1  0.42680496  0.29226651  0.98886207  1
  H+  H70  1  0.56117868  0.64972622  0.21351747  1
  H+  H71  1  0.87144536  0.75814532  0.17722642  1
  H+  H72  1  0.64963841  0.37983811  0.99725908  1
  H+  H73  1  0.64163242  0.99248025  0.46616114  1
  H+  H74  1  0.91217066  1.01378588  0.65856642  1
  H+  H75  1  0.49693211  0.14559570  0.32318110  1
  H+  H76  1  0.36491303  0.73516476  0.67095443  1
  H+  H77  1  0.31059998  0.56197507  0.67465972  1
  H+  H78  1  0.49401482  0.13595425  0.16997109  1
  H+  H79  1  0.36761317  0.47541267  0.48393640  1
  H+  H80  1  0.49323954  0.86954639  1.00586626  1
  H+  H81  1  0.40119741  0.63445327  0.68691404  1
  H+  H82  1  0.37005894  0.60926025  0.83099170  1
  H+  H83  1  0.30922500  0.41133703  0.31284684  1
  H+  H84  1  0.01793108  0.87556756  0.01708636  1
  H+  H85  1  0.52764080  0.38849435  0.33858127  1
  H+  H86  1  0.60742823  0.63997187  0.84279221  1
  H+  H87  1  0.34942559  0.47569857  0.17003059  1
  H+  H88  1  0.87134589  0.22625463  0.84676250  1
  H+  H89  1  0.97204588  0.09930427  0.50005086  1
  H+  H90  1  1.01376531  0.61883757  0.16364162  1
  H+  H91  1  0.14341175  0.13148966  0.16318463  1
  H+  H92  1  0.77348491  0.63953439  -0.02350861  1
  H+  H93  1  0.88469660  0.75409980  0.66521234  1
  H+  H94  1  0.97166015  0.10562230  0.33792179  1
  H+  H95  1  0.76955964  0.61384705  0.16456393  1
  H+  H96  1  0.72872112  0.86464155  0.84856195  1
  H+  H97  1  0.70440963  0.83383025  0.65979298  1
  H+  H98  1  0.93692848  0.34649203  0.25848143  1
  H+  H99  1  0.55282058  0.40954434  0.00676498  1
  H+  H100  1  0.88210225  0.86148946  0.32434830  1
  H+  H101  1  0.13685781  0.76799918  0.67011152  1
  H+  H102  1  0.14593254  0.10356830  0.65770371  1
  H+  H103  1  0.74673671  0.13098566  0.48404777  1
  H+  H104  1  0.77630250  0.37318933  1.00918207  1
  H+  H105  1  0.87425409  0.35629008  0.49020096  1
  H+  H106  1  0.82648768  0.47959098  0.82376262  1
  H+  H107  1  0.82787846  0.82867782  0.68895806  1
  H+  H108  1  0.53310288  0.87421523  0.29150445  1
  H+  H109  1  0.39428886  0.89886226  0.19154911  1
  H+  H110  1  0.88766325  0.86953309  1.00104969  1
  H+  H111  1  0.88539488  0.59116056  1.00572919  1
  H+  H112  1  0.86771934  0.37342383  0.65198805  1
  H+  H113  1  0.11792414  0.78027433  0.31580428  1
  H+  H114  1  0.86320848  0.62915547  0.17483615  1
  H+  H115  1  0.20643548  0.59761054  0.50188167  1
  H+  H116  1  0.78010922  0.13889754  0.33406262  1
  H+  H117  1  0.41097680  0.05668269  0.31848452  1
  H+  H118  1  0.21396100  0.09616451  0.50790638  1
  H+  H119  1  0.75767352  0.88133440  0.50376446  1
  H+  H120  1  0.07822759  0.40901408  0.07729110  1
  H+  H121  1  0.63871572  1.01129545  0.68637083  1
  H+  H122  1  0.13373499  0.73251333  0.83478659  1
  H+  H123  1  0.39253926  0.86143442  0.52459524  1
  H+  H124  1  0.76972814  0.39448556  0.16674755  1
  H+  H125  1  0.28243484  0.20112797  -0.07154853  1
  H+  H126  1  0.64898062  0.28830356  0.64160168  1
  H+  H127  1  0.52144633  0.87233447  0.68883939  1
  H+  H128  1  0.80146486  0.16414918  0.16330626  1
  H+  H129  1  0.46938635  0.60188525  0.50561276  1
  H+  H130  1  0.60113210  0.71481082  0.48938966  1
  H+  H131  1  0.61196573  0.39091395  0.49087330  1
  H+  H132  1  0.61279537  0.75496603  0.65502609  1
  H+  H133  1  0.23140202  0.12945428  0.16138757  1
  H+  H134  1  0.36694294  0.65652120  0.33674649  1
  H+  H135  1  0.63528277  0.52424337  0.66262944  1
  H+  H136  1  0.03605100  0.15467265  0.85331607  1
  H+  H137  1  0.38382933  0.31796271  0.83732123  1
  H+  H138  1  0.10915988  0.87491443  0.67816192  1
  H+  H139  1  0.84590584  0.73188620  0.83697799  1
  H+  H140  1  0.48197661  0.37245990  0.50139822  1
  H+  H141  1  0.65244085  0.23503675  0.33184946  1
  H+  H142  1  0.61463194  0.73174411  0.83570677  1
  H+  H143  1  0.86419177  0.88914268  0.83947273  1
  H+  H144  1  0.36362446  0.14933245  0.33983215  1
  H+  H145  1  0.19586897  0.36343526  0.34937069  1
  H+  H146  1  0.30906468  0.38810926  0.84112776  1
  H+  H147  1  0.34541038  0.70892893  0.50080384  1
  H+  H148  1  0.12986809  0.83917304  0.14831390  1
  H+  H149  1  0.31035172  0.16637413  0.01350133  1
  H+  H150  1  0.50196109  0.11391747  0.83315874  1
  H+  H151  1  0.63682256  0.29369354  0.18079082  1
  H+  H152  1  0.85775866  0.97622125  0.34427731  1
  H+  H153  1  0.38481259  0.28567099  0.50135408  1
  H+  H154  1  0.36992063  0.89844816  1.00670831  1
  H+  H155  1  0.82759266  0.39234344  0.82155440  1
  H+  H156  1  0.73123200  0.11340306  1.00408242  1
  H+  H157  1  0.84150744  0.60989882  0.84525823  1
  H+  H158  1  0.33807431  0.67636747  0.07195100  1
  H+  H159  1  0.36231567  0.47929012  0.02133929  1
  H+  H160  1  0.86389622  0.49088124  0.67048308  1
  H+  H161  1  0.20920921  0.86084312  0.30784387  1
  H+  H162  1  0.89309503  0.26775195  0.00185857  1
  H+  H163  1  0.63453652  0.14245046  0.67662120  1
  H+  H164  1  0.51422887  0.16505834  0.65852079  1
  H+  H165  1  0.37263851  0.64667722  0.01341595  1
  H+  H166  1  0.60959231  0.37470671  0.84210550  1
  H+  H167  1  0.90235227  0.24267765  0.16088692  1
  H+  H168  1  0.85415571  0.63838097  0.49369240  1
  H+  H169  1  0.65026870  0.21821303  0.72083793  1
  H+  H170  1  0.63739670  0.86895116  1.00076195  1
  H+  H171  1  0.76690733  0.63150940  0.67923261  1
  H+  H172  1  0.96647485  0.36455174  0.50561705  1
  H+  H173  1  0.81741414  0.42444331  0.72537703  1
  H+  H174  1  0.40148322  0.37326895  0.32205957  1
  H+  H175  1  0.14305549  0.28023786  -0.00965001  1
  H+  H176  1  0.22763569  0.36553247  0.18981250  1
  H+  H177  1  0.13687551  0.27725897  0.19305317  1
  H+  H178  1  0.13070082  0.51282865  0.17206446  1
  H+  H179  1  0.85920203  0.97710774  0.50425630  1
  H+  H180  1  0.17579788  0.37777142  0.83977333  1
  H+  H181  1  0.87026487  -0.02033488  0.16489532  1
  H+  H182  1  0.10294183  0.70667072  0.15975335  1
  H+  H183  1  0.09417513  0.37011500  0.18143019  1
  H+  H184  1  0.47966269  0.61735643  0.99529052  1
  H+  H185  1  0.15934644  0.33393854  0.28025619  1
  H+  H186  1  0.88318249  0.77772748  0.99343408  1
  H+  H187  1  0.86710330  0.13627394  1.01195787  1
  H+  H188  1  0.52250283  0.39614232  0.67125331  1
  H+  H189  1  0.22180084  0.60705275  0.65091905  1
  H+  H190  1  0.63320907  0.51680094  0.32610119  1
  H+  H191  1  0.89214522  0.27966557  0.31274131  1
  H+  H192  1  0.63141693  0.24921294  0.48665971  1
  H+  H193  1  1.01092063  0.86833498  0.66996959  1
  H+  H194  1  0.10657979  0.96819668  0.67377124  1
  H+  H195  1  0.85545160  0.72230498  0.33877823  1
  H+  H196  1  0.40400848  0.52032186  0.84594849  1
  H+  H197  1  0.87259040  0.00638581  0.64094209  1
  H+  H198  1  0.40309996  0.38161523  0.17649343  1
  H+  H199  1  0.36007159  0.73024197  0.16507687  1
  H+  H200  1  0.18291468  0.57961812  0.90588535  1
  H+  H201  1  0.05773298  0.56488324  0.48011112  1
  H+  H202  1  0.37015381  0.97334075  0.84062395  1
  H+  H203  1  0.77106701  0.13732302  0.84403453  1
  H+  H204  1  0.13993518  0.36719005  0.99932067  1
  H+  H205  1  0.40938747  0.13037490  1.00504177  1
  H+  H206  1  0.27476048  0.39173724  0.01797770  1
  H+  H207  1  0.38243632  0.24887062  0.16367651  1
  H+  H208  1  0.01042418  0.39647137  0.34675025  1
  H+  H209  1  0.10449373  -0.03305225  0.82540881  1
  H+  H210  1  -0.01989469  0.11629396  -0.00411108  1
  H+  H211  1  0.26286509  0.21448129  0.46345593  1
  H+  H212  1  0.53908076  0.15051499  0.00964011  1
  H+  H213  1  0.33925611  0.06686148  0.86793190  1
  H+  H214  1  0.64287550  0.02112811  0.31077346  1
  H+  H215  1  0.09187802  0.21822099  0.51676437  1
  H+  H216  1  0.10703362  0.47314367  0.67114489  1
  H+  H217  1  0.73217098  0.85891310  0.33246501  1
  H+  H218  1  0.48858563  0.86574073  0.85693298  1
  H+  H219  1  0.12297535  0.50502642  0.51151929  1
  H+  H220  1  0.83373737  0.91635621  0.68224749  1
  H+  H221  1  0.12025291  0.04446090  0.92223021  1
  H+  H222  1  0.13695756  0.11581259  0.84048590  1
  H+  H223  1  0.16557087  0.82998391  0.51616051  1
  H+  H224  1  0.62068715  0.90342220  0.15859630  1
  H+  H225  1  0.61779945  0.62902681  0.33105257  1
  H+  H226  1  0.39724245  0.86129687  0.85932495  1
  H+  H227  1  -0.02148450  0.62097022  0.33558537  1
  H+  H228  1  0.10238229  0.87894432  0.83802879  1
  H+  H229  1  0.05803640  0.63521839  0.83180920  1
  H+  H230  1  0.63916114  0.28424933  0.99324246  1
  H+  H231  1  0.12455990  0.64668020  0.34603070  1
  H+  H232  1  0.88554094  0.60813116  0.33505959  1
  H+  H233  1  0.80197079  0.37272535  0.40181201  1
  H+  H234  1  0.93097816  0.36594137  0.85397333  1
  H+  H235  1  1.01525684  0.89584703  0.32806117  1
  H+  H236  1  0.89098361  0.02611950  0.99869669  1
  H+  H237  1  0.09084657  0.66637237  0.06841493  1
  H+  H238  1  0.55078580  0.91368856  0.45642780  1
  H+  H239  1  0.61028130  0.47947727  0.49774933  1
  H+  H240  1  0.65008457  0.79820867  0.18724472  1
  H+  H241  1  0.62085271  0.88927480  0.84021349  1
  H+  H242  1  0.46786549  0.55158618  0.68062496  1
  H+  H243  1  -0.05389792  0.57898527  0.50390354  1
  H+  H244  1  0.30805625  0.43180896  0.67702575  1
  H+  H245  1  0.30609166  0.91461458  0.51026680  1
  H+  H246  1  0.60747117  0.86966018  0.67906022  1
  H+  H247  1  0.40201641  0.55798493  0.56078174  1
  H+  H248  1  0.88172180  0.02515027  0.84536478  1
  H+  H249  1  0.62855643  0.15226679  1.01129942  1
  H+  H250  1  0.28243907  0.89941538  0.00058867  1
  H+  H251  1  0.86436667  0.45964581  0.01233259  1
  H+  H252  1  0.22487570  0.11835822  0.82821640  1
  H+  H253  1  0.92839290  0.60975366  0.85036965  1
  H+  H254  1  0.15108530  0.24994213  0.62690708  1
  H+  H255  1  0.38528633  0.19048871  0.83057391  1
  H+  H256  1  0.66763603  0.83682210  0.90712594  1
  H+  H257  1  0.07687861  0.36124881  0.51209519  1
  H+  H258  1  0.87196908  0.23323885  0.49080127  1
  H+  H259  1  0.22548965  0.85900932  0.85144792  1
  H+  H260  1  0.13073409  0.23680880  0.85714679  1
  H+  H261  1  0.10940171  -0.00526244  0.16167439  1
  H+  H262  1  0.87089702  0.45631251  0.43596110  1
  H+  H263  1  0.64488525  0.02422472  0.84896700  1
  H+  H264  1  0.23007333  0.12181767  0.33224509  1
  H+  H265  1  0.05302316  0.37949686  0.83266201  1
  H+  H266  1  0.97084296  0.86094204  0.84599435  1
  H+  H267  1  0.88960227  0.35553489  0.99937213  1
  H+  H268  1  0.63466541  0.10643450  0.84655097  1
  H+  H269  1  0.90757742  0.81491461  0.60489384  1
  H+  H270  1  0.12179409  0.00882431  0.50439446  1
  H+  H271  1  0.46454148  0.83448653  0.53249303  1
  H+  H272  1  0.77689705  0.89533045  0.01061325  1
  H+  H273  1  0.61221339  -0.02020373  1.01245272  1
  H+  H274  1  0.64111258  0.10925912  0.32174442  1
  H+  H275  1  0.91754346  0.57509726  0.24262745  1
  H+  H276  1  0.88376713  0.51684787  0.18202588  1
  H+  H277  1  0.85068948  0.87484367  0.50487448  1
  H+  H278  1  0.72932578  0.38145265  0.64619578  1
  H+  H279  1  0.88760483  0.18049433  0.65647818  1
  H+  H280  1  0.63030103  0.16020363  0.16172718  1
  H+  H281  1  0.36104488  0.94184879  0.68143768  1
  H+  H282  1  0.02601993  0.38550007  0.01591731  1
  H+  H283  1  0.13136975  0.47501076  0.82906881  1
  H+  H284  1  0.33342293  0.90216214  0.26598360  1
  H+  H285  1  0.37792442  0.17456916  0.67192155  1
  H+  H286  1  0.48691210  0.62765598  0.31969829  1
  H+  H287  1  0.84476150  0.17129513  0.07236381  1
  H+  H288  1  0.08544467  0.16784823  0.41180211  1
  H+  H289  1  0.88584134  0.55368681  0.94249271  1
  H+  H290  1  0.58190910  0.67181634  0.14561252  1
  H+  H291  1  0.67243575  0.08623187  0.94445078  1
  H+  H292  1  0.10555098  0.89698298  0.33040826  1
  H+  H293  1  0.63545968  0.61271129  0.66443299  1
  H+  H294  1  0.49966369  0.39338492  0.17506617  1
  H+  H295  1  0.06852882  0.40150004  0.44504230  1
  H+  H296  1  0.35038756  0.42374646  0.41825324  1
  H+  H297  1  0.09757668  0.67048737  0.73616884  1
  H+  H298  1  0.26342546  0.86503580  0.68573395  1
  H+  H299  1  0.11095044  0.20888846  0.73685547  1
  H+  H300  1  0.36287313  0.92825891  0.45205335  1
  H+  H301  1  0.58696442  0.91404738  0.78137594  1
  H+  H302  1  0.36534638  0.61921386  0.17290431  1
  H+  H303  1  0.32637608  0.62460081  0.76562725  1
  H+  H304  1  0.85602764  0.63092657  0.68598713  1
  H+  H305  1  0.65494762  0.82675348  0.56364456  1
  H+  H306  1  0.83173575  0.41176929  0.11064366  1
  H+  H307  1  0.05704969  0.91920937  0.41926080  1
  H+  H308  1  0.89388800  0.33881344  0.58726312  1
  H+  H309  1  0.14921302  0.77614892  1.00037478  1
  H+  H310  1  0.76729197  0.63230884  0.33625119  1
  H+  H311  1  0.60040455  0.19042980  0.10327072  1
  H+  H312  1  0.41414206  0.58443898  0.94081128  1
  H+  H313  1  0.11561923  0.17005567  0.05336256  1
  H+  H314  1  0.58547497  0.65607515  0.39260991  1
  H+  H315  1  0.91397001  0.83828036  0.90700118  1
  H+  H316  1  1.00823368  0.22348137  0.59067302  1
  H+  H317  1  0.38326657  0.38602311  0.48485780  1
  H+  H318  1  0.34921396  0.20589554  0.76896443  1
  H+  H319  1  0.06053958  0.19988676  0.11921847  1
  H+  H320  1  0.95027564  0.85652089  0.50225796  1
  H+  H321  1  0.42812705  0.34020656  0.26321512  1
  H+  H322  1  0.82729513  0.91290280  0.40212467  1
  H+  H323  1  0.33417952  0.67610958  0.39755160  1
  H+  H324  1  0.15775967  0.58047438  0.59429253  1
  H+  H325  1  0.67718993  0.05619438  0.62586657  1
  H+  H326  1  0.10044056  0.91238398  0.19212019  1
  H+  H327  1  0.14771090  0.82683894  0.21778377  1
  H+  H328  1  0.90696989  0.82786508  0.26400381  1
  H+  H329  1  0.68289898  0.10002545  0.22658121  1
  H+  H330  1  0.48269006  0.61878702  0.84450263  1
  H+  H331  1  0.43853517  0.35966493  0.93676195  1
  H+  H332  1  0.67704656  0.09504999  0.53643763  1
  H+  H333  1  0.12883049  0.59971086  0.16512204  1
  H+  H334  1  0.12562572  0.71563610  0.39483168  1
  H+  H335  1  0.16672109  0.05848147  0.60667957  1
  H+  H336  1  0.17812795  0.84106433  0.61617189  1
  H+  H337  1  0.93651719  0.32601014  0.91731071  1
  H+  H338  1  0.34066956  0.90936836  0.78428225  1
  H+  H339  1  0.57753732  0.41530162  0.76685730  1
  H+  H340  1  0.66222878  0.58428692  0.56848606  1
  H+  H341  1  0.59982228  0.18282904  0.38829959  1
  H+  H342  1  0.65086360  0.34378875  0.90899689  1
  H+  H343  1  0.82377031  0.90448522  0.78011807  1
  H+  H344  1  0.41994764  0.60021523  0.26307411  1
  H+  H345  1  0.08169736  0.16175530  0.73104797  1
  H+  H346  1  0.58197699  0.42364270  0.39948078  1
  H+  H347  1  0.37915993  0.15782347  0.16243274  1
  H+  H348  1  0.07989908  0.91260357  0.07457656  1
  H+  H349  1  0.19696505  0.35433882  0.90531174  1
  H+  H350  1  0.45573802  0.12095347  0.56312287  1
  H+  H351  1  0.35337069  0.90491959  0.33847792  1
  H+  H352  1  0.43732321  0.11671539  0.22949866  1
  H+  H353  1  0.13513397  0.12328048  0.34037383  1
  H+  H354  1  0.65975347  0.56311048  0.26176833  1
  H+  H355  1  0.35915302  0.23509408  0.33424424  1
  H+  H356  1  0.36228422  0.19327666  0.07591055  1
  H+  H357  1  0.39473820  0.80431251  0.61211877  1
  H+  H358  1  0.41895320  0.35356531  0.60052316  1
  H+  H359  1  0.83760651  0.92442573  0.06975153  1
  H+  H360  1  0.43096599  0.83411017  0.93843685  1
  H+  H361  1  0.60449041  0.66086030  0.04832780  1
  H+  H362  1  0.31576551  0.18147108  0.42811249  1
  H+  H363  1  0.95829764  0.85153209  0.17402275  1
  H+  H364  1  0.61065016  0.45231977  0.06751105  1
  H+  H365  1  0.63847620  0.86483817  0.50034283  1
  H+  H366  1  0.16374413  0.82529022  0.90923216  1
  H+  H367  1  0.57191475  0.66124582  0.73984406  1
  H+  H368  1  0.80975896  0.66861336  0.77881660  1
  H+  H369  1  0.82247294  0.66437955  0.43221100  1
  H+  H370  1  0.41611909  0.09711034  0.91511539  1
  H+  H371  1  0.84233524  0.17650567  0.39194314  1
  H+  H372  1  0.91091886  0.08223396  0.90759707  1
  H+  H373  1  0.57044902  0.89841203  0.35929922  1
  H+  H374  1  0.81463742  0.33986586  0.31144169  1
  H+  H375  1  0.88552303  0.11167929  0.33286350  1
  H+  H376  1  0.32520805  0.41504414  0.11201591  1
  H+  H377  1  0.02629654  0.59314207  0.42188065  1
  H+  H378  1  0.09343989  0.41377223  0.72820850  1
  H+  H379  1  0.91315714  0.08037659  0.24206742  1
  H+  H380  1  0.92001183  0.09549527  0.55751769  1
  H+  H381  1  0.92157881  0.59651157  0.60790129  1
  H+  H382  1  0.13121848  0.02699743  0.32964554  1
  H+  H383  1  0.68067138  0.34757094  0.55097874  1
  O2-  O384  1  0.07451487  0.18102104  0.15693213  1
  O2-  O385  1  0.08259628  0.16681673  0.49137352  1
  O2-  O386  1  0.09572345  0.17418662  0.86429194  1
  O2-  O387  1  0.05781639  0.39024113  0.16136735  1
  O2-  O388  1  0.06398557  0.40345004  0.49036908  1
  O2-  O389  1  0.10838739  0.41621661  0.81204862  1
  O2-  O390  1  0.07256659  0.64620717  0.14488385  1
  O2-  O391  1  0.00570171  0.55897350  0.45962195  1
  O2-  O392  1  0.11427776  0.67361987  0.81437307  1
  O2-  O393  1  0.07560114  0.92925169  0.15917265  1
  O2-  O394  1  0.05099709  0.91055879  0.46517702  1
  O2-  O395  1  0.06864985  0.90357896  0.82116404  1
  O2-  O396  1  0.34928578  0.18897452  0.14763576  1
  O2-  O397  1  0.30079685  0.19098829  0.47053724  1
  O2-  O398  1  0.34954511  0.21262512  0.81385787  1
  O2-  O399  1  0.32615359  0.41467229  0.15844510  1
  O2-  O400  1  0.34786796  0.41722436  0.46396806  1
  O2-  O401  1  0.37026292  0.41931073  0.82479184  1
  O2-  O402  1  0.32785306  0.67055573  0.14623380  1
  O2-  O403  1  0.31760564  0.65277532  0.48050131  1
  O2-  O404  1  0.33186878  0.63474031  0.81077572  1
  O2-  O405  1  0.36184676  0.92911840  0.20216951  1
  O2-  O406  1  0.36639839  0.93423884  0.49642664  1
  O2-  O407  1  0.34146105  0.91200206  0.82899809  1
  O2-  O408  1  0.59768459  0.18900345  0.14863376  1
  O2-  O409  1  0.59831992  0.18487152  0.47263320  1
  O2-  O410  1  0.55453605  0.12057349  0.81405106  1
  O2-  O411  1  0.60081206  0.44700258  0.14965429  1
  O2-  O412  1  0.57756914  0.41896799  0.48178864  1
  O2-  O413  1  0.57695860  0.41702731  0.81222583  1
  O2-  O414  1  0.60879249  0.67616810  0.18486393  1
  O2-  O415  1  0.57073937  0.65429869  0.47586090  1
  O2-  O416  1  0.58231272  0.67045237  0.82082490  1
  O2-  O417  1  0.58685615  0.93100631  0.14388591  1
  O2-  O418  1  0.61128050  0.93009198  0.45578619  1
  O2-  O419  1  0.59024814  0.92050676  0.82616828  1
  O2-  O420  1  0.85971750  0.18093178  0.14788806  1
  O2-  O421  1  0.84337716  0.17385032  0.47232635  1
  O2-  O422  1  0.83458241  0.16494983  0.83154962  1
  O2-  O423  1  0.83074766  0.41939812  0.15492279  1
  O2-  O424  1  0.82348807  0.39798505  0.44367276  1
  O2-  O425  1  0.79755080  0.42022745  0.80481893  1
  O2-  O426  1  0.83049775  0.65775902  0.16078722  1
  O2-  O427  1  0.82287875  0.66728923  0.47839321  1
  O2-  O428  1  0.80761825  0.67007862  0.82406751  1
  O2-  O429  1  0.83772601  0.92195761  0.14541851  1
  O2-  O430  1  0.82290839  0.91191825  0.49078339  1
  O2-  O431  1  0.83233061  0.91860645  0.82385085  1
  O2-  O432  1  0.16973121  0.09606130  0.17206796  1
  O2-  O433  1  0.15911515  0.05992869  0.52954453  1
  O2-  O434  1  0.16345957  0.07838787  0.83479626  1
  O2-  O435  1  0.16929618  0.33683320  0.20976676  1
  O2-  O436  1  0.07818986  0.29024272  0.55795727  1
  O2-  O437  1  0.20648531  0.35169793  0.86053240  1
  O2-  O438  1  0.16707483  0.57550930  0.17462873  1
  O2-  O439  1  0.14823096  0.56806017  0.52051238  1
  O2-  O440  1  0.18553092  0.58052899  0.85944171  1
  O2-  O441  1  0.15391716  0.81348122  0.17513602  1
  O2-  O442  1  0.20674738  0.88080540  0.54032485  1
  O2-  O443  1  0.16432719  0.82308513  0.86263864  1
  O2-  O444  1  0.43302289  0.10659271  0.18515312  1
  O2-  O445  1  0.45651655  0.10913499  0.51854493  1
  O2-  O446  1  0.40127191  0.09047278  0.86929594  1
  O2-  O447  1  0.43791557  0.35552494  0.18991481  1
  O2-  O448  1  0.41844161  0.34762369  0.51336604  1
  O2-  O449  1  0.41388777  0.37784482  0.85478077  1
  O2-  O450  1  0.39746573  0.58727649  0.18710215  1
  O2-  O451  1  0.40649019  0.56742047  0.51676120  1
  O2-  O452  1  0.42067482  0.58126704  0.85766478  1
  O2-  O453  1  0.43100736  0.82808079  0.19134993  1
  O2-  O454  1  0.40538930  0.81776599  0.54327488  1
  O2-  O455  1  0.42976824  0.83425362  0.87531847  1
  O2-  O456  1  0.68509947  0.10518367  0.18151483  1
  O2-  O457  1  0.68124879  0.09984713  0.49224814  1
  O2-  O458  1  0.67331034  0.08597485  0.86246601  1
  O2-  O459  1  0.66587773  0.35220963  0.19873782  1
  O2-  O460  1  0.67412450  0.34141532  0.50539891  1
  O2-  O461  1  0.64279736  0.34195089  0.86153503  1
  O2-  O462  1  0.65028337  0.53396958  0.17927060  1
  O2-  O463  1  0.65861687  0.58185932  0.52297963  1
  O2-  O464  1  0.64753106  0.57802686  0.88802701  1
  O2-  O465  1  0.67513005  0.86055527  0.18474815  1
  O2-  O466  1  0.66436289  0.83194927  0.51821669  1
  O2-  O467  1  0.66684690  0.83378736  0.86139137  1
  O2-  O468  1  0.91728646  0.08217267  0.19686615  1
  O2-  O469  1  0.91092855  0.07129585  0.51471283  1
  O2-  O470  1  0.90707763  0.08516024  0.86167037  1
  O2-  O471  1  0.97200041  0.33671056  0.18938647  1
  O2-  O472  1  0.90229265  0.33198759  0.51637149  1
  O2-  O473  1  0.94237631  0.32235370  0.87033571  1
  O2-  O474  1  0.91683214  0.57813901  0.19734244  1
  O2-  O475  1  0.90052192  0.58130442  0.53018884  1
  O2-  O476  1  0.86750140  0.57302474  0.85901863  1
  O2-  O477  1  0.89896522  0.82117026  0.18994513  1
  O2-  O478  1  0.89264864  0.82506815  0.52191759  1
  O2-  O479  1  0.90920219  0.83337967  0.86145834  1
  O2-  O480  1  0.16552352  0.09238539  0.32176137  1
  O2-  O481  1  0.16514806  0.06071573  0.65220944  1
  O2-  O482  1  0.09659770  0.04268550  0.96283403  1
  O2-  O483  1  0.14475272  0.32569851  0.32593254  1
  O2-  O484  1  0.13763887  0.33356328  0.60968109  1
  O2-  O485  1  0.17360717  0.34261814  0.98064219  1
  O2-  O486  1  0.16367997  0.59553743  0.32736333  1
  O2-  O487  1  0.16188596  0.58609498  0.64042924  1
  O2-  O488  1  0.17787105  0.57899734  0.97943626  1
  O2-  O489  1  0.14646028  0.84034548  0.30091786  1
  O2-  O490  1  0.17003044  0.83294609  0.66091335  1
  O2-  O491  1  0.17370900  0.83586605  0.98132212  1
  O2-  O492  1  0.43454870  0.11816300  0.31230812  1
  O2-  O493  1  0.45670847  0.14237114  0.63932985  1
  O2-  O494  1  0.43560921  0.09917797  0.98450193  1
  O2-  O495  1  0.42008094  0.33255240  0.30906556  1
  O2-  O496  1  0.42270188  0.35897267  0.64511828  1
  O2-  O497  1  0.46903463  0.34380094  0.96634891  1
  O2-  O498  1  0.42506980  0.59906791  0.30837814  1
  O2-  O499  1  0.48421608  0.61198661  0.67330500  1
  O2-  O500  1  0.41748894  0.59005412  0.98569325  1
  O2-  O501  1  0.44268377  0.81310791  0.25624374  1
  O2-  O502  1  0.39000327  0.79698634  0.65924378  1
  O2-  O503  1  0.42987374  0.83436194  0.98797754  1
  O2-  O504  1  0.67630668  0.08447318  0.30688913  1
  O2-  O505  1  0.67120023  0.07011704  0.66775107  1
  O2-  O506  1  0.67014179  0.08488570  0.98961533  1
  O2-  O507  1  0.74183291  0.39459444  0.30957134  1
  O2-  O508  1  0.67082682  0.34745478  0.62709067  1
  O2-  O509  1  0.66931768  0.34382640  0.97525108  1
  O2-  O510  1  0.66256339  0.57621916  0.30584687  1
  O2-  O511  1  0.66708972  0.58534347  0.64752200  1
  O2-  O512  1  0.66654290  0.59280684  0.95442652  1
  O2-  O513  1  0.67166930  0.82119103  0.31505525  1
  O2-  O514  1  0.64732637  0.81571442  0.64061715  1
  O2-  O515  1  0.67046787  0.84282100  0.98332625  1
  O2-  O516  1  0.91217343  0.07524413  0.32200857  1
  O2-  O517  1  0.95675486  0.16771463  0.61403817  1
  O2-  O518  1  0.91931770  0.08631464  0.98183852  1
  O2-  O519  1  0.91245520  0.34005976  0.30099508  1
  O2-  O520  1  0.89304415  0.33924823  0.63385040  1
  O2-  O521  1  0.92437995  0.32816778  0.98529620  1
  O2-  O522  1  0.91907773  0.58048738  0.32372938  1
  O2-  O523  1  0.92119596  0.59339822  0.65333736  1
  O2-  O524  1  0.90427561  0.55537516  0.98468037  1
  O2-  O525  1  0.91466536  0.83393414  0.30993867  1
  O2-  O526  1  0.91643684  0.81549422  0.64947270  1
  O2-  O527  1  0.91852512  0.84033397  0.98473809  1
  O2-  O528  1  0.09239352  0.17034453  0.01338369  1
  O2-  O529  1  0.08427056  0.16415840  0.36636975  1
  O2-  O530  1  0.16726721  0.20413620  0.62653905  1
  O2-  O531  1  0.08577096  0.41574350  0.03257444  1
  O2-  O532  1  0.06727527  0.41843038  0.36710587  1
  O2-  O533  1  0.08319412  0.41296896  0.68396908  1
  O2-  O534  1  0.10667126  0.68181628  0.02480009  1
  O2-  O535  1  0.09301261  0.67989307  0.36054958  1
  O2-  O536  1  0.09062663  0.67169329  0.69102435  1
  O2-  O537  1  0.07955711  0.90571089  0.03003001  1
  O2-  O538  1  0.07598880  0.92915620  0.34538660  1
  O2-  O539  1  0.07367840  0.90354201  0.68556360  1
  O2-  O540  1  0.36839468  0.19168222  0.02983499  1
  O2-  O541  1  0.32733830  0.17464786  0.35204672  1
  O2-  O542  1  0.33626000  0.18886549  0.68940829  1
  O2-  O543  1  0.33143403  0.42097168  0.03873017  1
  O2-  O544  1  0.35455534  0.44002514  0.34307710  1
  O2-  O545  1  0.29840521  0.46565218  0.64653742  1
  O2-  O546  1  0.34335142  0.67938924  0.02589395  1
  O2-  O547  1  0.33458599  0.68296135  0.35304689  1
  O2-  O548  1  0.34093809  0.62337672  0.68974055  1
  O2-  O549  1  0.34457126  0.93528543  0.01084828  1
  O2-  O550  1  0.30852027  0.87572265  0.30841868  1
  O2-  O551  1  0.32572281  0.88419970  0.69813178  1
  O2-  O552  1  0.60020423  0.18561169  0.02339300  1
  O2-  O553  1  0.60162209  0.17935978  0.34367071  1
  O2-  O554  1  0.61611328  0.18542573  0.68579789  1
  O2-  O555  1  0.61310742  0.44858847  0.02190546  1
  O2-  O556  1  0.58632937  0.42502762  0.35476260  1
  O2-  O557  1  0.58289493  0.42172552  0.68768278  1
  O2-  O558  1  0.59162143  0.66984720  0.00688663  1
  O2-  O559  1  0.59103297  0.66370321  0.34765163  1
  O2-  O560  1  0.57453499  0.65942919  0.69390333  1
  O2-  O561  1  0.58104194  0.91856778  0.02706412  1
  O2-  O562  1  0.58813606  0.90396191  0.31668525  1
  O2-  O563  1  0.58227960  0.90228765  0.69971804  1
  O2-  O564  1  0.83722178  0.16705293  0.02681089  1
  O2-  O565  1  0.84163487  0.17058779  0.34705219  1
  O2-  O566  1  0.85112316  0.19909728  0.67969423  1
  O2-  O567  1  0.83497271  0.39759899  0.02577762  1
  O2-  O568  1  0.76073994  0.32948900  0.33330392  1
  O2-  O569  1  0.82578039  0.42786307  0.68046860  1
  O2-  O570  1  0.83636711  0.66798415  -0.01560268  1
  O2-  O571  1  0.82429702  0.66410672  0.35707621  1
  O2-  O572  1  0.82542551  0.66181428  0.69862526  1
  O2-  O573  1  0.83805887  0.92479989  0.02392772  1
  O2-  O574  1  0.82579045  0.91339957  0.35743758  1
  O2-  O575  1  0.79667513  0.85908854  0.70002014  1
