# generated using pymatgen
data_H2O
_symmetry_space_group_name_H-M   'P 1'
_cell_length_a   17.97819551
_cell_length_b   17.98046490
_cell_length_c   22.00156322
_cell_angle_alpha   89.99088248
_cell_angle_beta   89.99239504
_cell_angle_gamma   119.98539347
_symmetry_Int_Tables_number   1
_chemical_formula_structural   H2O
_chemical_formula_sum   'H384 O192'
_cell_volume   6160.20365857
_cell_formula_units_Z   192
loop_
 _symmetry_equiv_pos_site_id
 _symmetry_equiv_pos_as_xyz
  1  'x, y, z'
loop_
 _atom_type_symbol
 _atom_type_oxidation_number
  H+  1.0
  O2-  -2.0
loop_
 _atom_site_type_symbol
 _atom_site_label
 _atom_site_symmetry_multiplicity
 _atom_site_fract_x
 _atom_site_fract_y
 _atom_site_fract_z
 _atom_site_occupancy
  H+  H0  1  0.36559985  0.24270224  1.00217191  1
  H+  H1  1  0.36339089  0.73657571  0.86241863  1
  H+  H2  1  0.77150216  0.61691406  0.01062321  1
  H+  H3  1  0.91511365  0.08121681  0.25887062  1
  H+  H4  1  0.12171990  0.28816143  1.02156825  1
  H+  H5  1  0.19400584  0.60283571  0.89695686  1
  H+  H6  1  0.52590712  0.63959026  0.33229184  1
  H+  H7  1  0.52172536  0.12656323  0.82464824  1
  H+  H8  1  0.59323814  0.89698947  0.15573445  1
  H+  H9  1  0.12525233  0.41861486  1.03163468  1
  H+  H10  1  1.00852846  0.68123081  0.99199171  1
  H+  H11  1  0.72368676  0.61766673  0.84658434  1
  H+  H12  1  0.13522672  0.11278611  0.83377503  1
  H+  H13  1  0.91081635  0.33337550  0.90146131  1
  H+  H14  1  0.36221965  0.77278356  0.67282692  1
  H+  H15  1  0.62385733  0.73231911  0.67200079  1
  H+  H16  1  0.89192655  0.63043933  0.85033811  1
  H+  H17  1  0.47424903  0.61274996  0.48965027  1
  H+  H18  1  0.24485356  0.11666407  0.16693715  1
  H+  H19  1  0.98881816  0.87193999  0.86387064  1
  H+  H20  1  0.61567270  0.36642950  0.34228555  1
  H+  H21  1  0.88515967  0.75625042  0.66341487  1
  H+  H22  1  0.43482091  0.59001733  0.57994017  1
  H+  H23  1  0.13221058  0.26696813  0.50885565  1
  H+  H24  1  0.13646711  0.84804714  0.32236366  1
  H+  H25  1  0.73438457  0.87863146  0.98449307  1
  H+  H26  1  0.98727332  0.62956634  0.49104035  1
  H+  H27  1  0.04034335  0.03260433  0.04892937  1
  H+  H28  1  0.14559138  0.11943903  0.65580268  1
  H+  H29  1  0.13603081  0.54103221  0.50240879  1
  H+  H30  1  0.02814875  0.88694125  0.15671296  1
  H+  H31  1  0.35825050  0.46991124  0.49078406  1
  H+  H32  1  0.35790438  0.38041963  0.49409212  1
  H+  H33  1  0.60973309  0.46867639  0.48487139  1
  H+  H34  1  0.86912920  0.19714733  0.66320017  1
  H+  H35  1  0.12275850  0.23277447  0.81204954  1
  H+  H36  1  0.49815875  0.89291321  0.98856493  1
  H+  H37  1  0.36704018  0.38360129  0.16445010  1
  H+  H38  1  0.87819637  0.64356530  0.33369811  1
  H+  H39  1  0.17145752  0.34877761  0.25989858  1
  H+  H40  1  0.66426213  0.07911033  0.56249235  1
  H+  H41  1  0.11693605  0.89189970  0.83650754  1
  H+  H42  1  0.90864817  1.03418321  0.16133681  1
  H+  H43  1  0.76034002  0.40973367  0.63082784  1
  H+  H44  1  -0.01956943  0.38134833  0.84839166  1
  H+  H45  1  0.74218411  0.38818359  0.66098790  1
  H+  H46  1  0.61329773  0.86303643  0.65807291  1
  H+  H47  1  0.27104790  0.63523709  0.33497965  1
  H+  H48  1  0.37918001  0.84870134  0.50431643  1
  H+  H49  1  0.14309582  0.38355880  0.17259008  1
  H+  H50  1  0.09362956  0.69123178  0.05778623  1
  H+  H51  1  0.21575844  0.61814882  0.65964419  1
  H+  H52  1  0.87265070  0.89422062  0.84817853  1
  H+  H53  1  0.38315571  0.60895172  0.49532123  1
  H+  H54  1  0.33312291  0.64696788  0.70944862  1
  H+  H55  1  0.61641638  0.25754424  0.99797041  1
  H+  H56  1  0.27444588  0.38840224  0.33615437  1
  H+  H57  1  0.35292997  0.62149373  1.00961337  1
  H+  H58  1  0.28049879  0.14241272  0.66970520  1
  H+  H59  1  0.11195869  0.47850030  0.34187022  1
  H+  H60  1  0.11262183  0.74480251  0.15514959  1
  H+  H61  1  0.47864340  0.37167537  0.99245376  1
  H+  H62  1  0.87263795  0.61540415  0.16494809  1
  H+  H63  1  0.12396873  0.64423199  0.67630435  1
  H+  H64  1  0.86609599  -0.01243294  0.66860711  1
  H+  H65  1  0.64098141  0.79606095  -0.01317177  1
  H+  H66  1  0.63816781  0.03505240  0.16958442  1
  H+  H67  1  0.36058610  0.63540147  0.33554637  1
  H+  H68  1  0.92669535  0.58041689  0.64719115  1
  H+  H69  1  0.38869382  0.77258218  0.32316784  1
  H+  H70  1  0.86038761  0.97552800  0.33378329  1
  H+  H71  1  0.35997210  0.72024229  0.49163573  1
  H+  H72  1  0.88284752  0.85536118  0.50329755  1
  H+  H73  1  0.35795477  0.88947378  0.15997754  1
  H+  H74  1  0.59527622  0.23994051  0.65110864  1
  H+  H75  1  0.36576257  0.98054352  0.81655565  1
  H+  H76  1  0.45493459  0.85483654  0.66053046  1
  H+  H77  1  0.07096472  0.90666204  0.77931816  1
  H+  H78  1  1.02846304  0.88818407  0.33649191  1
  H+  H79  1  0.72133518  0.09803394  0.65501910  1
  H+  H80  1  0.60969690  0.89446534  0.48541699  1
  H+  H81  1  0.83451956  0.16232777  0.39526437  1
  H+  H82  1  0.11795032  0.89102044  0.15548479  1
  H+  H83  1  0.74901216  0.35271025  0.85534231  1
  H+  H84  1  0.89503194  0.11615262  0.84040781  1
  H+  H85  1  0.12447728  0.26692829  0.65961138  1
  H+  H86  1  0.47479733  0.85575487  0.82054269  1
  H+  H87  1  0.14371848  0.49217204  0.66742875  1
  H+  H88  1  0.23027805  0.62183054  0.50181098  1
  H+  H89  1  0.53371657  0.25763640  0.61135694  1
  H+  H90  1  0.73154465  0.36281390  0.16711624  1
  H+  H91  1  0.87115791  0.23071233  0.15852851  1
  H+  H92  1  0.36159447  0.63682596  0.15956651  1
  H+  H93  1  0.72315435  0.36825390  0.33381934  1
  H+  H94  1  0.35978349  0.21997886  0.49434052  1
  H+  H95  1  0.63211587  0.35806660  0.16152945  1
  H+  H96  1  0.63587962  0.26345795  0.16012428  1
  H+  H97  1  0.11539586  0.39613767  0.49334596  1
  H+  H98  1  0.98062093  0.37114117  0.17684874  1
  H+  H99  1  0.86351739  0.47930327  0.33577800  1
  H+  H100  1  0.02306840  0.38859904  0.34157671  1
  H+  H101  1  0.38564966  0.85987625  0.32398769  1
  H+  H102  1  0.21717375  0.36267420  1.03389203  1
  H+  H103  1  0.00893809  0.12000328  0.51141106  1
  H+  H104  1  0.63708081  0.11446190  0.50305919  1
  H+  H105  1  0.57214329  0.39697484  0.40553513  1
  H+  H106  1  0.87041536  0.97311602  -0.01083307  1
  H+  H107  1  0.46614192  0.87006301  0.16646542  1
  H+  H108  1  0.08202564  0.12803541  0.07419944  1
  H+  H109  1  0.91733578  0.58416664  0.26301313  1
  H+  H110  1  0.17416866  0.07910121  0.60337243  1
  H+  H111  1  0.60492599  0.38541288  0.00486410  1
  H+  H112  1  0.63381203  0.09159467  0.84660422  1
  H+  H113  1  0.47324048  0.61517689  0.17035346  1
  H+  H114  1  0.35906298  0.38803853  1.01127139  1
  H+  H115  1  0.88211752  0.37837860  0.68471364  1
  H+  H116  1  -0.02778973  0.85582763  0.50156335  1
  H+  H117  1  0.89577708  0.77816491  0.32416137  1
  H+  H118  1  0.87833268  0.40782329  0.84326168  1
  H+  H119  1  0.75044843  0.87277514  0.71743107  1
  H+  H120  1  0.29797307  0.28791503  0.87717689  1
  H+  H121  1  0.07959050  0.90920906  0.05918151  1
  H+  H122  1  0.11775180  0.23919106  0.31539754  1
  H+  H123  1  0.26740189  0.63905641  0.00926417  1
  H+  H124  1  0.52280206  0.13152327  0.48932892  1
  H+  H125  1  0.61904833  0.67025973  0.13518485  1
  H+  H126  1  0.67011833  0.84344232  0.89382473  1
  H+  H127  1  0.15072594  0.03008985  0.16526867  1
  H+  H128  1  0.91674063  0.33405524  0.23395993  1
  H+  H129  1  0.74623401  0.34462919  1.02102094  1
  H+  H130  1  0.14428719  0.11388776  0.31345988  1
  H+  H131  1  0.89663151  0.89023954  0.15053357  1
  H+  H132  1  0.65173324  0.61240896  0.66958455  1
  H+  H133  1  0.88375690  0.36346831  0.32753855  1
  H+  H134  1  0.51433893  0.36983532  0.34167612  1
  H+  H135  1  0.96408915  0.62274365  0.16055758  1
  H+  H136  1  0.28087852  0.39201228  0.16399744  1
  H+  H137  1  0.59422344  0.37156401  0.67377684  1
  H+  H138  1  0.82168763  0.63801126  0.07513142  1
  H+  H139  1  0.10460369  0.86681417  0.48728000  1
  H+  H140  1  0.90612075  0.48940543  0.01005534  1
  H+  H141  1  0.34721042  0.88619714  0.66360935  1
  H+  H142  1  0.13758283  0.36966933  0.32246143  1
  H+  H143  1  0.14949066  0.37151879  0.65706340  1
  H+  H144  1  0.39108683  0.26440813  0.17104703  1
  H+  H145  1  0.88962977  0.86439702  0.32349782  1
  H+  H146  1  0.86641523  0.38612395  0.49196167  1
  H+  H147  1  0.27329803  0.13083288  0.82059531  1
  H+  H148  1  0.22377853  0.35610943  0.50660369  1
  H+  H149  1  0.00846565  0.86627757  0.68653567  1
  H+  H150  1  0.03195063  0.14485851  0.82810157  1
  H+  H151  1  0.13261382  0.14665949  0.15985466  1
  H+  H152  1  0.47087301  0.35575342  0.50625897  1
  H+  H153  1  0.97952011  0.36407228  0.50111243  1
  H+  H154  1  0.63066275  0.86664152  0.32459467  1
  H+  H155  1  0.87116806  0.62200229  0.63320267  1
  H+  H156  1  0.38978384  0.11497562  0.83731996  1
  H+  H157  1  0.84524486  0.60531148  0.72073869  1
  H+  H158  1  0.37779878  0.49501298  0.82031072  1
  H+  H159  1  0.13111800  0.01884911  0.83940100  1
  H+  H160  1  0.61261104  0.22187994  0.48873504  1
  H+  H161  1  0.39589108  0.81402605  0.56586557  1
  H+  H162  1  0.72387348  0.61046344  0.47782568  1
  H+  H163  1  0.88493962  0.76594606  0.17356721  1
  H+  H164  1  0.51969937  0.64188485  0.82427568  1
  H+  H165  1  0.61722995  0.46234719  0.16474469  1
  H+  H166  1  0.40418588  0.87951850  0.98971745  1
  H+  H167  1  0.27635006  0.13410334  0.33632720  1
  H+  H168  1  0.77109567  0.62236717  0.69345093  1
  H+  H169  1  0.21657346  0.86675249  0.64534683  1
  H+  H170  1  0.60024326  0.10873175  0.01110127  1
  H+  H171  1  0.13611942  0.09896731  0.98914742  1
  H+  H172  1  0.77627245  0.11972147  0.83089614  1
  H+  H173  1  0.89875852  0.65607347  1.00035511  1
  H+  H174  1  0.57623869  0.68677859  0.04602014  1
  H+  H175  1  0.77586729  0.13677385  0.49066188  1
  H+  H176  1  0.51540230  0.11688722  0.67095813  1
  H+  H177  1  0.78270973  0.14209295  0.16184608  1
  H+  H178  1  0.86171800  0.32186500  -0.00348275  1
  H+  H179  1  0.41738033  0.58211623  0.26682922  1
  H+  H180  1  0.94718959  0.53197493  1.00858116  1
  H+  H181  1  0.76150970  0.88178791  0.48763557  1
  H+  H182  1  0.62117899  0.64876918  0.33469317  1
  H+  H183  1  0.51714876  0.11967115  0.00609669  1
  H+  H184  1  0.38566086  0.02494427  0.99384429  1
  H+  H185  1  0.96193461  0.05460979  0.65093191  1
  H+  H186  1  0.00949853  0.16967669  0.68834323  1
  H+  H187  1  0.38524955  0.26892537  0.32828144  1
  H+  H188  1  0.14699640  0.54303955  0.99872221  1
  H+  H189  1  0.61699526  0.39094612  0.83055365  1
  H+  H190  1  0.61148751  0.64719429  0.47893883  1
  H+  H191  1  0.15979452  0.32446898  0.59140832  1
  H+  H192  1  0.22733051  0.86843421  0.17059248  1
  H+  H193  1  0.85101424  0.10948114  1.00982735  1
  H+  H194  1  0.86395434  0.73607441  0.84663187  1
  H+  H195  1  0.61035446  0.98165968  0.33395888  1
  H+  H196  1  0.89499642  0.86579814  0.95966209  1
  H+  H197  1  0.14597109  0.36983102  0.81092844  1
  H+  H198  1  0.85750466  0.47643519  0.16233235  1
  H+  H199  1  0.26903052  0.87284179  0.48680070  1
  H+  H200  1  0.63841622  0.11659354  0.32428690  1
  H+  H201  1  0.98151825  0.62826153  0.84931174  1
  H+  H202  1  0.86621642  0.23950127  -0.01767166  1
  H+  H203  1  0.41890261  0.63256301  0.63725028  1
  H+  H204  1  0.36554022  0.51508576  0.99792432  1
  H+  H205  1  -0.13906662  0.13041694  0.49292602  1
  H+  H206  1  0.12793943  0.49079452  0.83092506  1
  H+  H207  1  0.74281363  0.63210598  0.33101104  1
  H+  H208  1  0.38659634  0.11680167  0.18353568  1
  H+  H209  1  0.63474657  0.53286188  -0.00353794  1
  H+  H210  1  0.08448533  0.90868158  0.43038112  1
  H+  H211  1  0.36100993  0.72597605  0.15706935  1
  H+  H212  1  0.97384457  0.09538258  0.99567549  1
  H+  H213  1  0.36580496  0.36396234  0.83883703  1
  H+  H214  1  0.61843840  0.77789835  0.49608373  1
  H+  H215  1  0.77075709  0.88789864  0.33210602  1
  H+  H216  1  0.86230667  0.13532594  0.33345933  1
  H+  H217  1  0.23657095  0.87031762  0.83272867  1
  H+  H218  1  0.47545639  0.36580748  0.66145092  1
  H+  H219  1  0.36182773  0.98060072  0.16252766  1
  H+  H220  1  0.37512015  0.39960223  0.66957038  1
  H+  H221  1  0.38762873  0.35979107  0.32785313  1
  H+  H222  1  0.73167798  0.60678801  0.17514273  1
  H+  H223  1  0.02869278  0.88184989  -0.00484068  1
  H+  H224  1  0.13459988  0.77630256  0.65497893  1
  H+  H225  1  0.38718622  0.11488038  0.65298956  1
  H+  H226  1  0.14524488  0.29515116  0.16456141  1
  H+  H227  1  0.72681283  0.11377119  0.32504685  1
  H+  H228  1  0.86474689  0.63558779  0.48182838  1
  H+  H229  1  0.38895873  0.52264651  0.17426199  1
  H+  H230  1  0.14644315  0.78240352  0.84111899  1
  H+  H231  1  0.38731442  0.27626048  0.65972540  1
  H+  H232  1  0.62180332  0.99566419  0.48694660  1
  H+  H233  1  0.86998992  0.47687283  0.48648852  1
  H+  H234  1  0.38902632  0.11651102  -0.00797745  1
  H+  H235  1  0.63067689  0.57785827  0.19133538  1
  H+  H236  1  0.35367933  0.22309657  0.82532836  1
  H+  H237  1  0.52369965  0.13559598  0.33710067  1
  H+  H238  1  0.13124028  0.61272062  0.31977012  1
  H+  H239  1  0.54099975  0.90819090  0.72854512  1
  H+  H240  1  0.61272556  0.38028188  0.49347237  1
  H+  H241  1  0.63036377  0.77648853  0.32046131  1
  H+  H242  1  0.13336042  0.09277766  0.51552809  1
  H+  H243  1  0.47460505  0.11326996  0.17892627  1
  H+  H244  1  0.11972833  0.97350503  0.33600210  1
  H+  H245  1  0.86583601  0.48997775  0.85810297  1
  H+  H246  1  0.63160800  0.61103861  0.84164257  1
  H+  H247  1  0.88478223  0.27443470  0.32821521  1
  H+  H248  1  0.15830897  0.56179759  0.27000794  1
  H+  H249  1  0.23666518  0.37495066  0.80296469  1
  H+  H250  1  0.38979518  0.52368364  0.32690093  1
  H+  H251  1  0.62452077  0.66152608  0.99733657  1
  H+  H252  1  0.98827208  0.61446891  0.31681520  1
  H+  H253  1  0.14934497  0.87809616  0.98841101  1
  H+  H254  1  0.13770071  0.00669883  0.50775381  1
  H+  H255  1  0.78129483  0.89082673  0.84075815  1
  H+  H256  1  0.90254975  0.03168214  0.84720390  1
  H+  H257  1  0.54172158  0.64218002  0.66427426  1
  H+  H258  1  0.13314622  0.75454737  0.31573717  1
  H+  H259  1  0.38760671  0.49346025  0.66414526  1
  H+  H260  1  0.67369692  0.57891054  0.28158374  1
  H+  H261  1  0.35830012  0.96757075  0.33709858  1
  H+  H262  1  0.85257138  0.34045603  0.70416157  1
  H+  H263  1  0.61630256  0.47833963  0.82926525  1
  H+  H264  1  0.28431902  0.89818863  0.00374372  1
  H+  H265  1  0.14854852  0.63276354  0.98774713  1
  H+  H266  1  0.24221652  0.13243718  0.98038711  1
  H+  H267  1  0.38443071  0.01633196  0.49938339  1
  H+  H268  1  0.63449674  0.10388494  0.65610207  1
  H+  H269  1  0.63933447  0.92103670  -0.00201764  1
  H+  H270  1  0.85011545  0.10273756  0.67004822  1
  H+  H271  1  0.59408210  -0.03153393  0.67119701  1
  H+  H272  1  0.69660693  0.88135635  0.17515948  1
  H+  H273  1  0.33888520  0.42014071  0.07375135  1
  H+  H274  1  0.59826877  0.74258895  0.15226944  1
  H+  H275  1  0.34788246  0.60332917  0.84590297  1
  H+  H276  1  0.82814888  0.47822771  0.70204850  1
  H+  H277  1  0.97553579  0.11405403  0.31586548  1
  H+  H278  1  0.64339028  0.51988089  0.67062094  1
  H+  H279  1  0.97229059  0.33475005  0.65746360  1
  H+  H280  1  0.11995262  0.64476215  0.83426816  1
  H+  H281  1  0.64661357  0.77794450  0.83878009  1
  H+  H282  1  0.44036602  0.91150114  0.79128790  1
  H+  H283  1  0.81317312  0.89359217  0.13885502  1
  H+  H284  1  0.41621141  0.08161970  0.89653524  1
  H+  H285  1  0.72937011  0.36050984  0.50529551  1
  H+  H286  1  0.71325980  0.06994663  1.00802337  1
  H+  H287  1  0.65664015  0.57590182  0.42593836  1
  H+  H288  1  0.64051829  0.83453547  0.55729816  1
  H+  H289  1  0.32774960  0.66122630  0.07539544  1
  H+  H290  1  0.04234522  0.14571815  0.15903083  1
  H+  H291  1  0.34015101  0.92625733  0.06502990  1
  H+  H292  1  0.15744855  0.36988164  0.93443965  1
  H+  H293  1  0.41797872  0.07897239  0.27139052  1
  H+  H294  1  0.58629108  0.93187868  0.42057004  1
  H+  H295  1  0.66766402  0.58922128  0.93672075  1
  H+  H296  1  0.08778116  0.67183680  0.77629513  1
  H+  H297  1  0.39286166  0.57966977  0.93963172  1
  H+  H298  1  0.58195618  0.15999116  0.09922536  1
  H+  H299  1  0.06772491  0.52148392  0.19270210  1
  H+  H300  1  0.38565325  0.10637731  0.49912803  1
  H+  H301  1  0.16515973  0.35300941  0.90520676  1
  H+  H302  1  0.64332393  0.83743117  0.23433585  1
  H+  H303  1  0.58227388  0.67937374  0.42208799  1
  H+  H304  1  0.91417387  0.81272286  0.60314269  1
  H+  H305  1  0.67095773  0.09061173  0.23083090  1
  H+  H306  1  0.87492294  1.01020154  0.50276972  1
  H+  H307  1  0.13464397  0.75331799  0.99911658  1
  H+  H308  1  0.27875737  0.65801857  0.76276423  1
  H+  H309  1  0.17925468  0.08299783  0.25875266  1
  H+  H310  1  0.41343744  0.83459551  0.22861572  1
  H+  H311  1  0.41476845  0.08140472  0.59288299  1
  H+  H312  1  0.06866301  0.13431364  0.45642096  1
  H+  H313  1  0.27301627  0.12808375  0.49398069  1
  H+  H314  1  0.34151890  0.16881092  0.72806052  1
  H+  H315  1  0.52318839  0.37541749  0.16166567  1
  H+  H316  1  0.91905367  0.59099466  0.54380257  1
  H+  H317  1  0.66144185  0.31632673  0.94125254  1
  H+  H318  1  0.94030909  0.30461127  0.59069780  1
  H+  H319  1  0.58125400  0.66554061  0.76652143  1
  H+  H320  1  0.08584348  0.42282830  0.43288258  1
  H+  H321  1  0.10826161  0.65496195  0.14911944  1
  H+  H322  1  0.08600776  0.43287246  0.77316674  1
  H+  H323  1  0.37475876  0.16239296  0.11473124  1
  H+  H324  1  0.16651825  0.83233182  0.23040555  1
  H+  H325  1  0.81110573  0.37587899  0.07723914  1
  H+  H326  1  0.82254254  0.90990460  0.42897408  1
  H+  H327  1  0.61964580  0.14229443  0.16050642  1
  H+  H328  1  0.84763436  0.67348729  0.39343629  1
  H+  H329  1  0.72775261  0.26606235  0.88563682  1
  H+  H330  1  0.14984266  0.80416597  0.55996270  1
  H+  H331  1  0.86104567  0.72296862  0.48869332  1
  H+  H332  1  0.82681327  0.14186603  0.76781530  1
  H+  H333  1  0.09676908  0.45909550  0.08167818  1
  H+  H334  1  0.38808374  0.10808997  0.33073898  1
  H+  H335  1  0.83352037  0.41998049  0.39597196  1
  H+  H336  1  0.70733182  0.88384560  0.63978407  1
  H+  H337  1  0.58058790  0.41041734  0.73653237  1
  H+  H338  1  0.86316297  0.38857218  0.16993053  1
  H+  H339  1  0.32855416  0.90633397  0.42831541  1
  H+  H340  1  0.19626796  0.46932898  0.71423776  1
  H+  H341  1  0.89171677  0.27247850  0.49916183  1
  H+  H342  1  0.65587257  0.32013357  0.55865656  1
  H+  H343  1  0.08587989  0.66399885  0.37626498  1
  H+  H344  1  0.32836492  0.92462768  0.75521275  1
  H+  H345  1  0.83589312  0.67917379  0.78472676  1
  H+  H346  1  0.78665364  0.70138415  0.12238745  1
  H+  H347  1  0.42771704  0.80017205  0.91369081  1
  H+  H348  1  0.65925214  0.05923241  0.90644127  1
  H+  H349  1  0.58321002  0.93919156  0.09458747  1
  H+  H350  1  0.61748264  0.20654324  0.82482308  1
  H+  H351  1  0.92253322  0.83156867  0.23088651  1
  H+  H352  1  0.89937436  0.11895507  0.16579019  1
  H+  H353  1  0.92559971  0.08814439  0.93175438  1
  H+  H354  1  0.63495645  0.27345922  0.33260267  1
  H+  H355  1  0.41992963  0.32743893  0.23014203  1
  H+  H356  1  0.89689556  0.05670605  0.56726201  1
  H+  H357  1  0.18454320  0.85127489  0.92915118  1
  H+  H358  1  0.40985064  0.34020561  0.93563825  1
  H+  H359  1  0.83347327  0.91797187  0.75611680  1
  H+  H360  1  0.32923619  0.41180930  0.39755917  1
  H+  H361  1  0.58438907  0.16455115  0.39575063  1
  H+  H362  1  0.31889099  0.18060477  0.05899766  1
  H+  H363  1  0.33019195  0.66377358  0.42949109  1
  H+  H364  1  0.07764723  0.17261447  0.73510016  1
  H+  H365  1  0.16650214  0.58990274  0.59386129  1
  H+  H366  1  0.26965179  0.87603702  0.33320654  1
  H+  H367  1  0.57715300  0.14933125  0.73028055  1
  H+  H368  1  0.35950808  0.44294866  0.75635651  1
  H+  H369  1  0.33206131  0.16259730  0.39814937  1
  H+  H370  1  0.57952654  0.41592573  0.06496958  1
  H+  H371  1  0.43058948  0.67669966  0.87030888  1
  H+  H372  1  0.41302244  0.32993774  0.56614747  1
  H+  H373  1  0.35203727  0.97790275  0.66064310  1
  H+  H374  1  0.85408841  0.90960890  0.04397470  1
  H+  H375  1  0.14029823  0.68396211  0.50562248  1
  H+  H376  1  0.86181397  0.49110036  0.76868011  1
  H+  H377  1  0.09544895  0.18492487  0.37374307  1
  H+  H378  1  0.17290178  0.09192099  0.91385392  1
  H+  H379  1  0.82562692  0.14677569  0.06800523  1
  H+  H380  1  0.10143375  0.87848245  0.68569732  1
  H+  H381  1  0.94300988  0.64838667  0.93153606  1
  H+  H382  1  0.51950647  0.89022137  0.33662009  1
  H+  H383  1  0.18763498  0.72259029  0.71419852  1
  O2-  O384  1  0.10063337  0.17290254  0.14025386  1
  O2-  O385  1  0.07192158  0.15035706  0.49899150  1
  O2-  O386  1  0.09002846  0.16810342  0.80792946  1
  O2-  O387  1  0.08357896  0.43002201  0.16026037  1
  O2-  O388  1  0.08515540  0.42584674  0.47870526  1
  O2-  O389  1  0.09096951  0.42992698  0.81741830  1
  O2-  O390  1  0.07910144  0.68531273  0.13539690  1
  O2-  O391  1  0.10510177  0.71112887  0.49503357  1
  O2-  O392  1  0.08509472  0.67115545  0.82150767  1
  O2-  O393  1  0.08686243  0.91993777  0.13886676  1
  O2-  O394  1  0.08115705  0.90445330  0.47604583  1
  O2-  O395  1  0.08023750  0.91728644  0.82550642  1
  O2-  O396  1  0.34758144  0.16951770  0.15076505  1
  O2-  O397  1  0.33263886  0.16047166  0.47730719  1
  O2-  O398  1  0.33462316  0.16503779  0.80836026  1
  O2-  O399  1  0.34202104  0.41934283  0.15006651  1
  O2-  O400  1  0.32477797  0.40793525  0.47887602  1
  O2-  O401  1  0.35270238  0.43744151  0.80282251  1
  O2-  O402  1  0.33240474  0.66610657  0.14136893  1
  O2-  O403  1  0.32982563  0.65902686  0.47486991  1
  O2-  O404  1  0.27455575  0.64219161  0.82611556  1
  O2-  O405  1  0.33008448  0.92189084  0.14401565  1
  O2-  O406  1  0.32954802  0.90856392  0.47398276  1
  O2-  O407  1  0.33700803  0.92110726  0.79970911  1
  O2-  O408  1  0.58689795  0.17020544  0.14442014  1
  O2-  O409  1  0.58390726  0.16076377  0.47469244  1
  O2-  O410  1  0.58037428  0.14922992  0.80676246  1
  O2-  O411  1  0.58410046  0.40395371  0.14502848  1
  O2-  O412  1  0.57670256  0.40500850  0.47881236  1
  O2-  O413  1  0.58743740  0.41852426  0.81264580  1
  O2-  O414  1  0.57324766  0.68414959  0.13372619  1
  O2-  O415  1  0.58000661  0.67776987  0.46804636  1
  O2-  O416  1  0.57975563  0.66424305  0.81190578  1
  O2-  O417  1  0.57170066  0.93416749  0.13924543  1
  O2-  O418  1  0.58912236  0.93421495  0.46789953  1
  O2-  O419  1  0.49110090  0.90407652  0.79164142  1
  O2-  O420  1  0.84247227  0.16908536  0.14554024  1
  O2-  O421  1  0.83583983  0.16400416  0.47504723  1
  O2-  O422  1  0.83439627  0.14484469  0.81220809  1
  O2-  O423  1  0.82664833  0.41303670  0.15521535  1
  O2-  O424  1  0.83449748  0.41455970  0.47646905  1
  O2-  O425  1  0.84146386  0.43658693  0.83374021  1
  O2-  O426  1  0.80837409  0.66948209  0.14496962  1
  O2-  O427  1  0.83146483  0.66426869  0.46974447  1
  O2-  O428  1  0.83362982  0.67657705  0.83035962  1
  O2-  O429  1  0.87400301  0.92539047  0.12890052  1
  O2-  O430  1  0.82234291  0.90923130  0.47453597  1
  O2-  O431  1  0.84527104  0.92511808  0.83023279  1
  O2-  O432  1  0.18287056  0.08972490  0.18155316  1
  O2-  O433  1  0.16930508  0.06679805  0.52416155  1
  O2-  O434  1  0.16512060  0.08248016  0.85115349  1
  O2-  O435  1  0.17456761  0.35172424  0.18482341  1
  O2-  O436  1  0.16290469  0.32769912  0.52279761  1
  O2-  O437  1  0.17410512  0.33755067  0.79652695  1
  O2-  O438  1  0.11807308  0.51426180  0.19250661  1
  O2-  O439  1  0.17063689  0.60033914  0.51865158  1
  O2-  O440  1  0.18586564  0.59800013  0.85145275  1
  O2-  O441  1  0.16585982  0.83729288  0.18439110  1
  O2-  O442  1  0.15511960  0.80202827  0.51344551  1
  O2-  O443  1  0.17842748  0.84425919  0.85256614  1
  O2-  O444  1  0.41574460  0.08192740  0.19588173  1
  O2-  O445  1  0.41716001  0.07711629  0.51415083  1
  O2-  O446  1  0.41804106  0.08235184  0.85117193  1
  O2-  O447  1  0.42143777  0.32861139  0.18501845  1
  O2-  O448  1  0.41005404  0.32660666  0.52045106  1
  O2-  O449  1  0.35766953  0.31333959  0.86401277  1
  O2-  O450  1  0.41552889  0.58347118  0.18919427  1
  O2-  O451  1  0.41581584  0.57929745  0.50841787  1
  O2-  O452  1  0.40472357  0.61359207  0.86125079  1
  O2-  O453  1  0.40735295  0.83397028  0.18340401  1
  O2-  O454  1  0.40299910  0.81383741  0.52123703  1
  O2-  O455  1  0.42486330  0.77022070  0.87416066  1
  O2-  O456  1  0.67397316  0.09493877  0.18539662  1
  O2-  O457  1  0.66712071  0.08250258  0.51652638  1
  O2-  O458  1  0.67676255  0.07945345  0.86456660  1
  O2-  O459  1  0.66555603  0.32727540  0.17490445  1
  O2-  O460  1  0.66616097  0.32780017  0.51405612  1
  O2-  O461  1  0.69933471  0.29732939  0.87179652  1
  O2-  O462  1  0.67246426  0.55921955  0.19742099  1
  O2-  O463  1  0.65991386  0.57906449  0.47047672  1
  O2-  O464  1  0.66202693  0.58185842  0.85839396  1
  O2-  O465  1  0.63844192  0.84023054  0.18792483  1
  O2-  O466  1  0.64606195  0.83848731  0.51203814  1
  O2-  O467  1  0.68031364  0.83932893  0.84987670  1
  O2-  O468  1  0.93242292  0.09114984  0.18101071  1
  O2-  O469  1  0.90472766  0.06851107  0.52268038  1
  O2-  O470  1  0.93344003  0.09408135  0.85832813  1
  O2-  O471  1  0.91720728  0.33648714  0.18857144  1
  O2-  O472  1  0.91991290  0.33062984  0.51817684  1
  O2-  O473  1  0.91895311  0.35544489  0.85833866  1
  O2-  O474  1  0.90530964  0.58718719  0.17724037  1
  O2-  O475  1  0.92566736  0.58938376  0.49847366  1
  O2-  O476  1  0.92505611  0.60574829  0.87051209  1
  O2-  O477  1  0.92354376  0.82834710  0.18531863  1
  O2-  O478  1  0.91198588  0.82393854  0.51698332  1
  O2-  O479  1  0.92653343  0.84292275  0.87869295  1
  O2-  O480  1  0.17477240  0.08216813  0.30445145  1
  O2-  O481  1  0.18072605  0.09339846  0.64745140  1
  O2-  O482  1  0.18167068  0.09727747  0.96253820  1
  O2-  O483  1  0.16930003  0.34158978  0.30552376  1
  O2-  O484  1  0.16080893  0.32548263  0.63877300  1
  O2-  O485  1  0.15598477  0.34086023  1.04490416  1
  O2-  O486  1  0.16375262  0.57750484  0.31336589  1
  O2-  O487  1  0.15893925  0.58156907  0.63939867  1
  O2-  O488  1  0.17873143  0.60124962  0.97604156  1
  O2-  O489  1  0.16745270  0.82090773  0.30423182  1
  O2-  O490  1  0.15541735  0.83020181  0.63137593  1
  O2-  O491  1  0.18448260  0.85148213  0.97480172  1
  O2-  O492  1  0.41872847  0.07744231  0.31720618  1
  O2-  O493  1  0.41543531  0.08195212  0.63842892  1
  O2-  O494  1  0.41754447  0.08569435  0.97643961  1
  O2-  O495  1  0.41899890  0.33006767  0.31381565  1
  O2-  O496  1  0.41631099  0.33635124  0.64326712  1
  O2-  O497  1  0.41593106  0.33996045  0.98057762  1
  O2-  O498  1  0.42002749  0.58447636  0.31242272  1
  O2-  O499  1  0.44359776  0.59719516  0.62588395  1
  O2-  O500  1  0.39028657  0.57610736  0.98459310  1
  O2-  O501  1  0.42026683  0.83374662  0.30872913  1
  O2-  O502  1  0.39312317  0.82508471  0.64755531  1
  O2-  O503  1  0.43841659  0.85326172  0.97644838  1
  O2-  O504  1  0.66626639  0.08360496  0.30932092  1
  O2-  O505  1  0.66140695  0.07143885  0.63853172  1
  O2-  O506  1  0.65086082  0.03980746  0.99213330  1
  O2-  O507  1  0.66040142  0.33618164  0.32234539  1
  O2-  O508  1  0.59258279  0.28610039  0.62643814  1
  O2-  O509  1  0.64438313  0.31809653  0.98408802  1
  O2-  O510  1  0.67946660  0.60148270  0.32344397  1
  O2-  O511  1  0.68259854  0.58120751  0.66006471  1
  O2-  O512  1  0.67053351  0.59308457  0.98219762  1
  O2-  O513  1  0.65963088  0.83768141  0.30496024  1
  O2-  O514  1  0.64716573  0.83880086  0.63715702  1
  O2-  O515  1  0.67341698  0.85909926  0.97431941  1
  O2-  O516  1  0.91378267  0.08088210  0.30440984  1
  O2-  O517  1  0.90299831  0.04209312  0.64428991  1
  O2-  O518  1  0.91697300  0.07618231  0.97725544  1
  O2-  O519  1  0.91649079  0.33510180  0.31372671  1
  O2-  O520  1  0.95549256  0.28663175  0.62977104  1
  O2-  O521  1  0.89399923  0.30071906  0.97196265  1
  O2-  O522  1  0.92246162  0.58400434  0.30775356  1
  O2-  O523  1  0.89770389  0.59173460  0.61389913  1
  O2-  O524  1  0.95649695  0.68128699  0.97245902  1
  O2-  O525  1  0.92401482  0.83887992  0.30824988  1
  O2-  O526  1  0.91589836  0.81539827  0.64791640  1
  O2-  O527  1  0.93069498  0.84030827  0.94525707  1
  O2-  O528  1  0.06452229  0.09194743  0.03507811  1
  O2-  O529  1  0.08843293  0.17687033  0.33001589  1
  O2-  O530  1  0.06737022  0.17758186  0.68994596  1
  O2-  O531  1  0.10565964  0.46100677  0.03683435  1
  O2-  O532  1  0.08357443  0.41696627  0.35663499  1
  O2-  O533  1  0.14227485  0.44304263  0.69155142  1
  O2-  O534  1  0.09608877  0.69144557  0.01236829  1
  O2-  O535  1  0.08591455  0.66158677  0.33195566  1
  O2-  O536  1  0.12744916  0.69229931  0.70153745  1
  O2-  O537  1  0.08575985  0.91445195  0.01410501  1
  O2-  O538  1  0.08823753  0.91426802  0.35286165  1
  O2-  O539  1  0.06427951  0.89322823  0.70932850  1
  O2-  O540  1  0.32924330  0.17974538  0.01502150  1
  O2-  O541  1  0.33635625  0.16512754  0.35280020  1
  O2-  O542  1  0.34284339  0.17158152  0.68280510  1
  O2-  O543  1  0.32839771  0.41632205  0.02865412  1
  O2-  O544  1  0.33432802  0.41508372  0.35233932  1
  O2-  O545  1  0.35471591  0.43818414  0.68571659  1
  O2-  O546  1  0.32701204  0.65931530  0.02739311  1
  O2-  O547  1  0.33195758  0.66745044  0.35000328  1
  O2-  O548  1  0.29419247  0.66955965  0.71418434  1
  O2-  O549  1  0.34469820  0.92933654  0.01967663  1
  O2-  O550  1  0.32953703  0.90631263  0.35059415  1
  O2-  O551  1  0.31657120  0.91756668  0.67596399  1
  O2-  O552  1  0.57668995  0.14590241  0.02326958  1
  O2-  O553  1  0.58573366  0.16841172  0.35036197  1
  O2-  O554  1  0.57678766  0.14909077  0.68441182  1
  O2-  O555  1  0.57850449  0.41953444  0.01975306  1
  O2-  O556  1  0.57478112  0.39646370  0.35941398  1
  O2-  O557  1  0.57660915  0.41132977  0.69091301  1
  O2-  O558  1  0.59657972  0.69656364  0.00380234  1
  O2-  O559  1  0.58673398  0.67700648  0.34658781  1
  O2-  O560  1  0.59663467  0.67272293  0.68731351  1
  O2-  O561  1  0.60985374  0.95218106  0.01736386  1
  O2-  O562  1  0.58086527  0.92212792  0.35225081  1
  O2-  O563  1  0.55972368  0.90759851  0.68496703  1
  O2-  O564  1  0.81159399  0.12958806  0.02450707  1
  O2-  O565  1  0.83177702  0.16456956  0.34998546  1
  O2-  O566  1  0.82644828  0.14011759  0.68072093  1
  O2-  O567  1  0.79562712  0.34303785  0.03899899  1
  O2-  O568  1  0.82919927  0.41834918  0.35066878  1
  O2-  O569  1  0.86862420  0.52300225  0.72946347  1
  O2-  O570  1  0.82251415  0.62046665  0.03162471  1
  O2-  O571  1  0.85001496  0.67678007  0.34792762  1
  O2-  O572  1  0.83258164  0.65205330  0.71033791  1
  O2-  O573  1  0.84372123  0.91004345  -0.00011068  1
  O2-  O574  1  0.82953847  0.91534904  0.34971272  1
  O2-  O575  1  0.81225361  0.90852887  0.71273717  1
