# generated using pymatgen
data_H2O
_symmetry_space_group_name_H-M   'P 1'
_cell_length_a   17.98896725
_cell_length_b   17.98939805
_cell_length_c   22.00083757
_cell_angle_alpha   89.98869120
_cell_angle_beta   90.00764464
_cell_angle_gamma   120.00010945
_symmetry_Int_Tables_number   1
_chemical_formula_structural   H2O
_chemical_formula_sum   'H384 O192'
_cell_volume   6165.83957852
_cell_formula_units_Z   192
loop_
 _symmetry_equiv_pos_site_id
 _symmetry_equiv_pos_as_xyz
  1  'x, y, z'
loop_
 _atom_type_symbol
 _atom_type_oxidation_number
  H+  1.0
  O2-  -2.0
loop_
 _atom_site_type_symbol
 _atom_site_label
 _atom_site_symmetry_multiplicity
 _atom_site_fract_x
 _atom_site_fract_y
 _atom_site_fract_z
 _atom_site_occupancy
  H+  H0  1  0.75963054  0.62790847  0.51244172  1
  H+  H1  1  0.37039069  0.60642783  0.29251259  1
  H+  H2  1  1.02076364  0.63669710  0.67127478  1
  H+  H3  1  1.02884010  0.88583538  0.33625349  1
  H+  H4  1  0.90208112  0.52197254  0.33663052  1
  H+  H5  1  0.74269577  0.70105039  0.52914494  1
  H+  H6  1  0.16335145  0.33119066  0.22863313  1
  H+  H7  1  0.13821423  0.02090993  0.32663096  1
  H+  H8  1  0.47533448  0.11377420  1.00019857  1
  H+  H9  1  0.87238379  0.40110691  0.00421764  1
  H+  H10  1  0.10564369  0.22680719  0.15967052  1
  H+  H11  1  0.79309762  0.88399922  0.37143424  1
  H+  H12  1  0.47375683  0.11090639  0.84566123  1
  H+  H13  1  0.10772043  0.13228656  0.99827492  1
  H+  H14  1  0.45081688  0.40470578  0.00113879  1
  H+  H15  1  0.34022049  -0.02685508  0.18201209  1
  H+  H16  1  0.78761333  0.64317181  0.82034843  1
  H+  H17  1  0.91682400  0.72123895  0.50055582  1
  H+  H18  1  0.01171633  0.14931307  0.83747046  1
  H+  H19  1  0.11132604  0.13239439  0.72603053  1
  H+  H20  1  0.97584310  0.35963309  0.99450649  1
  H+  H21  1  0.38183660  0.35662061  0.66177619  1
  H+  H22  1  0.59908458  -0.01027516  0.20048376  1
  H+  H23  1  1.02839579  0.63498786  0.33840832  1
  H+  H24  1  0.11521140  0.13949439  0.33846663  1
  H+  H25  1  0.79466753  0.41502491  0.34611767  1
  H+  H26  1  0.77561712  0.63132800  0.35207221  1
  H+  H27  1  0.81046796  0.63312476  0.12851544  1
  H+  H28  1  0.58133291  0.41658485  0.40649165  1
  H+  H29  1  0.37552033  0.64529423  0.01993986  1
  H+  H30  1  0.88320087  0.53054674  -0.01510497  1
  H+  H31  1  0.46643791  0.39242823  0.12678913  1
  H+  H32  1  0.52430527  0.66494017  0.34799212  1
  H+  H33  1  0.88888288  0.62191262  0.65867084  1
  H+  H34  1  0.36764377  0.97328064  0.01401610  1
  H+  H35  1  0.36978477  0.21414059  0.34091241  1
  H+  H36  1  1.00807100  0.14891810  0.68313625  1
  H+  H37  1  0.89585317  0.60690139  0.32679217  1
  H+  H38  1  0.07902821  0.41891608  0.76717706  1
  H+  H39  1  0.13445617  0.85113694  0.65873243  1
  H+  H40  1  0.63655564  0.11721864  0.18127132  1
  H+  H41  1  -0.02275420  0.35222223  0.50787987  1
  H+  H42  1  0.12699867  0.51240598  0.98025047  1
  H+  H43  1  -0.02399854  0.68870598  0.12067776  1
  H+  H44  1  0.61662221  0.05654890  0.35945694  1
  H+  H45  1  0.61718389  0.87682398  0.17139069  1
  H+  H46  1  0.72767992  0.35474535  0.84607900  1
  H+  H47  1  0.35605752  0.64220738  0.81640804  1
  H+  H48  1  0.10896792  0.48302238  0.82480866  1
  H+  H49  1  0.86856313  0.26045902  0.33215375  1
  H+  H50  1  0.02324712  0.89013452  -0.00310553  1
  H+  H51  1  0.40967251  0.41496202  0.31693284  1
  H+  H52  1  0.13592273  0.85321784  0.16466773  1
  H+  H53  1  0.73518201  0.62745908  0.97352088  1
  H+  H54  1  0.88591616  0.87130356  -0.01739009  1
  H+  H55  1  0.11868314  0.27514266  0.66388129  1
  H+  H56  1  0.21442679  0.35366058  0.66041583  1
  H+  H57  1  0.86519432  0.21218051  0.50125972  1
  H+  H58  1  0.97458455  0.36345159  0.66282388  1
  H+  H59  1  0.85619545  0.12732706  0.82921412  1
  H+  H60  1  0.48456454  0.62084690  -0.00120076  1
  H+  H61  1  0.11790995  0.63644982  0.34284273  1
  H+  H62  1  0.64734910  0.24766889  0.34901955  1
  H+  H63  1  0.89817217  0.78433149  0.83478287  1
  H+  H64  1  0.79540227  0.88523297  0.66168626  1
  H+  H65  1  0.62522161  0.65103502  0.99936270  1
  H+  H66  1  0.39968757  0.12261497  0.67691670  1
  H+  H67  1  0.38395806  0.02321303  0.84510094  1
  H+  H68  1  0.56400390  0.41536455  0.77277060  1
  H+  H69  1  0.20766876  0.11351388  0.97425113  1
  H+  H70  1  0.68490501  0.25608503  0.18419813  1
  H+  H71  1  0.49151114  0.12460181  0.52027303  1
  H+  H72  1  0.88923557  0.52286584  0.83191505  1
  H+  H73  1  0.33691048  0.45366634  0.67140021  1
  H+  H74  1  0.99093577  0.87397328  0.83521501  1
  H+  H75  1  0.13550406  0.76750298  0.32320321  1
  H+  H76  1  0.61745693  0.71741620  0.16354036  1
  H+  H77  1  0.66596256  0.08627869  0.59973225  1
  H+  H78  1  0.22679435  0.11418993  0.50983237  1
  H+  H79  1  0.64463225  0.87710323  0.82259641  1
  H+  H80  1  0.13844014  0.11438160  0.51215901  1
  H+  H81  1  0.56244644  0.40383642  -0.03880111  1
  H+  H82  1  0.48226689  0.85763941  0.50135123  1
  H+  H83  1  0.34942233  0.47126867  0.14056875  1
  H+  H84  1  0.15675961  0.57834823  0.89391736  1
  H+  H85  1  0.73438037  0.85685564  0.17276121  1
  H+  H86  1  0.11741209  0.38554852  0.49483574  1
  H+  H87  1  0.86844870  0.88110521  0.81717747  1
  H+  H88  1  0.11336441  0.47463905  0.49391128  1
  H+  H89  1  0.10783398  0.47769019  0.67163580  1
  H+  H90  1  0.96571399  0.62767114  0.49549109  1
  H+  H91  1  0.88553114  0.00302728  0.52067335  1
  H+  H92  1  0.10872272  0.75636646  0.16649514  1
  H+  H93  1  0.12558190  0.38657638  0.34302079  1
  H+  H94  1  0.63777023  0.53194866  0.34592168  1
  H+  H95  1  0.34984924  0.49466018  0.35455369  1
  H+  H96  1  0.72669016  0.11155544  0.99267506  1
  H+  H97  1  0.62349933  0.03845842  0.26399628  1
  H+  H98  1  0.26480272  0.38746983  0.82563795  1
  H+  H99  1  0.17466471  0.12204007  0.77055889  1
  H+  H100  1  0.23030030  0.60822122  0.33301962  1
  H+  H101  1  0.37058034  0.72110760  0.17242351  1
  H+  H102  1  0.37054316  0.14487338  0.50140514  1
  H+  H103  1  0.11013048  0.38947664  0.67140637  1
  H+  H104  1  0.27078493  0.88789206  0.67106280  1
  H+  H105  1  0.02670445  0.88464087  0.67248710  1
  H+  H106  1  0.86152955  -0.01190012  1.00138008  1
  H+  H107  1  0.22266640  0.83739399  0.50488163  1
  H+  H108  1  0.13978115  0.27039227  0.99149962  1
  H+  H109  1  0.86160186  0.12073701  0.50055017  1
  H+  H110  1  0.08852028  0.42150631  0.06296062  1
  H+  H111  1  0.55575190  0.33270283  0.18368285  1
  H+  H112  1  0.25834249  0.64183464  0.66716283  1
  H+  H113  1  0.37997281  0.71958073  0.34801336  1
  H+  H114  1  0.34315020  0.63671509  0.66693022  1
  H+  H115  1  0.96277151  0.11413833  0.16806858  1
  H+  H116  1  0.55145979  0.65844753  0.68529655  1
  H+  H117  1  0.72743539  0.10262089  0.50841772  1
  H+  H118  1  0.97368309  0.11786746  0.32356443  1
  H+  H119  1  0.11626727  0.88441216  0.33476487  1
  H+  H120  1  0.88765519  0.27319470  0.83966718  1
  H+  H121  1  0.76969181  0.13786149  0.67442663  1
  H+  H122  1  0.10109756  0.13608132  0.16075136  1
  H+  H123  1  0.12571599  0.59962881  0.98448662  1
  H+  H124  1  0.38530373  0.77949899  0.83608710  1
  H+  H125  1  0.47591941  0.36522095  0.66156940  1
  H+  H126  1  0.15437362  0.58032748  0.59862027  1
  H+  H127  1  0.38237546  0.61125809  0.16328466  1
  H+  H128  1  0.52113867  0.88182887  0.82432033  1
  H+  H129  1  0.89850957  0.77713156  0.14898387  1
  H+  H130  1  0.88091753  0.00688917  0.82968618  1
  H+  H131  1  0.29410046  0.13292085  0.67458518  1
  H+  H132  1  0.39157032  0.84600251  0.33882928  1
  H+  H133  1  0.09855202  0.24462386  0.83758058  1
  H+  H134  1  1.02105042  0.12605590  0.49511768  1
  H+  H135  1  0.63435598  0.11153557  0.83967208  1
  H+  H136  1  0.87844763  0.42776868  0.12278815  1
  H+  H137  1  0.32698586  0.37469941  0.15828453  1
  H+  H138  1  0.46482160  0.61186170  0.83424384  1
  H+  H139  1  0.36052629  0.38249100  0.49505475  1
  H+  H140  1  0.61352348  0.47580507  0.50074483  1
  H+  H141  1  0.61276022  0.47614640  0.67353293  1
  H+  H142  1  0.37654261  0.27456044  0.85057761  1
  H+  H143  1  0.12240358  0.60518383  0.50257436  1
  H+  H144  1  0.65487942  0.52148219  0.16003112  1
  H+  H145  1  0.39094111  0.27704281  0.50805702  1
  H+  H146  1  0.78517647  0.63604128  0.22818259  1
  H+  H147  1  0.37532500  0.60590353  0.50840047  1
  H+  H148  1  0.64118820  0.26516414  0.00866844  1
  H+  H149  1  0.84624417  0.65492314  0.40498377  1
  H+  H150  1  0.86462219  0.37620254  0.49678148  1
  H+  H151  1  0.61865943  0.13128788  0.00971845  1
  H+  H152  1  0.87617159  0.10686637  0.66231247  1
  H+  H153  1  0.27156474  0.13588739  0.15126904  1
  H+  H154  1  0.63426844  0.02174883  0.83743513  1
  H+  H155  1  0.62636758  1.03354079  0.66060017  1
  H+  H156  1  0.36875114  -0.00286325  0.33620424  1
  H+  H157  1  0.35543829  0.46881772  0.49642775  1
  H+  H158  1  0.38523103  0.84941697  0.18451600  1
  H+  H159  1  0.19141633  0.86068092  0.91972661  1
  H+  H160  1  0.63988164  0.36052193  0.51162884  1
  H+  H161  1  0.49491459  0.12503610  0.13513622  1
  H+  H162  1  0.63652758  0.35137287  1.00888654  1
  H+  H163  1  0.74354703  0.87523051  0.81868539  1
  H+  H164  1  0.21527812  0.61118274  0.50531819  1
  H+  H165  1  0.37917895  0.52234776  0.82029563  1
  H+  H166  1  0.85425078  0.12612841  0.34314045  1
  H+  H167  1  0.49592541  0.89190771  0.66907438  1
  H+  H168  1  0.33527703  0.92114869  0.77282512  1
  H+  H169  1  0.61508171  0.87978472  0.99400649  1
  H+  H170  1  0.44948715  0.35277891  0.10766960  1
  H+  H171  1  0.13980621  0.76565175  0.66041751  1
  H+  H172  1  0.26768502  0.89273638  0.83126651  1
  H+  H173  1  0.13486874  0.37747574  0.84235499  1
  H+  H174  1  0.12562742  0.61054676  0.65910786  1
  H+  H175  1  0.38834814  0.87034508  0.83823545  1
  H+  H176  1  0.48402858  0.44388132  0.26645070  1
  H+  H177  1  0.10411000  0.71531372  0.49537642  1
  H+  H178  1  0.63642291  0.78056393  0.99600126  1
  H+  H179  1  0.67608623  0.87597522  0.66482060  1
  H+  H180  1  0.61682840  0.13411082  0.50689609  1
  H+  H181  1  0.63886969  0.28016629  0.66739972  1
  H+  H182  1  0.08191398  0.16591090  0.06151070  1
  H+  H183  1  0.37432033  0.77666783  0.65457038  1
  H+  H184  1  0.43078719  0.57967774  0.66081448  1
  H+  H185  1  0.51662674  0.88480208  0.99259689  1
  H+  H186  1  0.22037378  0.61355778  0.83512744  1
  H+  H187  1  0.22065293  0.35499214  0.50835587  1
  H+  H188  1  0.66537165  0.40553838  0.32046252  1
  H+  H189  1  0.52631183  0.87005566  0.16833324  1
  H+  H190  1  0.65092566  0.61997652  0.66300217  1
  H+  H191  1  0.13926756  0.41797765  0.15348115  1
  H+  H192  1  0.92565104  0.36355668  0.18291126  1
  H+  H193  1  0.57268179  0.33950686  0.15156883  1
  H+  H194  1  0.12050249  0.02585583  0.98262388  1
  H+  H195  1  0.02845662  0.64066853  0.82031379  1
  H+  H196  1  0.86359832  0.39107758  0.67019205  1
  H+  H197  1  0.87005565  0.89509306  0.14970562  1
  H+  H198  1  0.37401295  0.73285518  0.01784098  1
  H+  H199  1  0.87446904  0.11500156  0.17052974  1
  H+  H200  1  0.77963926  0.38188525  0.49843885  1
  H+  H201  1  0.98503894  0.62111166  0.15737452  1
  H+  H202  1  0.36550463  0.95021582  0.46769451  1
  H+  H203  1  0.15302245  0.79844421  0.83812522  1
  H+  H204  1  0.22742212  0.36654876  0.32909617  1
  H+  H205  1  0.11335907  0.38107493  1.00666984  1
  H+  H206  1  0.32668030  0.89527706  0.10237835  1
  H+  H207  1  0.84813611  0.52773226  0.18571657  1
  H+  H208  1  0.60677215  0.24077265  0.33405425  1
  H+  H209  1  0.91194911  0.59255467  0.59728470  1
  H+  H210  1  0.01866110  0.63051030  -0.00370305  1
  H+  H211  1  0.65409093  0.79081046  0.33841830  1
  H+  H212  1  0.52338310  0.63767714  0.14863803  1
  H+  H213  1  0.96326947  0.85406667  0.59651395  1
  H+  H214  1  0.14657906  0.54740027  0.18028675  1
  H+  H215  1  0.35132512  0.38217993  0.82793765  1
  H+  H216  1  0.57781671  0.68060607  0.40821578  1
  H+  H217  1  0.36145678  0.72125193  0.49681178  1
  H+  H218  1  0.98714502  0.12977735  0.99702771  1
  H+  H219  1  0.61691530  0.65212356  0.83618620  1
  H+  H220  1  0.58380588  0.90139367  0.65327151  1
  H+  H221  1  0.03557127  0.89153857  0.14866971  1
  H+  H222  1  0.36125911  0.97878466  0.67433344  1
  H+  H223  1  0.61108854  0.38721404  0.67660700  1
  H+  H224  1  0.47876621  0.84857406  0.35981601  1
  H+  H225  1  0.25798292  0.85162893  0.15677987  1
  H+  H226  1  0.80528192  0.35706997  0.16309644  1
  H+  H227  1  0.13866935  0.27531400  0.33039617  1
  H+  H228  1  0.06317758  0.91166750  0.44236851  1
  H+  H229  1  0.33200513  0.65771702  0.43980633  1
  H+  H230  1  0.12133857  0.89142875  0.83226818  1
  H+  H231  1  0.37392557  0.86676829  0.65462752  1
  H+  H232  1  0.63521082  1.01563437  0.50537251  1
  H+  H233  1  0.23618735  0.62943632  0.18668610  1
  H+  H234  1  0.88337931  0.75910510  0.33602203  1
  H+  H235  1  0.87353547  0.73921929  0.66074555  1
  H+  H236  1  0.15878313  0.88430172  -0.01906685  1
  H+  H237  1  0.32031696  0.26196690  0.18270027  1
  H+  H238  1  0.67111944  0.60258107  0.78267127  1
  H+  H239  1  0.26818454  0.86278044  0.32853011  1
  H+  H240  1  0.21470155  0.35632048  0.16567119  1
  H+  H241  1  0.86097253  0.14680780  0.01568601  1
  H+  H242  1  0.58026008  0.57613434  0.19477615  1
  H+  H243  1  0.36706355  0.86492073  0.48630826  1
  H+  H244  1  0.22645349  0.10985751  0.33095458  1
  H+  H245  1  0.13286441  -0.02994020  0.15608688  1
  H+  H246  1  0.34646492  0.13052882  -0.00562708  1
  H+  H247  1  0.78579603  0.64973576  0.67047644  1
  H+  H248  1  0.60446202  0.49894287  -0.01699102  1
  H+  H249  1  0.59806825  0.67167407  0.06445825  1
  H+  H250  1  0.05180780  0.41046296  0.16568173  1
  H+  H251  1  0.86022419  -0.02060895  0.15480668  1
  H+  H252  1  0.72263291  0.87292731  0.99211464  1
  H+  H253  1  0.61689332  0.22174172  0.83650788  1
  H+  H254  1  0.60924920  0.94869295  0.39500535  1
  H+  H255  1  0.88963331  0.02336624  0.66271209  1
  H+  H256  1  0.86417276  0.38671027  0.82546282  1
  H+  H257  1  0.12414697  0.96062792  0.66789214  1
  H+  H258  1  0.35994189  0.14475047  0.83818557  1
  H+  H259  1  0.61469310  -0.02310853  0.99450224  1
  H+  H260  1  0.78270353  0.39570223  0.00948597  1
  H+  H261  1  0.36834126  0.19206342  0.13076237  1
  H+  H262  1  0.70497760  0.84945986  0.51646842  1
  H+  H263  1  0.52273672  0.38887355  0.50188143  1
  H+  H264  1  0.50061994  0.08399770  0.35918599  1
  H+  H265  1  0.49391942  0.16642903  0.13811145  1
  H+  H266  1  0.88565838  0.89047044  0.65766237  1
  H+  H267  1  0.33286131  0.42224486  0.40302786  1
  H+  H268  1  0.39866462  0.53127934  -0.00554163  1
  H+  H269  1  0.87761418  0.23962881  0.16568184  1
  H+  H270  1  0.37327174  0.23011562  0.67682156  1
  H+  H271  1  0.64025597  0.74148573  0.67930170  1
  H+  H272  1  0.76835841  0.66616188  0.22275804  1
  H+  H273  1  0.82355233  0.88272430  0.46556979  1
  H+  H274  1  0.97540993  0.36413419  0.83859836  1
  H+  H275  1  0.35929013  0.12078451  0.34581806  1
  H+  H276  1  0.52973634  0.14476997  0.68224828  1
  H+  H277  1  0.60870724  0.64394514  0.49612856  1
  H+  H278  1  0.71437285  0.07585010  0.35161765  1
  H+  H279  1  0.53022784  0.40320007  0.34290348  1
  H+  H280  1  0.86321889  0.48026983  0.66975906  1
  H+  H281  1  0.86537926  0.73555929  -0.01757071  1
  H+  H282  1  0.10527974  0.21932596  0.49568012  1
  H+  H283  1  0.40070570  0.03978841  0.53388230  1
  H+  H284  1  0.39078393  0.86857057  0.99278013  1
  H+  H285  1  0.17102550  0.07991402  0.67784930  1
  H+  H286  1  0.87728468  0.87818378  0.38141868  1
  H+  H287  1  0.59778798  0.72633025  0.50280226  1
  H+  H288  1  0.86411379  0.64288920  -0.01748332  1
  H+  H289  1  0.38802507  0.05220264  0.27770171  1
  H+  H290  1  0.66874987  0.33411442  0.57249602  1
  H+  H291  1  0.08796930  -0.03265780  0.50023221  1
  H+  H292  1  0.64653331  0.78479876  0.83521721  1
  H+  H293  1  0.08470583  0.16586629  0.39892085  1
  H+  H294  1  0.59303062  0.68583139  0.77857455  1
  H+  H295  1  0.91690278  0.07398582  0.57195389  1
  H+  H296  1  0.16669804  0.34672967  0.90183991  1
  H+  H297  1  0.06415022  0.65377885  0.05919111  1
  H+  H298  1  0.82711126  0.15148954  0.40576517  1
  H+  H299  1  0.89422648  0.61515699  0.82999181  1
  H+  H300  1  0.08144992  0.66434676  0.73198031  1
  H+  H301  1  0.90376141  0.04287427  0.89635990  1
  H+  H302  1  0.66875859  0.08233106  0.93116168  1
  H+  H303  1  0.66342251  0.83110686  0.59817263  1
  H+  H304  1  0.33888638  0.16718933  0.43958734  1
  H+  H305  1  0.16076944  0.82074532  0.26058047  1
  H+  H306  1  0.67879311  0.33900601  0.16953464  1
  H+  H307  1  0.91984046  0.32584388  0.56838396  1
  H+  H308  1  0.34113589  0.17782861  0.77720611  1
  H+  H309  1  0.09679836  0.42054205  0.40896873  1
  H+  H310  1  0.58707349  0.16784148  0.77442088  1
  H+  H311  1  0.70333027  0.37008406  0.26874220  1
  H+  H312  1  0.84299424  0.90945218  0.75307166  1
  H+  H313  1  0.62061246  0.14977350  0.67572689  1
  H+  H314  1  0.38716279  0.56421956  0.59620723  1
  H+  H315  1  0.68537536  0.59927560  0.60233311  1
  H+  H316  1  0.27786780  0.88906160  0.00168468  1
  H+  H317  1  0.61922787  0.55734200  0.25377485  1
  H+  H318  1  0.18327707  0.07376748  0.60372444  1
  H+  H319  1  0.12841777  0.48413792  0.34320057  1
  H+  H320  1  0.67844313  0.88778181  0.33028417  1
  H+  H321  1  0.41762506  0.83243796  0.56088587  1
  H+  H322  1  0.41935978  0.56596889  0.20884628  1
  H+  H323  1  0.83269798  0.41581143  0.76630031  1
  H+  H324  1  0.41741889  0.83789294  0.93098459  1
  H+  H325  1  0.85877447  0.82209461  0.57349258  1
  H+  H326  1  0.67368538  0.60463637  0.91569650  1
  H+  H327  1  0.07400873  0.66021393  0.43333949  1
  H+  H328  1  0.91260036  0.55033929  0.24010763  1
  H+  H329  1  0.84534683  0.42304303  0.40989143  1
  H+  H330  1  0.32031419  0.88142793  0.39123647  1
  H+  H331  1  0.88148201  0.35494978  0.33526456  1
  H+  H332  1  0.19620843  0.06631419  0.23850923  1
  H+  H333  1  0.41863215  0.08166283  0.93945145  1
  H+  H334  1  0.91653506  0.33370964  0.93484653  1
  H+  H335  1  0.11603143  0.63966597  0.82023861  1
  H+  H336  1  0.88511748  0.27430612  0.66335188  1
  H+  H337  1  0.39326649  0.33834879  0.90774346  1
  H+  H338  1  0.05863049  0.19397485  0.74671359  1
  H+  H339  1  0.84767932  0.67998988  0.76155591  1
  H+  H340  1  0.94904706  0.33995381  0.24737956  1
  H+  H341  1  0.66634551  0.50501262  0.09186128  1
  H+  H342  1  0.41727908  0.33514996  0.56828801  1
  H+  H343  1  0.91552723  0.58542900  0.92251096  1
  H+  H344  1  0.34040426  0.67055772  0.10795060  1
  H+  H345  1  0.39797914  0.07448635  0.18004496  1
  H+  H346  1  0.92028385  0.84668397  0.92234416  1
  H+  H347  1  0.31890954  0.39996336  0.73318636  1
  H+  H348  1  0.61262273  0.16150920  0.07554952  1
  H+  H349  1  0.67268932  0.32359409  0.90711868  1
  H+  H350  1  0.42387199  0.82813677  0.24393919  1
  H+  H351  1  0.77034247  0.13250408  0.82901878  1
  H+  H352  1  0.36444720  0.32844641  0.23858986  1
  H+  H353  1  0.62191821  0.52063979  0.82533049  1
  H+  H354  1  0.63989261  0.62274063  0.34410142  1
  H+  H355  1  0.23166679  0.35682653  0.98886445  1
  H+  H356  1  0.15906546  0.32819814  0.56736144  1
  H+  H357  1  0.91138327  0.08716625  0.26649549  1
  H+  H358  1  0.43044511  0.09990158  0.61551721  1
  H+  H359  1  0.85351580  0.68411238  0.06924685  1
  H+  H360  1  0.25907602  0.03956384  0.20428244  1
  H+  H361  1  0.17249176  0.58494788  0.27192234  1
  H+  H362  1  0.68698657  0.82960884  0.23702639  1
  H+  H363  1  0.92747182  0.82508770  0.21272747  1
  H+  H364  1  0.61756017  0.85945653  0.50783088  1
  H+  H365  1  0.92998533  0.13854920  0.94525207  1
  H+  H366  1  0.33761971  0.40539459  0.05646088  1
  H+  H367  1  0.32326898  0.67662849  0.76284441  1
  H+  H368  1  0.61903857  0.22585650  0.50521707  1
  H+  H369  1  0.31055164  0.17259297  0.03974020  1
  H+  H370  1  0.72756037  0.36973589  0.66392878  1
  H+  H371  1  0.16684211  0.81566861  0.56552950  1
  H+  H372  1  0.83354902  0.92562366  0.05847097  1
  H+  H373  1  0.50658870  0.39592242  0.83335985  1
  H+  H374  1  0.86640788  0.82310482  0.29620917  1
  H+  H375  1  0.82911285  0.16327925  0.73416255  1
  H+  H376  1  0.08578158  0.91737861  0.77391778  1
  H+  H377  1  0.83691945  0.18634557  0.10454725  1
  H+  H378  1  0.57397374  0.91446135  0.76189350  1
  H+  H379  1  0.08715707  0.92126565  0.05404700  1
  H+  H380  1  0.46498799  0.60648120  0.51093013  1
  H+  H381  1  0.85850328  0.23383284  0.00744126  1
  H+  H382  1  0.72480227  0.17476979  0.14805493  1
  H+  H383  1  0.55760017  0.11904679  0.41960710  1
  O2-  O384  1  0.07383854  0.16608499  0.14300965  1
  O2-  O385  1  0.08067747  0.16009542  0.47895806  1
  O2-  O386  1  0.06691508  0.18707550  0.81768226  1
  O2-  O387  1  0.10645591  0.44628816  0.14194603  1
  O2-  O388  1  0.08748512  0.41502882  0.47639435  1
  O2-  O389  1  0.07768927  0.41987237  0.81254181  1
  O2-  O390  1  0.02022003  0.67453281  0.13290238  1
  O2-  O391  1  0.06594079  0.65454077  0.47847971  1
  O2-  O392  1  0.08759265  0.67099174  0.80318327  1
  O2-  O393  1  0.09566026  0.91514786  0.13430430  1
  O2-  O394  1  0.04326644  0.91185628  0.48385099  1
  O2-  O395  1  0.08046992  0.91349394  0.81842310  1
  O2-  O396  1  0.31264226  0.18852299  0.12748093  1
  O2-  O397  1  0.33899611  0.17259532  0.48460237  1
  O2-  O398  1  0.33472030  0.17870771  0.82191418  1
  O2-  O399  1  0.31476368  0.40983440  0.12804900  1
  O2-  O400  1  0.32701502  0.40930292  0.47936314  1
  O2-  O401  1  0.32353998  0.41173071  0.80722621  1
  O2-  O402  1  0.33730515  0.66213616  0.15473044  1
  O2-  O403  1  0.32662059  0.65899030  0.48468346  1
  O2-  O404  1  0.32672086  0.67623094  0.80792028  1
  O2-  O405  1  0.32094401  0.88783108  0.14795545  1
  O2-  O406  1  0.33014703  0.88801317  0.46774731  1
  O2-  O407  1  0.33596209  0.92111849  0.81763062  1
  O2-  O408  1  0.66681905  0.16817043  0.15188931  1
  O2-  O409  1  0.58369607  0.16297408  0.49507058  1
  O2-  O410  1  0.58467406  0.16103876  0.81951352  1
  O2-  O411  1  0.69777972  0.52551503  0.12996906  1
  O2-  O412  1  0.58374429  0.41671571  0.48601556  1
  O2-  O413  1  0.56614414  0.42837760  0.81673650  1
  O2-  O414  1  0.58605435  0.65905569  0.14460412  1
  O2-  O415  1  0.57084732  0.66644633  0.48463559  1
  O2-  O416  1  0.59233492  0.68883312  0.82378083  1
  O2-  O417  1  0.58747357  0.90752218  0.15776133  1
  O2-  O418  1  0.57650191  0.90551810  0.48010503  1
  O2-  O419  1  0.58151951  0.91104144  0.80644944  1
  O2-  O420  1  0.83424124  0.18234595  0.14978971  1
  O2-  O421  1  0.83126652  0.15134549  0.48682633  1
  O2-  O422  1  0.83112047  0.16172518  0.81384523  1
  O2-  O423  1  0.85700965  0.37015532  0.13883487  1
  O2-  O424  1  0.83920756  0.41108318  0.48299543  1
  O2-  O425  1  0.83347708  0.41717310  0.81165444  1
  O2-  O426  1  0.86371468  0.68410492  0.11441620  1
  O2-  O427  1  0.87533229  0.66256362  0.48714195  1
  O2-  O428  1  0.84796293  0.67607860  0.80713091  1
  O2-  O429  1  0.83402933  0.91985512  0.13710514  1
  O2-  O430  1  0.80953108  0.87980721  0.51194144  1
  O2-  O431  1  0.83385144  0.90714580  0.79864375  1
  O2-  O432  1  0.21307307  0.05438633  0.19748466  1
  O2-  O433  1  0.16871670  0.08479215  0.52818256  1
  O2-  O434  1  0.13329453  0.09343576  0.73800651  1
  O2-  O435  1  0.15619241  0.32715594  0.18390932  1
  O2-  O436  1  0.15943864  0.32752147  0.52143190  1
  O2-  O437  1  0.16603740  0.34731564  0.85641602  1
  O2-  O438  1  0.17689025  0.60208141  0.20362515  1
  O2-  O439  1  0.15437995  0.57667609  0.51866371  1
  O2-  O440  1  0.15868608  0.58093693  0.84694755  1
  O2-  O441  1  0.15469593  0.81371781  0.18188717  1
  O2-  O442  1  0.16354561  0.80807691  0.52053236  1
  O2-  O443  1  0.18343186  0.85900089  0.85011179  1
  O2-  O444  1  0.35059241  0.02865573  0.20293111  1
  O2-  O445  1  0.42987750  0.10206826  0.53615812  1
  O2-  O446  1  0.41455562  0.08329375  0.86239812  1
  O2-  O447  1  0.31630575  0.30442466  0.20926297  1
  O2-  O448  1  0.42033534  0.33818961  0.52253968  1
  O2-  O449  1  0.40325770  0.33713424  0.86373554  1
  O2-  O450  1  0.41379104  0.57577403  0.16607635  1
  O2-  O451  1  0.40356988  0.57315628  0.52381013  1
  O2-  O452  1  0.40559331  0.58591359  0.81989222  1
  O2-  O453  1  0.41850476  0.82234014  0.19942198  1
  O2-  O454  1  0.41867285  0.82570948  0.51582977  1
  O2-  O455  1  0.42091759  0.84008043  0.85107328  1
  O2-  O456  1  0.59725408  0.03655909  0.22417489  1
  O2-  O457  1  0.66617723  0.07481565  0.52298398  1
  O2-  O458  1  0.66624114  0.08093209  0.85387818  1
  O2-  O459  1  0.70533050  0.31760924  0.19787445  1
  O2-  O460  1  0.66848909  0.32938994  0.52698178  1
  O2-  O461  1  0.66893842  0.31850000  0.86248336  1
  O2-  O462  1  0.57987649  0.52899287  0.21893137  1
  O2-  O463  1  0.71234404  0.63625073  0.52733498  1
  O2-  O464  1  0.66444645  0.58813548  0.82590893  1
  O2-  O465  1  0.67712825  0.82174112  0.19262154  1
  O2-  O466  1  0.64343524  0.82476317  0.52953593  1
  O2-  O467  1  0.68164609  0.85123256  0.83693939  1
  O2-  O468  1  0.90256835  0.08098625  0.18261541  1
  O2-  O469  1  0.91554451  0.06574193  0.52668618  1
  O2-  O470  1  0.90262169  0.06063239  0.85451534  1
  O2-  O471  1  0.96275705  0.34333505  0.20283248  1
  O2-  O472  1  0.91760356  0.31871514  0.52316773  1
  O2-  O473  1  0.91491065  0.33322582  0.85467725  1
  O2-  O474  1  0.90509807  0.53747971  0.19542046  1
  O2-  O475  1  0.90663356  0.60835424  0.51429380  1
  O2-  O476  1  0.92259794  0.58394740  0.84622250  1
  O2-  O477  1  0.92578093  0.83564735  0.16933146  1
  O2-  O478  1  0.81489175  0.80444927  0.53242117  1
  O2-  O479  1  0.92436403  0.84551094  0.84701182  1
  O2-  O480  1  0.16981630  0.08138961  0.31017430  1
  O2-  O481  1  0.19829590  0.06155994  0.64489732  1
  O2-  O482  1  0.14424697  0.08628527  0.96816153  1
  O2-  O483  1  0.16653935  0.33654140  0.31518754  1
  O2-  O484  1  0.15580305  0.33288787  0.64321579  1
  O2-  O485  1  0.17018675  0.33213975  0.97833588  1
  O2-  O486  1  0.17005865  0.57709097  0.31900664  1
  O2-  O487  1  0.15738478  0.58081157  0.64389509  1
  O2-  O488  1  0.15386813  0.57099931  0.96324535  1
  O2-  O489  1  0.16670872  0.82721857  0.30586983  1
  O2-  O490  1  0.16985191  0.82585533  0.64418747  1
  O2-  O491  1  0.19555031  0.86179285  0.96674994  1
  O2-  O492  1  0.39627827  0.05857941  0.32258136  1
  O2-  O493  1  0.42780390  0.09004517  0.66010848  1
  O2-  O494  1  0.41585817  0.08148865  0.98526211  1
  O2-  O495  1  0.44533078  0.39634929  0.29390774  1
  O2-  O496  1  0.41615600  0.33135525  0.64492918  1
  O2-  O497  1  0.38863110  0.36542629  0.99233156  1
  O2-  O498  1  0.38821816  0.61225752  0.33533201  1
  O2-  O499  1  0.37524713  0.55893367  0.64171311  1
  O2-  O500  1  0.42326327  0.59305169  0.98711692  1
  O2-  O501  1  0.42772527  0.81821074  0.33303818  1
  O2-  O502  1  0.40617192  0.83730852  0.63898715  1
  O2-  O503  1  0.42407657  0.84122692  0.97626545  1
  O2-  O504  1  0.65201347  0.03055577  0.34603532  1
  O2-  O505  1  0.66591317  0.09224696  0.64517728  1
  O2-  O506  1  0.66640786  0.07782974  0.97672104  1
  O2-  O507  1  0.71814811  0.41242547  0.30167558  1
  O2-  O508  1  0.66624223  0.33974337  0.64991437  1
  O2-  O509  1  0.66864036  0.32560700  0.99223217  1
  O2-  O510  1  0.66929826  0.59216134  0.32946043  1
  O2-  O511  1  0.67771309  0.58750713  0.64705940  1
  O2-  O512  1  0.67267590  0.60059815  0.96008489  1
  O2-  O513  1  0.69869041  0.84753189  0.32173018  1
  O2-  O514  1  0.68177943  0.83204494  0.64305071  1
  O2-  O515  1  0.66130866  0.84030788  0.97920903  1
  O2-  O516  1  0.91271866  0.08778298  0.31145839  1
  O2-  O517  1  0.91323818  0.08352028  0.64775550  1
  O2-  O518  1  0.92425830  0.10518939  0.98172012  1
  O2-  O519  1  0.90635387  0.32058463  0.31901491  1
  O2-  O520  1  0.91421091  0.33380601  0.64664583  1
  O2-  O521  1  0.91464847  0.33220811  0.98019761  1
  O2-  O522  1  0.92960001  0.57975483  0.31433200  1
  O2-  O523  1  0.91411651  0.58747320  0.64196463  1
  O2-  O524  1  0.91044988  0.59042230  0.96749067  1
  O2-  O525  1  0.91053152  0.81990605  0.31976212  1
  O2-  O526  1  0.91048888  0.83162001  0.62028037  1
  O2-  O527  1  0.91604015  0.84109024  0.96808217  1
  O2-  O528  1  0.08013810  0.16778197  0.01650340  1
  O2-  O529  1  0.08840813  0.17261360  0.35365198  1
  O2-  O530  1  0.06521126  0.18958908  0.70108568  1
  O2-  O531  1  0.07886209  0.40802996  0.01864543  1
  O2-  O532  1  0.10119956  0.42295273  0.36136113  1
  O2-  O533  1  0.07809002  0.41752147  0.68779760  1
  O2-  O534  1  0.07399209  0.64656089  0.01616657  1
  O2-  O535  1  0.08865500  0.66837745  0.35550258  1
  O2-  O536  1  0.08127534  0.66298619  0.68535110  1
  O2-  O537  1  0.08449310  0.92436499  0.00914817  1
  O2-  O538  1  0.08909924  0.91773414  0.34959518  1
  O2-  O539  1  0.08507371  0.90270385  0.68616401  1
  O2-  O540  1  0.31313908  0.16068563  -0.00348773  1
  O2-  O541  1  0.33451276  0.15795541  0.35953889  1
  O2-  O542  1  0.34961973  0.17222423  0.69594617  1
  O2-  O543  1  0.34577400  0.41338439  0.01047420  1
  O2-  O544  1  0.33429269  0.43384349  0.35803385  1
  O2-  O545  1  0.31738266  0.39514938  0.68720086  1
  O2-  O546  1  0.35043695  0.67786469  0.03956490  1
  O2-  O547  1  0.34255339  0.65525421  0.36021530  1
  O2-  O548  1  0.32036941  0.67388065  0.68053957  1
  O2-  O549  1  0.33603812  0.91114890  0.02468520  1
  O2-  O550  1  0.32784461  0.88923066  0.34621100  1
  O2-  O551  1  0.33194035  0.91691570  0.68564887  1
  O2-  O552  1  0.59547731  0.16307928  0.03282771  1
  O2-  O553  1  0.54285332  0.07931272  0.38490650  1
  O2-  O554  1  0.59175234  0.17882271  0.69506605  1
  O2-  O555  1  0.56504491  0.43811467  -0.00367745  1
  O2-  O556  1  0.58771782  0.42609931  0.36174732  1
  O2-  O557  1  0.57882622  0.41687157  0.68954905  1
  O2-  O558  1  0.59586290  0.67882583  0.01962010  1
  O2-  O559  1  0.58289806  0.68562017  0.36270539  1
  O2-  O560  1  0.61010330  0.68334002  0.69999850  1
  O2-  O561  1  0.58115846  0.91377447  0.00594541  1
  O2-  O562  1  0.57374583  0.88934357  0.41332058  1
  O2-  O563  1  0.55943091  0.92396496  0.68247245  1
  O2-  O564  1  0.82600459  0.17385494  0.02536167  1
  O2-  O565  1  0.81755732  0.14841843  0.36111028  1
  O2-  O566  1  0.83042337  0.16492971  0.68873656  1
  O2-  O567  1  0.84467269  0.43465523  0.01644980  1
  O2-  O568  1  0.85152103  0.42895148  0.36405820  1
  O2-  O569  1  0.83297028  0.42055788  0.68617879  1
  O2-  O570  1  0.83256479  0.67410020  -0.00368278  1
  O2-  O571  1  0.83860003  0.65897308  0.36085515  1
  O2-  O572  1  0.84681559  0.68307806  0.68393562  1
  O2-  O573  1  0.83158158  0.92686151  0.01290657  1
  O2-  O574  1  0.84216539  0.90033512  0.39934998  1
  O2-  O575  1  0.85381463  0.91730458  0.67915272  1
