# generated using pymatgen
data_H2O
_symmetry_space_group_name_H-M   'P 1'
_cell_length_a   17.99286804
_cell_length_b   17.98594833
_cell_length_c   21.99793148
_cell_angle_alpha   90.00288238
_cell_angle_beta   89.98571449
_cell_angle_gamma   119.97695852
_symmetry_Int_Tables_number   1
_chemical_formula_structural   H2O
_chemical_formula_sum   'H384 O192'
_cell_volume   6166.61714311
_cell_formula_units_Z   192
loop_
 _symmetry_equiv_pos_site_id
 _symmetry_equiv_pos_as_xyz
  1  'x, y, z'
loop_
 _atom_type_symbol
 _atom_type_oxidation_number
  H+  1.0
  O2-  -2.0
loop_
 _atom_site_type_symbol
 _atom_site_label
 _atom_site_symmetry_multiplicity
 _atom_site_fract_x
 _atom_site_fract_y
 _atom_site_fract_z
 _atom_site_occupancy
  H+  H0  1  0.20626877  0.36128619  0.15424790  1
  H+  H1  1  0.86770050  0.85607099  0.49574336  1
  H+  H2  1  0.86603026  0.87739900  0.67676957  1
  H+  H3  1  0.56265537  0.92366668  0.70311628  1
  H+  H4  1  0.02528763  0.14620567  0.33895255  1
  H+  H5  1  0.10916538  0.12458654  0.66928812  1
  H+  H6  1  0.89116645  0.85087668  0.32139923  1
  H+  H7  1  0.28232461  0.13399557  0.66998547  1
  H+  H8  1  0.87875327  0.51914870  0.66452384  1
  H+  H9  1  0.91668985  0.32542393  0.89090361  1
  H+  H10  1  0.88726212  0.17496815  0.50962949  1
  H+  H11  1  0.88231417  0.53188925  0.84961726  1
  H+  H12  1  0.28536144  0.14354585  1.01084070  1
  H+  H13  1  0.14136923  0.87070550  0.66156442  1
  H+  H14  1  0.60806881  0.13892293  0.00486355  1
  H+  H15  1  0.03368431  0.65248746  0.32734441  1
  H+  H16  1  0.41356304  0.08847954  0.89618268  1
  H+  H17  1  0.13244616  1.02129362  -0.01245090  1
  H+  H18  1  0.69438908  0.70437363  0.71681409  1
  H+  H19  1  0.25149999  0.16110479  0.47765472  1
  H+  H20  1  0.38027737  0.27995333  0.32409262  1
  H+  H21  1  0.62088840  0.10451951  0.51244299  1
  H+  H22  1  0.39405860  0.87386515  -0.01135960  1
  H+  H23  1  0.88309582  0.84255423  0.16963450  1
  H+  H24  1  0.69142584  0.84999345  0.33566408  1
  H+  H25  1  0.60064379  0.96913644  0.16346738  1
  H+  H26  1  0.26405675  0.87322001  0.48970490  1
  H+  H27  1  0.11534643  0.35714473  0.14673969  1
  H+  H28  1  0.57424131  0.92332997  0.44170174  1
  H+  H29  1  0.07135282  0.15963579  0.42933208  1
  H+  H30  1  0.62405615  0.02114381  0.69127798  1
  H+  H31  1  0.89191660  0.22796081  0.70794010  1
  H+  H32  1  0.95483477  0.98571252  -0.07109573  1
  H+  H33  1  0.66977659  0.07294807  0.83891487  1
  H+  H34  1  0.14808296  0.62307668  0.83224374  1
  H+  H35  1  1.02353145  0.13692319  0.99039950  1
  H+  H36  1  0.39105044  -0.00670321  0.50549601  1
  H+  H37  1  0.14037291  0.12106880  0.16158716  1
  H+  H38  1  0.71232076  0.60750278  -0.00242710  1
  H+  H39  1  0.37205041  0.47857162  0.82169627  1
  H+  H40  1  0.24716539  0.37911208  0.65884309  1
  H+  H41  1  0.74401369  0.37336475  1.01867165  1
  H+  H42  1  0.39080170  0.16222141  0.51517103  1
  H+  H43  1  0.75510323  0.38958225  0.82845458  1
  H+  H44  1  0.87910490  0.77316533  0.49822702  1
  H+  H45  1  1.01339252  0.64424865  0.68691123  1
  H+  H46  1  0.12498988  0.86352494  0.50872439  1
  H+  H47  1  0.60529645  0.44661840  0.66437535  1
  H+  H48  1  0.87028023  0.83799508  0.99768181  1
  H+  H49  1  0.60258389  0.76126223  0.33658919  1
  H+  H50  1  0.60258324  0.72176222  0.01187685  1
  H+  H51  1  0.27944471  0.63751528  0.50963836  1
  H+  H52  1  0.22147263  0.36562706  0.34342169  1
  H+  H53  1  0.86262289  0.51102937  0.47422729  1
  H+  H54  1  0.03881889  0.13417713  0.82269068  1
  H+  H55  1  0.38292845  0.48133120  0.67336973  1
  H+  H56  1  0.59274141  0.88904229  0.34323966  1
  H+  H57  1  0.72147698  0.12035699  0.32128164  1
  H+  H58  1  0.14260155  0.40169245  0.49940313  1
  H+  H59  1  0.59855786  0.21980478  0.15952912  1
  H+  H60  1  1.01852854  0.89389434  0.48698308  1
  H+  H61  1  0.71641944  0.11496855  0.97865007  1
  H+  H62  1  0.88620222  0.13781877  -0.02506684  1
  H+  H63  1  0.12214530  0.85316411  0.16829331  1
  H+  H64  1  0.86874762  0.70804594  0.15519608  1
  H+  H65  1  0.85799993  0.14732058  0.33526390  1
  H+  H66  1  0.12811796  0.60314529  0.17343652  1
  H+  H67  1  0.20468992  0.71085557  0.12464500  1
  H+  H68  1  0.38816796  0.61310145  0.82950113  1
  H+  H69  1  0.46587195  0.86004924  0.50884428  1
  H+  H70  1  0.36033979  0.99229034  0.34099218  1
  H+  H71  1  0.36473316  0.60384341  0.16348435  1
  H+  H72  1  0.91633405  0.83878036  0.58555252  1
  H+  H73  1  0.56417750  0.66621897  0.40928843  1
  H+  H74  1  -0.00795576  0.10442213  0.68071052  1
  H+  H75  1  0.89703444  0.07464450  0.81356386  1
  H+  H76  1  0.97417740  0.37664698  0.35559456  1
  H+  H77  1  -0.03990302  0.59486079  0.16985566  1
  H+  H78  1  0.38612262  0.60970257  0.00531544  1
  H+  H79  1  0.71398371  0.85190996  0.00046063  1
  H+  H80  1  0.47459802  0.60970874  0.83470547  1
  H+  H81  1  0.84099108  0.38663976  0.83307036  1
  H+  H82  1  0.61926477  0.75231424  0.49312276  1
  H+  H83  1  0.88254364  0.34845552  0.42637462  1
  H+  H84  1  0.60884783  0.61923517  0.33566591  1
  H+  H85  1  0.13992387  0.03014341  0.49995376  1
  H+  H86  1  0.61494374  0.34964143  0.16704228  1
  H+  H87  1  0.15959044  0.52220805  0.67749695  1
  H+  H88  1  0.37957428  0.74043041  0.82229031  1
  H+  H89  1  0.85247747  0.39106255  0.47773382  1
  H+  H90  1  0.13980930  0.57582116  -0.01689592  1
  H+  H91  1  -0.00302855  0.09893861  0.16997960  1
  H+  H92  1  0.83297547  0.19020125  0.04166310  1
  H+  H93  1  0.80580476  0.12741581  0.86504000  1
  H+  H94  1  0.37840003  0.27080352  0.16975769  1
  H+  H95  1  0.49544450  0.91721638  0.31769518  1
  H+  H96  1  0.57377036  0.67225170  0.10623267  1
  H+  H97  1  0.61289001  0.25205834  0.81971606  1
  H+  H98  1  0.50758282  0.38244948  0.83836137  1
  H+  H99  1  0.91038703  0.63911691  0.30881425  1
  H+  H100  1  0.92760956  0.34873096  0.53011875  1
  H+  H101  1  0.50914294  0.63833248  0.16258670  1
  H+  H102  1  0.58589083  0.14599867  0.71785800  1
  H+  H103  1  0.64512723  0.08941172  0.57944325  1
  H+  H104  1  0.62302646  0.71957908  0.83660211  1
  H+  H105  1  0.51873918  0.11543854  0.48911982  1
  H+  H106  1  1.02759889  0.88428913  0.33537805  1
  H+  H107  1  0.51449827  0.63089257  1.01726566  1
  H+  H108  1  0.05647458  0.40085192  0.51482011  1
  H+  H109  1  0.16365841  0.83317966  0.93238872  1
  H+  H110  1  0.37017555  0.22154813  0.66648378  1
  H+  H111  1  0.20788259  0.59420856  0.17401916  1
  H+  H112  1  0.08048892  0.91696931  0.05953939  1
  H+  H113  1  0.60246814  0.48401363  0.34119899  1
  H+  H114  1  0.14993279  0.52617128  0.51985863  1
  H+  H115  1  0.84995151  0.70948350  0.00570752  1
  H+  H116  1  0.36523946  0.22884672  0.82516488  1
  H+  H117  1  0.11480592  -0.01851438  0.15169165  1
  H+  H118  1  0.14386821  0.78524376  0.32288159  1
  H+  H119  1  0.37985743  0.76679746  0.50998960  1
  H+  H120  1  0.63754971  0.06872495  0.93164146  1
  H+  H121  1  0.48959508  0.62027096  0.66462584  1
  H+  H122  1  0.87524371  0.47775205  0.02533992  1
  H+  H123  1  0.38754920  0.52038378  0.00389525  1
  H+  H124  1  0.13821316  0.61648208  0.32376911  1
  H+  H125  1  0.63491502  0.59265507  0.65712418  1
  H+  H126  1  0.01694206  0.87957993  0.00214526  1
  H+  H127  1  0.70092816  0.62876708  0.34034362  1
  H+  H128  1  0.71565749  0.86017875  0.65018940  1
  H+  H129  1  0.34716657  0.26157135  0.47656535  1
  H+  H130  1  0.84751106  0.91496779  0.39925398  1
  H+  H131  1  0.85764677  0.18152482  0.14458227  1
  H+  H132  1  0.51364929  0.38470239  0.16436412  1
  H+  H133  1  0.11934886  -0.01954132  0.82496417  1
  H+  H134  1  0.47412841  0.35091957  -0.00561404  1
  H+  H135  1  0.38942473  0.35794646  0.65473097  1
  H+  H136  1  0.14881131  0.11497350  0.83496514  1
  H+  H137  1  0.48661998  0.62236502  0.50542026  1
  H+  H138  1  0.89808090  1.03946149  0.52751199  1
  H+  H139  1  0.60917118  0.64171800  0.48445011  1
  H+  H140  1  0.61162090  0.97790139  0.00953994  1
  H+  H141  1  0.35028530  0.86487437  0.48974862  1
  H+  H142  1  1.01260634  0.64592620  1.01289498  1
  H+  H143  1  0.89545071  0.01168312  0.55423172  1
  H+  H144  1  0.34917456  0.38225046  0.15955873  1
  H+  H145  1  0.11122752  0.48100452  0.34783180  1
  H+  H146  1  0.60525667  0.47385977  1.01159974  1
  H+  H147  1  0.99967745  0.63031787  0.51886986  1
  H+  H148  1  0.60216694  0.37984983  0.49174162  1
  H+  H149  1  0.35954229  -0.02095938  0.82844149  1
  H+  H150  1  0.61665509  0.23126568  0.01297053  1
  H+  H151  1  0.39269668  0.10475569  0.65865270  1
  H+  H152  1  0.77153962  0.38084538  0.67360093  1
  H+  H153  1  0.47158956  0.36215930  0.49591510  1
  H+  H154  1  0.59341203  0.66352716  0.77549365  1
  H+  H155  1  0.61422912  0.88779443  0.16471222  1
  H+  H156  1  0.22783209  0.86437909  0.84195209  1
  H+  H157  1  0.63211718  0.34352246  0.65569944  1
  H+  H158  1  0.40168576  0.62170009  0.66498262  1
  H+  H159  1  0.23186317  0.87560596  0.32100545  1
  H+  H160  1  0.14599337  0.02801068  0.65809030  1
  H+  H161  1  0.64357168  0.73128805  0.67240217  1
  H+  H162  1  0.71029449  0.11578299  0.16680910  1
  H+  H163  1  0.76355947  0.87115029  0.17296951  1
  H+  H164  1  0.91968933  0.33328107  0.81437793  1
  H+  H165  1  0.12423322  0.22856258  0.82242585  1
  H+  H166  1  0.39309903  0.14967323  0.48306355  1
  H+  H167  1  0.87897667  0.65656220  0.83923407  1
  H+  H168  1  0.88659698  1.01068522  0.68799185  1
  H+  H169  1  0.62440604  0.61205696  1.00182889  1
  H+  H170  1  0.64779724  0.64541698  0.18089996  1
  H+  H171  1  0.11138578  0.72473363  0.83536756  1
  H+  H172  1  0.85982319  0.94484295  0.02596918  1
  H+  H173  1  0.85659994  0.49843545  0.50749448  1
  H+  H174  1  0.87784157  0.24378622  0.97972335  1
  H+  H175  1  0.58663344  0.11533751  0.81774051  1
  H+  H176  1  0.08953282  0.47005077  0.14965691  1
  H+  H177  1  0.36674206  0.89425255  0.82987744  1
  H+  H178  1  0.70517963  0.34721879  0.50456928  1
  H+  H179  1  0.88242603  0.61003335  1.00266427  1
  H+  H180  1  0.14609169  0.61284588  0.52209782  1
  H+  H181  1  0.61990770  0.60080183  0.84746270  1
  H+  H182  1  0.13268340  0.86544681  0.99078026  1
  H+  H183  1  0.15314143  0.28395385  0.51351377  1
  H+  H184  1  0.80617544  0.22432617  0.47727067  1
  H+  H185  1  0.96197552  0.28784831  0.55209860  1
  H+  H186  1  0.28341467  0.37523605  0.00109468  1
  H+  H187  1  0.14241318  0.74316600  0.48701753  1
  H+  H188  1  0.02645446  0.89523170  0.82447547  1
  H+  H189  1  0.13883837  0.25875528  -0.01295963  1
  H+  H190  1  0.86992901  0.57919154  0.15153831  1
  H+  H191  1  0.14232704  0.74297987  0.15389589  1
  H+  H192  1  0.05538687  0.41021038  0.85317049  1
  H+  H193  1  0.50590960  0.12582504  0.81137875  1
  H+  H194  1  0.59733431  0.38562465  0.82439905  1
  H+  H195  1  0.28279403  0.65348795  0.00088995  1
  H+  H196  1  0.81604141  0.21417057  0.84056526  1
  H+  H197  1  0.60228397  0.97093749  0.50588269  1
  H+  H198  1  0.02311200  0.40524666  -0.01976478  1
  H+  H199  1  0.73816842  0.85838237  0.48216338  1
  H+  H200  1  0.36713930  0.65462361  0.31000632  1
  H+  H201  1  0.74721117  0.83203489  0.85448643  1
  H+  H202  1  0.47011144  0.12139113  0.32590832  1
  H+  H203  1  0.89345516  -0.05982845  0.83846949  1
  H+  H204  1  0.60789836  0.39657874  0.33568239  1
  H+  H205  1  0.36946266  0.64304740  0.50040133  1
  H+  H206  1  0.64416624  0.51920289  0.50057823  1
  H+  H207  1  0.37405592  0.73639902  1.00595630  1
  H+  H208  1  0.35840232  -0.03432517  0.67481065  1
  H+  H209  1  0.88297368  0.28768965  0.34635360  1
  H+  H210  1  0.34300277  0.72753073  0.16003084  1
  H+  H211  1  0.00941663  0.09902212  0.48194616  1
  H+  H212  1  0.97804557  -0.01983042  0.95507574  1
  H+  H213  1  0.38559646  0.85562175  0.66553236  1
  H+  H214  1  0.60718978  0.14199167  0.33261864  1
  H+  H215  1  0.38433712  0.25553381  0.99865124  1
  H+  H216  1  0.62545456  0.77274971  0.17929349  1
  H+  H217  1  0.13052595  0.36144113  0.34253970  1
  H+  H218  1  0.99022004  0.29677408  0.93278699  1
  H+  H219  1  0.83336111  0.65820504  0.40539614  1
  H+  H220  1  0.38205414  0.11449158  0.83546852  1
  H+  H221  1  0.28794940  0.66814889  0.30531682  1
  H+  H222  1  0.15229044  0.36817071  0.83882916  1
  H+  H223  1  0.36582122  -0.01252420  0.99397559  1
  H+  H224  1  0.87979608  0.65344739  0.50053012  1
  H+  H225  1  0.10980117  0.12751031  0.99371354  1
  H+  H226  1  0.02699960  0.88967997  0.15221830  1
  H+  H227  1  0.38322296  0.11378087  0.17389379  1
  H+  H228  1  0.03234218  0.90246872  0.67161492  1
  H+  H229  1  0.71521797  0.58290685  0.66095864  1
  H+  H230  1  0.37321195  0.52574363  0.32379572  1
  H+  H231  1  0.12080488  0.89516218  0.33717942  1
  H+  H232  1  0.79178592  0.59368590  0.34988930  1
  H+  H233  1  0.48232792  0.87116617  0.99460311  1
  H+  H234  1  0.86063796  0.40424847  0.07235984  1
  H+  H235  1  0.71805921  0.37096361  0.31352355  1
  H+  H236  1  0.88598495  0.03468635  0.32594300  1
  H+  H237  1  0.40845146  0.08874226  0.26682458  1
  H+  H238  1  0.15626634  0.37563211  0.66228788  1
  H+  H239  1  0.61962925  0.10948210  0.17145953  1
  H+  H240  1  0.83782652  0.25588991  0.13432750  1
  H+  H241  1  0.11599260  0.23477107  0.34730881  1
  H+  H242  1  0.63048178  0.86111020  0.99428773  1
  H+  H243  1  0.28544673  0.38682391  0.82111035  1
  H+  H244  1  0.83442533  0.70488071  0.68035244  1
  H+  H245  1  0.26683108  0.13854354  0.32926340  1
  H+  H246  1  0.50160048  0.63635583  0.34508615  1
  H+  H247  1  0.12890057  0.11242555  0.50460630  1
  H+  H248  1  0.40624333  0.76022965  0.24335974  1
  H+  H249  1  0.82004650  0.65116200  0.06671817  1
  H+  H250  1  0.40017479  0.91606468  0.31421309  1
  H+  H251  1  0.12438073  0.45821645  -0.00928653  1
  H+  H252  1  0.37261669  0.97121337  0.15680574  1
  H+  H253  1  0.34375078  0.17094315  0.09295847  1
  H+  H254  1  0.63090282  0.28075104  0.32404511  1
  H+  H255  1  0.77858154  0.62877074  0.49686768  1
  H+  H256  1  0.86324637  0.40736346  0.32955181  1
  H+  H257  1  0.93932503  0.96700750  0.36899128  1
  H+  H258  1  0.57913461  0.41569214  0.43083538  1
  H+  H259  1  0.24317013  0.63158935  0.82823986  1
  H+  H260  1  0.47705470  0.82939843  0.19159130  1
  H+  H261  1  0.13876127  0.86442737  0.83942311  1
  H+  H262  1  0.85117469  0.62519295  0.68184106  1
  H+  H263  1  0.35957858  0.39709131  0.34238136  1
  H+  H264  1  0.88886341  0.35970598  0.68398996  1
  H+  H265  1  0.67386030  0.57105937  0.56245746  1
  H+  H266  1  0.15001988  0.35101205  0.99630319  1
  H+  H267  1  0.46932465  0.10951119  0.17739316  1
  H+  H268  1  0.61814590  0.39225853  0.01752295  1
  H+  H269  1  0.11084905  0.74518669  0.00292501  1
  H+  H270  1  0.47092190  0.11970822  -0.01158990  1
  H+  H271  1  0.23632351  0.11291290  0.83499849  1
  H+  H272  1  0.28056813  0.89522757  -0.00016197  1
  H+  H273  1  0.74287726  0.12853059  0.49799122  1
  H+  H274  1  0.90495527  0.55035648  0.29791748  1
  H+  H275  1  0.36841127  0.51648392  0.16375175  1
  H+  H276  1  0.59663003  0.21295860  0.49065208  1
  H+  H277  1  0.13355324  0.11690514  0.32353942  1
  H+  H278  1  0.13935574  0.49752897  0.83435483  1
  H+  H279  1  0.27902608  0.13859013  0.15123846  1
  H+  H280  1  0.43329950  0.84727150  0.90393587  1
  H+  H281  1  0.38301504  0.12443772  0.99321260  1
  H+  H282  1  0.15049210  0.82704741  0.23009323  1
  H+  H283  1  0.95541870  0.38615896  0.13824416  1
  H+  H284  1  0.37897796  0.73008209  0.67143137  1
  H+  H285  1  0.62564254  0.85024894  0.50007887  1
  H+  H286  1  0.10548810  0.22947751  0.14390303  1
  H+  H287  1  0.98409917  0.19409611  0.50788497  1
  H+  H288  1  0.18630973  0.34654102  0.57281850  1
  H+  H289  1  0.97713494  0.61483865  0.84926123  1
  H+  H290  1  0.08727633  0.92471535  0.73348385  1
  H+  H291  1  0.81497407  0.88400542  0.08097214  1
  H+  H292  1  0.92315441  0.08607007  0.26542587  1
  H+  H293  1  0.64428237  0.25993567  0.65155823  1
  H+  H294  1  0.47682945  0.09474280  0.65467289  1
  H+  H295  1  0.35229378  0.41867934  0.73123301  1
  H+  H296  1  0.92310050  0.81907935  0.22511199  1
  H+  H297  1  0.32956947  0.41083515  0.09612940  1
  H+  H298  1  0.15459441  0.57038344  0.26828828  1
  H+  H299  1  0.57810115  0.16783158  0.39371757  1
  H+  H300  1  0.34010138  0.43352739  0.40331633  1
  H+  H301  1  0.92161885  0.58691358  0.94512514  1
  H+  H302  1  0.31135665  0.19143533  0.41130814  1
  H+  H303  1  0.37160176  0.37538515  0.00587448  1
  H+  H304  1  1.02576509  0.71944448  0.54468561  1
  H+  H305  1  0.88859848  0.78059207  0.83595249  1
  H+  H306  1  0.29199673  0.63545018  0.67762866  1
  H+  H307  1  0.88696812  0.76067293  0.32260420  1
  H+  H308  1  0.41094636  0.32216868  0.90667426  1
  H+  H309  1  0.88113601  0.45389988  0.18052053  1
  H+  H310  1  0.35832627  0.14129462  0.33797483  1
  H+  H311  1  0.19084923  0.61545996  0.92225443  1
  H+  H312  1  0.09070117  0.42804294  0.41060058  1
  H+  H313  1  0.81534558  0.16345081  0.39460890  1
  H+  H314  1  0.98349060  0.02601772  0.21461866  1
  H+  H315  1  0.19463687  0.70639177  0.45423504  1
  H+  H316  1  0.07934504  0.16233513  0.08791775  1
  H+  H317  1  0.16572576  0.09044664  0.22283493  1
  H+  H318  1  0.31886723  0.67863293  0.09446651  1
  H+  H319  1  0.58053235  0.91610935  0.06880309  1
  H+  H320  1  0.46910635  0.36867880  0.32550896  1
  H+  H321  1  0.17789175  0.32864521  0.89375585  1
  H+  H322  1  0.40451623  0.57846956  0.26112094  1
  H+  H323  1  0.77290260  0.63594841  0.16275530  1
  H+  H324  1  0.65232624  0.82877616  0.24027545  1
  H+  H325  1  0.83169646  0.45714274  0.36970173  1
  H+  H326  1  0.61395467  0.29492408  0.88144641  1
  H+  H327  1  0.84376314  0.88901523  0.74406682  1
  H+  H328  1  0.87622887  0.04600288  0.97195204  1
  H+  H329  1  0.38569127  0.35954746  0.84608063  1
  H+  H330  1  0.34081429  0.17170250  0.76293606  1
  H+  H331  1  0.08280774  0.92085148  0.43031813  1
  H+  H332  1  0.10330722  0.73174134  0.68199306  1
  H+  H333  1  0.06366991  0.43178036  0.08215776  1
  H+  H334  1  0.39116492  0.37990562  0.50004938  1
  H+  H335  1  0.09988963  0.41729518  0.74785283  1
  H+  H336  1  0.03351665  0.38726044  0.69370985  1
  H+  H337  1  0.65643370  0.32220392  0.56791954  1
  H+  H338  1  0.66289663  0.81541690  0.58971433  1
  H+  H339  1  0.41527217  0.83256629  0.60440901  1
  H+  H340  1  0.67466950  0.61783252  0.24115377  1
  H+  H341  1  0.90280374  0.82293833  0.93379371  1
  H+  H342  1  0.89740385  0.10996753  0.69631373  1
  H+  H343  1  0.65878092  0.08414576  0.26324646  1
  H+  H344  1  0.64922044  0.32179423  0.22314755  1
  H+  H345  1  0.61302937  -0.01233304  0.34229404  1
  H+  H346  1  0.42985621  0.59228494  0.56802306  1
  H+  H347  1  0.57428318  -0.01141363  0.84724670  1
  H+  H348  1  0.40893080  0.32472615  0.59233429  1
  H+  H349  1  0.86009846  0.95337463  0.16767107  1
  H+  H350  1  0.84000782  0.67320930  0.77864927  1
  H+  H351  1  0.13339813  0.02736312  0.32133770  1
  H+  H352  1  0.82195441  0.41859691  0.73658136  1
  H+  H353  1  0.56951739  0.15676919  0.10156251  1
  H+  H354  1  0.22560905  0.86150938  0.66089647  1
  H+  H355  1  0.92226453  0.59491572  0.61283283  1
  H+  H356  1  0.51795329  0.35911271  0.66207016  1
  H+  H357  1  0.18265882  0.58186375  0.61948061  1
  H+  H358  1  0.37685391  0.49470813  0.49826246  1
  H+  H359  1  0.83979440  0.16058531  0.76115854  1
  H+  H360  1  0.40223694  0.33071227  0.22976772  1
  H+  H361  1  0.36153061  0.92848058  0.09352274  1
  H+  H362  1  0.60944966  0.49735565  0.84883598  1
  H+  H363  1  0.92295239  0.08171589  0.88298798  1
  H+  H364  1  0.17009611  0.08266158  0.92952442  1
  H+  H365  1  0.09877309  0.68436030  0.06674633  1
  H+  H366  1  0.67652731  0.82205419  0.90283693  1
  H+  H367  1  0.07684100  0.66888891  0.77508055  1
  H+  H368  1  0.57456772  0.41570274  0.10741360  1
  H+  H369  1  0.42257359  0.05097088  0.56653969  1
  H+  H370  1  0.43250834  0.87370853  0.25428515  1
  H+  H371  1  0.17422585  0.08744876  0.59817178  1
  H+  H372  1  0.93469714  0.33521427  0.63242843  1
  H+  H373  1  0.09255999  0.67800800  0.38898372  1
  H+  H374  1  0.94013047  0.78935897  0.63315704  1
  H+  H375  1  0.33260144  0.91830847  0.39412841  1
  H+  H376  1  0.64442746  0.56945357  0.91290653  1
  H+  H377  1  0.15751226  0.83515450  0.57021792  1
  H+  H378  1  0.35237243  0.68153180  0.76212273  1
  H+  H379  1  0.08882645  0.15968106  0.73172955  1
  H+  H380  1  0.82601007  0.95014143  0.48372213  1
  H+  H381  1  0.32609394  0.90905242  0.73525475  1
  H+  H382  1  0.28815726  0.40211277  0.49749125  1
  H+  H383  1  0.69798019  0.35972106  0.95656335  1
  O2-  O384  1  0.08146437  0.16591919  0.13313757  1
  O2-  O385  1  0.06416033  0.15168031  0.47559513  1
  O2-  O386  1  0.09852218  0.16793772  0.80714836  1
  O2-  O387  1  0.05465648  0.41555754  0.12618186  1
  O2-  O388  1  0.10900486  0.43068177  0.48838124  1
  O2-  O389  1  0.10687429  0.43224067  0.82809708  1
  O2-  O390  1  0.14415012  0.69478976  0.12918848  1
  O2-  O391  1  0.13625148  0.69064912  0.46624412  1
  O2-  O392  1  0.07991452  0.66406013  0.82101571  1
  O2-  O393  1  0.08625654  0.92165463  0.13512947  1
  O2-  O394  1  0.08050782  0.92242409  0.47599277  1
  O2-  O395  1  0.08593381  0.91987349  0.80880952  1
  O2-  O396  1  0.34064813  0.17014323  0.14062657  1
  O2-  O397  1  0.29548214  0.21067705  0.45190963  1
  O2-  O398  1  0.33563306  0.16883164  0.80826701  1
  O2-  O399  1  0.32122232  0.41334371  0.14107556  1
  O2-  O400  1  0.34799241  0.43376065  0.48095436  1
  O2-  O401  1  0.34670433  0.41570470  0.80888481  1
  O2-  O402  1  0.30251240  0.67325824  0.13903829  1
  O2-  O403  1  0.33552574  0.67085163  0.48871378  1
  O2-  O404  1  0.34555925  0.68052151  0.80784665  1
  O2-  O405  1  0.36464342  0.91853381  0.13721707  1
  O2-  O406  1  0.31985384  0.89394702  0.46970120  1
  O2-  O407  1  0.32976193  0.91715634  0.81521310  1
  O2-  O408  1  0.56991324  0.15615460  0.14685656  1
  O2-  O409  1  0.57727144  0.15674908  0.47092438  1
  O2-  O410  1  0.56630293  0.15099535  0.79557479  1
  O2-  O411  1  0.57482806  0.41171991  0.15234901  1
  O2-  O412  1  0.57606588  0.41398790  0.47656919  1
  O2-  O413  1  0.56887193  0.42043406  0.82292039  1
  O2-  O414  1  0.57094577  0.67442469  0.15187228  1
  O2-  O415  1  0.57568693  0.66899420  0.47342531  1
  O2-  O416  1  0.58654386  0.65845129  0.82028391  1
  O2-  O417  1  0.57546034  0.90850269  0.14948705  1
  O2-  O418  1  0.57432105  0.91323513  0.48595807  1
  O2-  O419  1  0.51441271  0.88798624  0.83474814  1
  O2-  O420  1  0.81650059  0.19359332  0.12463324  1
  O2-  O421  1  0.79684593  0.16560425  0.47362722  1
  O2-  O422  1  0.78723379  0.15030031  0.83201596  1
  O2-  O423  1  0.87670452  0.39859091  0.19526486  1
  O2-  O424  1  0.85978247  0.34180739  0.46974653  1
  O2-  O425  1  0.81673313  0.42286824  0.81796433  1
  O2-  O426  1  0.82801416  0.64832954  0.14208184  1
  O2-  O427  1  0.83935180  0.66724682  0.47999795  1
  O2-  O428  1  0.85471500  0.69113098  0.82148736  1
  O2-  O429  1  0.82221426  0.89336513  0.15406111  1
  O2-  O430  1  0.80432680  0.89302541  0.46605533  1
  O2-  O431  1  0.86261652  0.87849283  0.82626214  1
  O2-  O432  1  0.16571178  0.08663751  0.17782024  1
  O2-  O433  1  0.16871953  0.09073205  0.51527077  1
  O2-  O434  1  0.17540043  0.08141563  0.85057591  1
  O2-  O435  1  0.14354263  0.32571261  0.16184518  1
  O2-  O436  1  0.18659375  0.34421366  0.52532242  1
  O2-  O437  1  0.17666121  0.33042409  0.84856744  1
  O2-  O438  1  0.14736231  0.56355492  0.18895847  1
  O2-  O439  1  0.17474337  0.58392825  0.54021550  1
  O2-  O440  1  0.18332704  0.59693222  0.84538519  1
  O2-  O441  1  0.12767122  0.80702550  0.18859025  1
  O2-  O442  1  0.14497130  0.82465181  0.52499463  1
  O2-  O443  1  0.16693486  0.83398186  0.85728297  1
  O2-  O444  1  0.40985050  0.08301909  0.19474771  1
  O2-  O445  1  0.43741948  0.04645245  0.52382722  1
  O2-  O446  1  0.41147359  0.08304624  0.85032986  1
  O2-  O447  1  0.40151785  0.33135154  0.18465803  1
  O2-  O448  1  0.40973462  0.33562789  0.50920274  1
  O2-  O449  1  0.41246410  0.32513918  0.86016173  1
  O2-  O450  1  0.39725585  0.57744288  0.17948972  1
  O2-  O451  1  0.42519519  0.59075583  0.52297982  1
  O2-  O452  1  0.41173265  0.57535370  0.84021342  1
  O2-  O453  1  0.42003840  0.80564793  0.21134941  1
  O2-  O454  1  0.40494299  0.82967538  0.52268871  1
  O2-  O455  1  0.42971480  0.84983249  0.85736205  1
  O2-  O456  1  0.65354046  0.08113692  0.18608239  1
  O2-  O457  1  0.64934519  0.07714788  0.53483361  1
  O2-  O458  1  0.61296364  0.05245937  0.85766507  1
  O2-  O459  1  0.64317177  0.31512324  0.17872497  1
  O2-  O460  1  0.64782895  0.32212940  0.52174001  1
  O2-  O461  1  0.63661820  0.31015940  0.84030640  1
  O2-  O462  1  0.69543097  0.64159641  0.20021716  1
  O2-  O463  1  0.68114408  0.57811305  0.51741961  1
  O2-  O464  1  0.64364399  0.56444765  0.86634938  1
  O2-  O465  1  0.66247502  0.83305941  0.19554301  1
  O2-  O466  1  0.65705559  0.81921700  0.50973555  1
  O2-  O467  1  0.68626832  0.81401472  0.85936551  1
  O2-  O468  1  0.95207916  0.05247472  0.19768332  1
  O2-  O469  1  0.94040739  0.19414234  0.53430911  1
  O2-  O470  1  0.93075434  0.06206032  0.84218236  1
  O2-  O471  1  0.89073730  0.36458463  0.13845124  1
  O2-  O472  1  0.96944879  0.34732018  0.55875899  1
  O2-  O473  1  0.88015470  0.32000617  0.84832480  1
  O2-  O474  1  0.90599029  0.55141784  0.15228740  1
  O2-  O475  1  0.97619378  0.66070169  0.54147467  1
  O2-  O476  1  0.91765671  0.59064622  0.86665461  1
  O2-  O477  1  0.92314969  0.82134548  0.17992961  1
  O2-  O478  1  0.90667678  0.83499802  0.51078795  1
  O2-  O479  1  0.91705966  0.84589033  0.85165869  1
  O2-  O480  1  0.16307255  0.08741002  0.30546760  1
  O2-  O481  1  0.17479130  0.08883311  0.64329729  1
  O2-  O482  1  0.16199505  0.08251288  0.97447869  1
  O2-  O483  1  0.15975750  0.32858828  0.33264868  1
  O2-  O484  1  0.18864639  0.35225638  0.64076914  1
  O2-  O485  1  0.17310386  0.32102128  0.97314679  1
  O2-  O486  1  0.16480101  0.58121890  0.31279180  1
  O2-  O487  1  0.19343171  0.58263777  0.66367106  1
  O2-  O488  1  0.19129051  0.62584485  0.96687448  1
  O2-  O489  1  0.17018329  0.84635500  0.30884082  1
  O2-  O490  1  0.16532727  0.83610149  0.64403891  1
  O2-  O491  1  0.16171007  0.83231408  0.97831722  1
  O2-  O492  1  0.40824255  0.09115346  0.31355297  1
  O2-  O493  1  0.41460235  0.06629925  0.64487519  1
  O2-  O494  1  0.41155290  0.09158797  0.97224269  1
  O2-  O495  1  0.40845045  0.34096681  0.31110860  1
  O2-  O496  1  0.41160828  0.32109711  0.63713644  1
  O2-  O497  1  0.41397882  0.31985450  0.97911926  1
  O2-  O498  1  0.40571451  0.58490667  0.30610638  1
  O2-  O499  1  0.43111902  0.58891020  0.64920119  1
  O2-  O500  1  0.42067702  0.58257371  0.99478386  1
  O2-  O501  1  0.45088430  0.91958696  0.28940746  1
  O2-  O502  1  0.41905124  0.82978825  0.64934759  1
  O2-  O503  1  0.42366263  0.84132862  0.97583434  1
  O2-  O504  1  0.65993165  0.08599159  0.30903791  1
  O2-  O505  1  0.64220006  0.11502316  0.65330569  1
  O2-  O506  1  0.65335127  0.07910209  0.97614591  1
  O2-  O507  1  0.65513298  0.34041582  0.30793271  1
  O2-  O508  1  0.67091796  0.32146274  0.63918681  1
  O2-  O509  1  0.68417671  0.34732036  0.99946569  1
  O2-  O510  1  0.64443918  0.59210286  0.32217469  1
  O2-  O511  1  0.65854093  0.55748407  0.64040685  1
  O2-  O512  1  0.65125644  0.57921338  0.98363165  1
  O2-  O513  1  0.63329859  0.82362921  0.31961002  1
  O2-  O514  1  0.66249282  0.81147473  0.63503685  1
  O2-  O515  1  0.65722354  0.82664000  0.98052261  1
  O2-  O516  1  0.91348191  0.09350470  0.30912468  1
  O2-  O517  1  0.91878977  0.07246640  0.67494473  1
  O2-  O518  1  0.91492422  0.10456015  0.95868323  1
  O2-  O519  1  0.90949387  0.35002404  0.35632660  1
  O2-  O520  1  0.92318945  0.33084043  0.67718193  1
  O2-  O521  1  0.95751618  0.32507919  0.94246198  1
  O2-  O522  1  0.94206411  0.61297216  0.29131003  1
  O2-  O523  1  0.90576292  0.58256087  0.65594342  1
  O2-  O524  1  0.92325052  0.58939158  0.99074160  1
  O2-  O525  1  0.91952076  0.81935450  0.30587232  1
  O2-  O526  1  0.92414958  0.83370248  0.63087332  1
  O2-  O527  1  0.90420908  0.81449102  0.97833173  1
  O2-  O528  1  0.08131550  0.16145302  0.00850825  1
  O2-  O529  1  0.08317621  0.16895532  0.35705651  1
  O2-  O530  1  0.07335667  0.14730636  0.68752848  1
  O2-  O531  1  0.07150572  0.45448625  0.00524594  1
  O2-  O532  1  0.07876046  0.42193941  0.36593750  1
  O2-  O533  1  0.09595561  0.41431345  0.70292052  1
  O2-  O534  1  0.07780771  0.68401495  0.02321674  1
  O2-  O535  1  0.09400818  0.68076324  0.34412023  1
  O2-  O536  1  0.07233313  0.67578476  0.70306036  1
  O2-  O537  1  0.07841124  0.91397543  0.01372710  1
  O2-  O538  1  0.08602813  0.92176705  0.35226507  1
  O2-  O539  1  0.09118576  0.92772298  0.68754409  1
  O2-  O540  1  0.34561993  0.17202711  0.02354016  1
  O2-  O541  1  0.32502337  0.17143168  0.34870843  1
  O2-  O542  1  0.34283798  0.16230270  0.68441307  1
  O2-  O543  1  0.34088795  0.40694628  0.01975181  1
  O2-  O544  1  0.33063669  0.42808254  0.35828374  1
  O2-  O545  1  0.35235461  0.41964155  0.68553602  1
  O2-  O546  1  0.33963055  0.67700831  0.02251042  1
  O2-  O547  1  0.35118386  0.69968004  0.30319334  1
  O2-  O548  1  0.35575254  0.67019645  0.68866044  1
  O2-  O549  1  0.34268179  0.92658669  0.00825591  1
  O2-  O550  1  0.33509341  0.92868021  0.34915065  1
  O2-  O551  1  0.32372852  0.90523633  0.68995248  1
  O2-  O552  1  0.57894998  0.16928371  0.02149775  1
  O2-  O553  1  0.57791139  0.17292784  0.34822844  1
  O2-  O554  1  0.58842886  0.15116137  0.67218120  1
  O2-  O555  1  0.57783955  0.41349593  0.02626727  1
  O2-  O556  1  0.57571863  0.42284052  0.35471214  1
  O2-  O557  1  0.57829748  0.38552249  0.67627038  1
  O2-  O558  1  0.57776383  0.66383207  0.03069337  1
  O2-  O559  1  0.56197956  0.66869670  0.36031665  1
  O2-  O560  1  0.63702572  0.68163616  0.69969656  1
  O2-  O561  1  0.58296447  0.91682538  0.02336037  1
  O2-  O562  1  0.57165130  0.92811072  0.35744341  1
  O2-  O563  1  0.62075197  0.97017194  0.71161263  1
  O2-  O564  1  0.83623168  0.18447154  -0.00309021  1
  O2-  O565  1  0.82554434  0.17514191  0.35011143  1
  O2-  O566  1  0.88317546  0.17498527  0.72878487  1
  O2-  O567  1  0.84293269  0.41532445  0.03245570  1
  O2-  O568  1  0.83402623  0.44244182  0.32736870  1
  O2-  O569  1  0.83009682  0.41667911  0.69179848  1
  O2-  O570  1  0.81797226  0.64913529  0.02078809  1
  O2-  O571  1  0.82626806  0.65466111  0.35954956  1
  O2-  O572  1  0.81432414  0.64861384  0.69874694  1
  O2-  O573  1  0.81747809  0.88543832  0.03474122  1
  O2-  O574  1  0.87854808  0.93327037  0.35859673  1
  O2-  O575  1  0.83896272  0.90322878  0.70129776  1
