# generated using pymatgen
data_H2O
_symmetry_space_group_name_H-M   'P 1'
_cell_length_a   17.98865955
_cell_length_b   17.98202457
_cell_length_c   21.99683644
_cell_angle_alpha   90.00739158
_cell_angle_beta   89.99431005
_cell_angle_gamma   120.02023312
_symmetry_Int_Tables_number   1
_chemical_formula_structural   H2O
_chemical_formula_sum   'H384 O192'
_cell_volume   6160.83619206
_cell_formula_units_Z   192
loop_
 _symmetry_equiv_pos_site_id
 _symmetry_equiv_pos_as_xyz
  1  'x, y, z'
loop_
 _atom_type_symbol
 _atom_type_oxidation_number
  H+  1.0
  O2-  -2.0
loop_
 _atom_site_type_symbol
 _atom_site_label
 _atom_site_symmetry_multiplicity
 _atom_site_fract_x
 _atom_site_fract_y
 _atom_site_fract_z
 _atom_site_occupancy
  H+  H0  1  0.12332724  0.14684861  0.83310284  1
  H+  H1  1  0.31061957  0.52455346  0.59982058  1
  H+  H2  1  0.73303908  0.62295682  0.84640284  1
  H+  H3  1  0.76987350  0.64431847  1.00672686  1
  H+  H4  1  0.97658920  0.59627449  0.99565863  1
  H+  H5  1  0.90077732  0.27249333  0.84364535  1
  H+  H6  1  0.45718810  0.35926391  0.82690255  1
  H+  H7  1  0.72683278  0.47726957  0.10809411  1
  H+  H8  1  0.32514862  0.64681786  0.07611797  1
  H+  H9  1  0.61152301  0.48885081  0.68190967  1
  H+  H10  1  0.39115787  0.12484631  0.32814119  1
  H+  H11  1  0.60933002  0.63793146  0.15973135  1
  H+  H12  1  0.71973147  0.36285485  0.50729897  1
  H+  H13  1  -0.01498140  0.85793916  0.50398479  1
  H+  H14  1  0.89203438  0.86042153  0.65591180  1
  H+  H15  1  0.74081014  0.10731920  0.48603663  1
  H+  H16  1  0.35438239  0.88119314  0.00593521  1
  H+  H17  1  0.08913702  0.41926794  0.43791782  1
  H+  H18  1  0.41210657  0.79995250  0.33312957  1
  H+  H19  1  0.60084219  0.22079160  0.50935903  1
  H+  H20  1  0.53241440  0.64117237  0.67713208  1
  H+  H21  1  0.89199278  0.28594989  0.32523533  1
  H+  H22  1  0.61441885  0.73302877  0.33731048  1
  H+  H23  1  0.76678098  0.12319382  0.99784189  1
  H+  H24  1  0.88799499  0.77622702  0.32159125  1
  H+  H25  1  0.34228194  0.37878032  0.16748743  1
  H+  H26  1  0.51014206  0.13232958  0.15337557  1
  H+  H27  1  0.96980851  0.54438005  0.20124751  1
  H+  H28  1  0.37789137  0.26895839  0.66066327  1
  H+  H29  1  0.64706661  0.05430489  0.33103735  1
  H+  H30  1  0.12851660  0.52971450  0.51748276  1
  H+  H31  1  0.34412787  0.75053920  0.17913626  1
  H+  H32  1  0.48609315  0.13977337  0.32245362  1
  H+  H33  1  0.35804011  0.38449360  0.33611835  1
  H+  H34  1  0.13706187  0.25650346  0.47563267  1
  H+  H35  1  0.38130886  1.02364022  0.17411590  1
  H+  H36  1  0.59053401  0.15516022  0.64154088  1
  H+  H37  1  0.64002758  0.79355626  0.67498871  1
  H+  H38  1  0.36599067  0.98750251  0.34130801  1
  H+  H39  1  0.88123611  1.01572520  0.16594238  1
  H+  H40  1  0.10986456  0.47175995  1.00812107  1
  H+  H41  1  0.79525607  0.65703317  0.48244710  1
  H+  H42  1  0.83227802  0.94453991  0.42334184  1
  H+  H43  1  0.86125625  0.13510738  0.17274049  1
  H+  H44  1  0.26915463  0.38384469  0.34468666  1
  H+  H45  1  0.02481394  0.38689779  0.83715785  1
  H+  H46  1  0.63629704  0.09851697  0.82633943  1
  H+  H47  1  0.36956971  0.13683723  0.00288440  1
  H+  H48  1  0.64261632  0.34680343  0.82887400  1
  H+  H49  1  0.97406864  0.60910549  0.50659489  1
  H+  H50  1  0.89517118  0.35669971  0.84350338  1
  H+  H51  1  0.53247166  0.91825594  0.73122660  1
  H+  H52  1  0.85522555  0.38566875  0.33954088  1
  H+  H53  1  0.64857606  0.53223803  0.84149153  1
  H+  H54  1  0.85655504  0.63695976  0.67809433  1
  H+  H55  1  0.12818531  0.36024990  0.18380034  1
  H+  H56  1  0.12250347  0.39201008  0.83669146  1
  H+  H57  1  0.61343924  0.63741083  0.83075677  1
  H+  H58  1  0.47143415  0.09678769  0.98333583  1
  H+  H59  1  0.72613009  0.85714305  0.16883163  1
  H+  H60  1  0.02449769  0.38866796  0.16441502  1
  H+  H61  1  0.87650913  0.10984704  0.66073021  1
  H+  H62  1  0.86297322  0.97387549  0.67104664  1
  H+  H63  1  0.16376860  0.30083633  0.48873101  1
  H+  H64  1  0.63943759  0.86082798  0.16627918  1
  H+  H65  1  0.75988515  0.34321638  0.81326499  1
  H+  H66  1  0.60911983  0.72623216  0.15958699  1
  H+  H67  1  0.62993304  0.61966761  0.99245353  1
  H+  H68  1  0.76704649  0.12399012  0.67317419  1
  H+  H69  1  0.37900802  0.35800813  1.03530783  1
  H+  H70  1  0.66158066  0.39949185  0.14915778  1
  H+  H71  1  0.77603702  0.88715668  0.00233462  1
  H+  H72  1  0.10098228  0.07636275  0.50471208  1
  H+  H73  1  0.40005284  0.66182207  0.35656502  1
  H+  H74  1  0.62982562  1.01044785  -0.01715152  1
  H+  H75  1  0.55405963  0.39321661  0.21327291  1
  H+  H76  1  0.77929930  0.64033882  0.16558824  1
  H+  H77  1  0.88748727  0.11518394  0.31557135  1
  H+  H78  1  0.27632882  0.89674085  0.34008723  1
  H+  H79  1  0.61922708  0.24683217  0.82738107  1
  H+  H80  1  0.83177583  0.67082889  0.06350511  1
  H+  H81  1  0.62612431  0.67706567  0.49258497  1
  H+  H82  1  0.91974192  0.59738104  0.59813566  1
  H+  H83  1  0.36213727  0.60774929  0.64417144  1
  H+  H84  1  0.35754388  0.47496862  0.17154831  1
  H+  H85  1  0.37741456  0.60105192  0.17911299  1
  H+  H86  1  0.77859076  0.36581800  0.99766929  1
  H+  H87  1  0.33226260  -0.04838761  0.68179860  1
  H+  H88  1  0.64139305  -0.02105331  0.80134741  1
  H+  H89  1  0.91866626  0.83518201  0.22913689  1
  H+  H90  1  0.58823408  0.37240167  0.95777766  1
  H+  H91  1  0.89396140  0.27662454  0.18376759  1
  H+  H92  1  0.21735089  0.61139766  0.98763208  1
  H+  H93  1  0.84610089  0.38025554  0.48946999  1
  H+  H94  1  0.10608299  0.13310090  0.16154024  1
  H+  H95  1  0.36345750  1.00397016  0.50583962  1
  H+  H96  1  0.35670460  0.03441378  0.82804838  1
  H+  H97  1  0.85637086  0.47498366  0.49304899  1
  H+  H98  1  1.03321091  0.64974941  0.83454773  1
  H+  H99  1  0.11645888  0.38624446  0.01107344  1
  H+  H100  1  0.09988916  0.12511938  0.66005424  1
  H+  H101  1  0.77590120  0.14075091  0.17520537  1
  H+  H102  1  0.85982975  0.88666288  0.33221537  1
  H+  H103  1  0.92474971  0.82379400  0.56389765  1
  H+  H104  1  0.15264281  0.78046651  0.84563296  1
  H+  H105  1  0.35134853  0.47237757  0.66459128  1
  H+  H106  1  0.36124977  0.73218898  0.44961197  1
  H+  H107  1  -0.02044275  0.12046632  0.84159987  1
  H+  H108  1  0.15700582  0.32484965  0.27923406  1
  H+  H109  1  0.83382832  0.66825287  0.77559967  1
  H+  H110  1  0.11302799  0.97483640  0.33404823  1
  H+  H111  1  0.89035807  0.36199320  0.17107247  1
  H+  H112  1  0.63483639  0.85935901  -0.01171933  1
  H+  H113  1  0.38850178  0.87283927  0.84299516  1
  H+  H114  1  0.61696153  0.63167983  0.68449709  1
  H+  H115  1  0.88101580  0.36412016  0.64580461  1
  H+  H116  1  0.43512977  0.33868871  0.17127337  1
  H+  H117  1  0.26677676  0.13270684  0.33806870  1
  H+  H118  1  0.87485313  0.51800371  0.33066764  1
  H+  H119  1  0.85667974  0.24825881  0.49225235  1
  H+  H120  1  0.65938814  0.80988844  0.51619741  1
  H+  H121  1  0.24739093  0.52978322  0.13081724  1
  H+  H122  1  0.87182465  0.37847708  0.00710153  1
  H+  H123  1  0.61009080  0.42686370  0.76052414  1
  H+  H124  1  0.54699831  0.42658103  0.19797789  1
  H+  H125  1  0.86410592  0.63289390  0.16157222  1
  H+  H126  1  0.09624025  0.62021628  1.00276403  1
  H+  H127  1  0.88579190  0.77061231  0.66115562  1
  H+  H128  1  0.22645460  0.36501113  0.99948037  1
  H+  H129  1  1.02473053  0.39098700  0.34668345  1
  H+  H130  1  0.59002530  -0.03351933  0.49205148  1
  H+  H131  1  0.76318528  0.62932606  0.68715597  1
  H+  H132  1  0.80161605  0.93053144  0.49206806  1
  H+  H133  1  0.47336737  0.61453563  0.17648835  1
  H+  H134  1  0.46636132  0.33885439  0.50526161  1
  H+  H135  1  0.12365138  0.27177467  0.66257569  1
  H+  H136  1  0.40963849  0.52302950  0.49503485  1
  H+  H137  1  0.11389373  0.96927646  0.48736054  1
  H+  H138  1  0.54943520  0.06305587  0.67100107  1
  H+  H139  1  0.33281781  0.91430208  0.74798838  1
  H+  H140  1  0.86455593  0.73165139  0.83499898  1
  H+  H141  1  0.12461735  0.01546010  0.17088372  1
  H+  H142  1  0.83124201  0.40584200  0.09372794  1
  H+  H143  1  0.38756722  0.74237936  0.68052347  1
  H+  H144  1  0.89964382  0.14940937  0.50759531  1
  H+  H145  1  0.10655189  0.63703590  0.50630576  1
  H+  H146  1  1.07094618  0.36661869  0.50099718  1
  H+  H147  1  0.12451423  0.03038823  0.83925908  1
  H+  H148  1  0.23131622  0.10362597  0.99492982  1
  H+  H149  1  0.35832618  0.42794221  0.42850217  1
  H+  H150  1  0.68033368  0.59702420  0.53967461  1
  H+  H151  1  0.87916397  0.49672057  -0.01000716  1
  H+  H152  1  0.86866122  -0.01769346  0.82835764  1
  H+  H153  1  0.73250054  0.11413342  0.83224365  1
  H+  H154  1  0.12558822  0.69389969  0.67106445  1
  H+  H155  1  0.77414317  0.63981537  0.33696536  1
  H+  H156  1  0.47733100  0.60931862  0.99320384  1
  H+  H157  1  0.64896403  0.91814478  0.74955762  1
  H+  H158  1  0.12951373  0.26480307  0.33808840  1
  H+  H159  1  0.52086088  0.38874220  0.67821493  1
  H+  H160  1  0.22413476  0.61104399  0.83610103  1
  H+  H161  1  0.89327834  0.54115138  0.83603072  1
  H+  H162  1  0.64675884  0.30172051  0.67027709  1
  H+  H163  1  0.35046288  0.12556431  0.16066966  1
  H+  H164  1  0.38629150  0.52580501  0.33406382  1
  H+  H165  1  0.14272399  0.28739214  0.84431068  1
  H+  H166  1  0.25370058  0.12417279  0.49681640  1
  H+  H167  1  0.61929625  0.10272045  0.52065720  1
  H+  H168  1  0.36116254  0.48613516  0.82294740  1
  H+  H169  1  0.27675758  0.89016936  0.16252396  1
  H+  H170  1  -0.02847794  0.11178946  -0.00802100  1
  H+  H171  1  0.86092711  0.88157896  0.15548215  1
  H+  H172  1  0.22836591  0.86814770  0.99306567  1
  H+  H173  1  0.60139137  0.11487973  -0.00157846  1
  H+  H174  1  0.73476557  0.87378669  0.67680047  1
  H+  H175  1  0.77940216  0.40534009  0.66377154  1
  H+  H176  1  0.50009389  0.40105962  1.04380967  1
  H+  H177  1  0.65880765  0.53826806  0.17384766  1
  H+  H178  1  0.51636277  0.87983193  -0.00065179  1
  H+  H179  1  0.47102859  0.85780924  0.84170266  1
  H+  H180  1  0.53914422  0.90248313  0.15612181  1
  H+  H181  1  0.61122950  0.10446043  0.17270588  1
  H+  H182  1  0.39328011  0.87729142  0.68057694  1
  H+  H183  1  0.85883625  -0.02502810  0.32789502  1
  H+  H184  1  0.11351481  0.52372160  0.17748004  1
  H+  H185  1  0.72320640  0.86575639  0.32289349  1
  H+  H186  1  0.38064154  0.35880092  0.65970620  1
  H+  H187  1  0.01598005  0.12581492  0.33325603  1
  H+  H188  1  0.97949570  0.35411932  1.00251987  1
  H+  H189  1  0.02643820  0.88195578  0.00407249  1
  H+  H190  1  0.94253200  0.33642624  0.48419611  1
  H+  H191  1  0.53721969  0.91465626  0.33645762  1
  H+  H192  1  -0.03996074  0.02963250  0.46657268  1
  H+  H193  1  0.50956374  0.13436523  0.50849550  1
  H+  H194  1  0.23057582  0.37852381  0.83897038  1
  H+  H195  1  0.22530052  0.85986780  0.50414333  1
  H+  H196  1  0.64891378  0.24561297  0.98269033  1
  H+  H197  1  0.96293636  0.10663512  0.65448868  1
  H+  H198  1  0.21614725  0.36058727  0.18449481  1
  H+  H199  1  0.78081007  0.15479130  0.32635626  1
  H+  H200  1  0.16930206  0.87422612  0.66324059  1
  H+  H201  1  0.33274518  0.92535507  0.43227366  1
  H+  H202  1  0.87808223  0.10400552  0.98799645  1
  H+  H203  1  0.35975932  0.63741519  0.82942353  1
  H+  H204  1  0.14146392  0.87023308  0.17326491  1
  H+  H205  1  0.19702713  0.45145652  0.53131495  1
  H+  H206  1  0.85608894  0.46192915  0.15622741  1
  H+  H207  1  0.13189530  0.10739456  0.32483913  1
  H+  H208  1  0.24426521  0.87105766  0.84827521  1
  H+  H209  1  0.34738148  0.21083327  0.49907050  1
  H+  H210  1  0.13466623  0.77148192  0.51109508  1
  H+  H211  1  0.63489942  0.38304620  0.66316768  1
  H+  H212  1  0.89531248  0.53810404  0.65593584  1
  H+  H213  1  0.10529914  0.64456388  0.15782122  1
  H+  H214  1  0.47696523  0.61659084  0.83968603  1
  H+  H215  1  0.63490711  0.61504550  0.32936087  1
  H+  H216  1  0.88777688  0.73662506  0.48742397  1
  H+  H217  1  0.11004719  0.38332433  0.34796013  1
  H+  H218  1  0.44439891  0.08887036  0.65306471  1
  H+  H219  1  0.37744786  0.26751308  0.32856501  1
  H+  H220  1  0.36202283  0.47356728  0.01292513  1
  H+  H221  1  0.72751086  0.34194079  0.16908749  1
  H+  H222  1  0.61102268  0.72989878  0.00436874  1
  H+  H223  1  -0.02293048  0.86518645  0.32226161  1
  H+  H224  1  0.13929902  0.86537239  0.32633588  1
  H+  H225  1  0.13453424  0.86759912  0.99018269  1
  H+  H226  1  0.11172069  0.72922316  0.34477731  1
  H+  H227  1  0.10925100  0.01134153  0.67612457  1
  H+  H228  1  0.38885283  0.60739094  0.99574869  1
  H+  H229  1  0.21569128  0.11466504  0.84251422  1
  H+  H230  1  0.59420785  0.45107972  0.48035309  1
  H+  H231  1  0.35881640  0.09749793  0.65793699  1
  H+  H232  1  0.89390412  0.86827603  -0.00577711  1
  H+  H233  1  0.17225005  0.53732292  0.67883106  1
  H+  H234  1  0.70206865  0.47228685  0.78905126  1
  H+  H235  1  0.89079420  0.77345410  0.17090706  1
  H+  H236  1  0.02228105  0.88248628  0.15702802  1
  H+  H237  1  0.61116519  -0.01379819  0.65769729  1
  H+  H238  1  0.17109452  0.34257443  0.93805393  1
  H+  H239  1  0.41980899  0.91444413  0.18132644  1
  H+  H240  1  0.91598079  0.83222639  0.90102240  1
  H+  H241  1  0.64152568  0.77048952  0.83856074  1
  H+  H242  1  0.10020813  0.22755332  0.00880543  1
  H+  H243  1  0.84795863  0.22087449  0.66703767  1
  H+  H244  1  0.14186727  0.78251067  0.17072007  1
  H+  H245  1  0.57406393  0.91972240  0.42851856  1
  H+  H246  1  0.58039618  0.67013758  0.06511639  1
  H+  H247  1  0.60583660  0.36992634  0.48944042  1
  H+  H248  1  0.59689838  0.50268699  0.01678082  1
  H+  H249  1  0.88785732  0.61229216  0.50022006  1
  H+  H250  1  0.13424052  0.61271072  0.83686178  1
  H+  H251  1  0.31510738  0.15274103  0.72951067  1
  H+  H252  1  0.78125673  0.89127877  0.82745673  1
  H+  H253  1  0.60319081  0.37185863  0.32866398  1
  H+  H254  1  0.88883221  0.77700243  0.99474739  1
  H+  H255  1  0.85583152  0.20948421  0.00695023  1
  H+  H256  1  0.08541391  0.41830840  0.10556089  1
  H+  H257  1  0.97102180  0.10643914  0.16739156  1
  H+  H258  1  0.25426989  0.11504798  0.67134489  1
  H+  H259  1  0.62238967  0.90869195  0.33608447  1
  H+  H260  1  0.11741790  0.48613413  0.83315525  1
  H+  H261  1  0.35702470  0.97120277  0.00513329  1
  H+  H262  1  0.13242762  0.52666003  0.32721284  1
  H+  H263  1  0.64496891  0.86040487  0.83409559  1
  H+  H264  1  0.39631101  0.27646837  1.03019113  1
  H+  H265  1  0.63840386  0.18929040  0.32556348  1
  H+  H266  1  0.21369630  0.10220448  0.16907896  1
  H+  H267  1  0.50471637  0.09228836  0.81635667  1
  H+  H268  1  0.56750211  0.01459785  0.20453002  1
  H+  H269  1  0.38032371  0.74353710  0.18846212  1
  H+  H270  1  0.35564242  0.72436320  0.82887474  1
  H+  H271  1  0.34864662  0.23693567  0.80707026  1
  H+  H272  1  0.02336361  0.64682379  0.67505687  1
  H+  H273  1  0.38496260  0.39418528  0.48973460  1
  H+  H274  1  0.41628022  0.58252068  0.89852276  1
  H+  H275  1  0.59086226  0.35034914  -0.01403634  1
  H+  H276  1  0.35428609  0.15856279  0.83274253  1
  H+  H277  1  0.02332093  0.65486835  0.15513270  1
  H+  H278  1  0.86987602  0.14185898  0.82787424  1
  H+  H279  1  0.87956061  0.61013188  0.32582168  1
  H+  H280  1  0.49456053  0.63057450  0.49995066  1
  H+  H281  1  0.46692371  0.85939237  0.48759984  1
  H+  H282  1  0.33912776  0.20835200  0.15896623  1
  H+  H283  1  0.26704334  0.38299836  0.67518333  1
  H+  H284  1  0.12904646  0.61340359  0.32978982  1
  H+  H285  1  0.37942077  0.37128596  0.80657871  1
  H+  H286  1  0.10487592  0.22157592  0.16708993  1
  H+  H287  1  0.36149785  0.88753509  0.48864967  1
  H+  H288  1  0.16063775  0.57890037  0.92799551  1
  H+  H289  1  0.88883004  0.86140434  0.84029855  1
  H+  H290  1  0.39680015  0.80597783  0.53967980  1
  H+  H291  1  0.06940657  0.16733393  0.06685766  1
  H+  H292  1  0.44534152  0.35368582  0.92560516  1
  H+  H293  1  0.45234532  0.88795659  0.24162466  1
  H+  H294  1  0.60246767  0.44919611  0.07851818  1
  H+  H295  1  0.32601159  0.42877684  0.76122098  1
  H+  H296  1  0.14485550  0.58464939  0.23759179  1
  H+  H297  1  0.58110899  0.91118502  0.05664203  1
  H+  H298  1  0.06066926  0.13246056  0.72151845  1
  H+  H299  1  0.00336861  0.11984168  0.49308437  1
  H+  H300  1  0.66166930  0.83523319  0.26518487  1
  H+  H301  1  0.35476111  0.09741710  0.50826514  1
  H+  H302  1  0.65782020  0.58084393  0.93589704  1
  H+  H303  1  0.38203996  0.06348496  0.57463692  1
  H+  H304  1  0.38000710  0.77274404  0.99275195  1
  H+  H305  1  0.92940989  0.12726564  0.56820375  1
  H+  H306  1  0.08365762  0.66775881  0.44277139  1
  H+  H307  1  0.60293417  0.21690062  0.14986790  1
  H+  H308  1  0.01728754  0.39582850  0.65921503  1
  H+  H309  1  0.62925616  0.97827294  0.14575176  1
  H+  H310  1  0.05696566  0.12934252  0.39732749  1
  H+  H311  1  0.34138053  0.67210833  0.73123428  1
  H+  H312  1  0.16605472  -0.01063364  0.63521939  1
  H+  H313  1  0.83199277  0.16940377  0.38658433  1
  H+  H314  1  0.39426464  0.87953599  0.33256840  1
  H+  H315  1  0.91427020  0.56782416  0.24263023  1
  H+  H316  1  0.08826395  0.67454332  0.77365239  1
  H+  H317  1  0.02155807  0.64115234  0.34638097  1
  H+  H318  1  0.40834159  0.82954993  0.93139696  1
  H+  H319  1  0.46805307  0.35484816  0.32118950  1
  H+  H320  1  0.86420965  0.97745773  0.00196316  1
  H+  H321  1  0.79859546  0.07152753  0.45886205  1
  H+  H322  1  0.66289677  0.10030687  0.26793196  1
  H+  H323  1  0.71317434  0.33727993  0.32743018  1
  H+  H324  1  0.66250457  0.31245044  0.22623134  1
  H+  H325  1  0.73412124  0.69326939  0.56031477  1
  H+  H326  1  0.23484124  0.60070150  0.16116039  1
  H+  H327  1  0.14231400  0.05948036  0.56511573  1
  H+  H328  1  0.66988263  0.59079265  0.23508130  1
  H+  H329  1  0.20006617  0.39615493  0.58636659  1
  H+  H330  1  0.58404077  0.66657488  0.77053109  1
  H+  H331  1  0.11710106  0.88178966  0.48600531  1
  H+  H332  1  0.80725815  0.30951155  0.77212024  1
  H+  H333  1  0.41904971  0.71325674  0.05878178  1
  H+  H334  1  0.16279333  0.07998111  0.26421606  1
  H+  H335  1  0.65688487  0.57533798  0.62742319  1
  H+  H336  1  0.92379713  0.32664487  0.94168240  1
  H+  H337  1  0.12585119  0.36243518  0.66877123  1
  H+  H338  1  0.16395510  0.07491418  0.94078071  1
  H+  H339  1  0.91386430  0.07939771  0.25747552  1
  H+  H340  1  0.32330722  0.42106384  0.07572090  1
  H+  H341  1  0.13055983  0.56196018  0.58332656  1
  H+  H342  1  0.38931142  0.31504973  0.23559354  1
  H+  H343  1  0.84021872  0.42012763  0.71978848  1
  H+  H344  1  0.17466866  0.87772339  0.59126366  1
  H+  H345  1  0.68549829  -0.02628524  0.63544680  1
  H+  H346  1  0.08361601  0.91365212  0.39295968  1
  H+  H347  1  0.14573485  0.21035010  0.77766941  1
  H+  H348  1  0.17193737  0.83533819  0.26922600  1
  H+  H349  1  0.81728545  0.40985147  0.39769408  1
  H+  H350  1  0.91008196  0.57086513  0.93211700  1
  H+  H351  1  0.55960103  0.13466289  0.75717207  1
  H+  H352  1  0.91924294  0.08726770  0.90125955  1
  H+  H353  1  0.41721691  0.58703512  0.27620708  1
  H+  H354  1  0.65577401  0.05676122  0.56719048  1
  H+  H355  1  0.06694659  0.65542346  0.06056910  1
  H+  H356  1  0.84500633  0.92125029  0.73354380  1
  H+  H357  1  0.88665382  0.62601070  0.84454388  1
  H+  H358  1  0.66077834  0.07082185  0.92399589  1
  H+  H359  1  0.84011944  0.17294489  0.76819001  1
  H+  H360  1  0.92495685  0.35064691  0.26939379  1
  H+  H361  1  0.84207925  0.67346231  0.39263049  1
  H+  H362  1  0.41475227  0.08723060  0.23256830  1
  H+  H363  1  0.57467914  0.39782747  0.38912450  1
  H+  H364  1  0.40622979  0.05222302  0.92716192  1
  H+  H365  1  0.52710752  0.64175417  0.34221140  1
  H+  H366  1  0.83084212  0.91156756  0.09580178  1
  H+  H367  1  0.11913606  0.97046629  0.00573076  1
  H+  H368  1  0.63312567  0.52417170  0.32587544  1
  H+  H369  1  0.41078684  0.32185994  0.56656091  1
  H+  H370  1  0.33277350  0.15458788  0.06464817  1
  H+  H371  1  0.69361442  0.85366248  0.57983357  1
  H+  H372  1  0.41660864  0.58637798  0.55626061  1
  H+  H373  1  0.17538777  0.84124131  0.92235709  1
  H+  H374  1  0.08382100  0.91122495  0.09803128  1
  H+  H375  1  0.39706350  0.32773617  0.92340346  1
  H+  H376  1  0.58648047  0.68830278  0.43090559  1
  H+  H377  1  0.32107198  0.15924385  0.40004126  1
  H+  H378  1  0.57053486  0.14790644  0.05674059  1
  H+  H379  1  0.33369356  0.91849400  0.10176246  1
  H+  H380  1  0.90338298  0.32266737  0.58958316  1
  H+  H381  1  0.68181244  0.30183505  0.92176664  1
  H+  H382  1  0.66833184  0.82972687  0.93084981  1
  H+  H383  1  0.66307457  0.34144089  0.56839282  1
  O2-  O384  1  0.07538505  0.16370865  0.14797745  1
  O2-  O385  1  0.01869568  0.08083642  0.47016136  1
  O2-  O386  1  0.10625435  0.18728448  0.81204133  1
  O2-  O387  1  0.08644124  0.42193646  0.15101858  1
  O2-  O388  1  0.08663224  0.42253578  0.48394711  1
  O2-  O389  1  0.08752266  0.42081503  0.82223274  1
  O2-  O390  1  0.08142297  0.67894927  0.13797964  1
  O2-  O391  1  0.07898479  0.66880178  0.48794451  1
  O2-  O392  1  0.09277485  0.67363289  0.81937351  1
  O2-  O393  1  0.08386283  0.91331914  0.14362630  1
  O2-  O394  1  0.08662275  0.91090031  0.46873879  1
  O2-  O395  1  0.08126683  0.94505085  0.78635885  1
  O2-  O396  1  0.31616563  0.14968044  0.14171366  1
  O2-  O397  1  0.31527520  0.14972704  0.48373784  1
  O2-  O398  1  0.31660422  0.17113823  0.80848272  1
  O2-  O399  1  0.31951385  0.41668666  0.15374733  1
  O2-  O400  1  0.37981139  0.44174705  0.47127790  1
  O2-  O401  1  0.32563737  0.42587989  0.80702530  1
  O2-  O402  1  0.27901732  0.59134230  0.13915035  1
  O2-  O403  1  0.33768840  0.68189810  0.42119992  1
  O2-  O404  1  0.32566551  0.66368655  0.81412475  1
  O2-  O405  1  0.33730436  0.92316581  0.14703467  1
  O2-  O406  1  0.33211763  0.92182163  0.47829008  1
  O2-  O407  1  0.34610810  0.92245554  0.82445171  1
  O2-  O408  1  0.56914320  0.15624065  0.13556327  1
  O2-  O409  1  0.57144231  0.15753561  0.50404378  1
  O2-  O410  1  0.56291215  0.13554451  0.80197433  1
  O2-  O411  1  0.67077233  0.45313239  0.12745866  1
  O2-  O412  1  0.56876919  0.39087435  0.46896291  1
  O2-  O413  1  0.64188393  0.43809124  0.80112668  1
  O2-  O414  1  0.57628082  0.66496622  0.14449281  1
  O2-  O415  1  0.58421414  0.69238637  0.47656204  1
  O2-  O416  1  0.58200530  0.66679413  0.81634395  1
  O2-  O417  1  0.59360119  0.91737165  0.13369761  1
  O2-  O418  1  0.56026842  0.90886430  0.47266562  1
  O2-  O419  1  0.61293311  0.91999343  0.78257173  1
  O2-  O420  1  0.83792573  0.17509358  0.17124132  1
  O2-  O421  1  0.79738174  0.12544118  0.46453461  1
  O2-  O422  1  0.84172481  0.17538342  0.81353132  1
  O2-  O423  1  0.82731305  0.40274824  0.13954661  1
  O2-  O424  1  0.81951143  0.41468641  0.47699247  1
  O2-  O425  1  0.81769294  0.36120788  0.79393316  1
  O2-  O426  1  0.83811785  0.66600110  0.14705484  1
  O2-  O427  1  0.85348234  0.67551503  0.46755219  1
  O2-  O428  1  0.83416743  0.66768577  0.82142588  1
  O2-  O429  1  0.82805897  0.90971871  0.14151590  1
  O2-  O430  1  0.84126012  0.97478572  0.46287801  1
  O2-  O431  1  0.84107020  0.92299217  0.81153548  1
  O2-  O432  1  0.15453200  0.07595668  0.18666792  1
  O2-  O433  1  0.14912379  0.06847015  0.52052872  1
  O2-  O434  1  0.15630035  0.08774225  0.85915335  1
  O2-  O435  1  0.15607070  0.32836795  0.20009834  1
  O2-  O436  1  0.23566851  0.44522758  0.55950437  1
  O2-  O437  1  0.17078067  0.34891444  0.85752123  1
  O2-  O438  1  0.14146742  0.58520872  0.19060946  1
  O2-  O439  1  0.14632330  0.58241438  0.54121487  1
  O2-  O440  1  0.16238971  0.57880614  0.85109173  1
  O2-  O441  1  0.17304680  0.84105371  0.18884353  1
  O2-  O442  1  0.16625086  0.83471777  0.52086663  1
  O2-  O443  1  0.18252670  0.83974786  0.86279772  1
  O2-  O444  1  0.41116963  0.08555506  0.18723559  1
  O2-  O445  1  0.38545050  0.06598935  0.52584486  1
  O2-  O446  1  0.39420397  0.01440625  0.84465830  1
  O2-  O447  1  0.37839357  0.31094245  0.19007903  1
  O2-  O448  1  0.40692647  0.31470544  0.52119789  1
  O2-  O449  1  0.40828132  0.33658600  0.79937865  1
  O2-  O450  1  0.41526647  0.58098702  0.19588700  1
  O2-  O451  1  0.43143522  0.58736739  0.51149624  1
  O2-  O452  1  0.41531552  0.58627474  0.85328914  1
  O2-  O453  1  0.47083299  0.91669819  0.20103138  1
  O2-  O454  1  0.40105363  0.82452852  0.49756031  1
  O2-  O455  1  0.41200204  0.83178179  0.85629341  1
  O2-  O456  1  0.62560930  0.06529516  0.19631726  1
  O2-  O457  1  0.65049934  0.06949694  0.52403221  1
  O2-  O458  1  0.67063820  0.07267570  0.84088564  1
  O2-  O459  1  0.66595127  0.31823064  0.18109425  1
  O2-  O460  1  0.65926266  0.33267084  0.52352294  1
  O2-  O461  1  0.66197546  0.30567977  0.84105605  1
  O2-  O462  1  0.67539227  0.59590672  0.18949953  1
  O2-  O463  1  0.70566403  0.65600193  0.52537657  1
  O2-  O464  1  0.67050091  0.59006228  0.85937062  1
  O2-  O465  1  0.66525336  0.82802879  0.18426666  1
  O2-  O466  1  0.71157157  0.85078906  0.53803577  1
  O2-  O467  1  0.67347495  0.83157678  0.85351840  1
  O2-  O468  1  0.91022622  0.07546311  0.18267664  1
  O2-  O469  1  0.95159719  0.16334099  0.53098085  1
  O2-  O470  1  0.91933422  0.09093144  0.85441737  1
  O2-  O471  1  0.92553480  0.34084896  0.19156543  1
  O2-  O472  1  0.88714573  0.30879400  0.50546207  1
  O2-  O473  1  0.93082801  0.33335638  0.86009345  1
  O2-  O474  1  0.92531115  0.56025698  0.19781251  1
  O2-  O475  1  0.91186320  0.57787444  0.51913247  1
  O2-  O476  1  0.91883613  0.59464121  0.85903930  1
  O2-  O477  1  0.91913964  0.83481193  0.18340193  1
  O2-  O478  1  0.92492815  0.82196802  0.51823428  1
  O2-  O479  1  0.91097429  0.82464176  0.85607261  1
  O2-  O480  1  0.16610051  0.08087268  0.30986029  1
  O2-  O481  1  0.15341285  0.03771641  0.64371031  1
  O2-  O482  1  0.17022946  0.06576516  0.98426075  1
  O2-  O483  1  0.15978750  0.32605566  0.32472357  1
  O2-  O484  1  0.15958934  0.33435349  0.65709799  1
  O2-  O485  1  0.16670266  0.33919476  0.98304792  1
  O2-  O486  1  0.15388167  0.58302216  0.30722871  1
  O2-  O487  1  0.11444047  0.51314696  0.66136116  1
  O2-  O488  1  0.15808635  0.57723962  0.97380489  1
  O2-  O489  1  0.17222280  0.83581276  0.31465788  1
  O2-  O490  1  0.18839456  0.91357713  0.62881642  1
  O2-  O491  1  0.16965971  0.84046851  0.97309829  1
  O2-  O492  1  0.42534163  0.09885191  0.31245239  1
  O2-  O493  1  0.38402238  0.06337441  0.63902026  1
  O2-  O494  1  0.40900935  0.06690191  0.97068791  1
  O2-  O495  1  0.40605351  0.32611022  0.30947212  1
  O2-  O496  1  0.41128349  0.32863114  0.64527966  1
  O2-  O497  1  0.41847428  0.33603371  1.04666497  1
  O2-  O498  1  0.42027754  0.58734322  0.32137087  1
  O2-  O499  1  0.36719353  0.56215865  0.62108980  1
  O2-  O500  1  0.41597335  0.57564098  0.97878824  1
  O2-  O501  1  0.43086063  0.85769461  0.31508334  1
  O2-  O502  1  0.44217965  0.86608681  0.66749983  1
  O2-  O503  1  0.40868114  0.83214906  0.97733406  1
  O2-  O504  1  0.67519946  0.11307286  0.31236363  1
  O2-  O505  1  0.66996834  0.01868952  0.63931847  1
  O2-  O506  1  0.65824818  0.07161751  0.96905210  1
  O2-  O507  1  0.65497416  0.30608646  0.30637971  1
  O2-  O508  1  0.67039287  0.35557172  0.64789692  1
  O2-  O509  1  0.69701311  0.29829976  0.96431324  1
  O2-  O510  1  0.66493454  0.58502892  0.31253160  1
  O2-  O511  1  0.65705280  0.57648171  0.67145104  1
  O2-  O512  1  0.65428946  0.58171032  0.98152155  1
  O2-  O513  1  0.66111497  0.83733594  0.31046140  1
  O2-  O514  1  0.67288116  0.85638034  0.66812043  1
  O2-  O515  1  0.66644632  0.82895396  0.97644561  1
  O2-  O516  1  0.91469705  0.08110517  0.30337391  1
  O2-  O517  1  0.90235929  0.07838898  0.64086677  1
  O2-  O518  1  0.91260469  0.07717364  0.97220520  1
  O2-  O519  1  0.92128491  0.34883004  0.31495431  1
  O2-  O520  1  0.90708181  0.32828795  0.63445013  1
  O2-  O521  1  0.91924868  0.32518381  0.98664585  1
  O2-  O522  1  0.90941637  0.57744264  0.31398636  1
  O2-  O523  1  0.92190128  0.59933160  0.64359212  1
  O2-  O524  1  0.91096813  0.56088440  0.97733889  1
  O2-  O525  1  0.91674893  0.83664611  0.30634634  1
  O2-  O526  1  0.91758585  0.82662575  0.64015705  1
  O2-  O527  1  0.92429071  0.83786063  0.97983702  1
  O2-  O528  1  0.06443632  0.16742290  0.02200753  1
  O2-  O529  1  0.07278407  0.15060595  0.35462772  1
  O2-  O530  1  0.07062325  0.15262167  0.67926289  1
  O2-  O531  1  0.08372357  0.41425076  0.02733020  1
  O2-  O532  1  0.08425524  0.41773976  0.36348879  1
  O2-  O533  1  0.07497527  0.42217180  0.67912169  1
  O2-  O534  1  0.05830781  0.64253050  0.01611252  1
  O2-  O535  1  0.08105775  0.66998280  0.36227555  1
  O2-  O536  1  0.07753843  0.66941361  0.69919318  1
  O2-  O537  1  0.08714333  0.90760239  0.01966628  1
  O2-  O538  1  0.08233669  0.91323955  0.34717771  1
  O2-  O539  1  0.05161821  0.97691069  0.74785954  1
  O2-  O540  1  0.34230503  0.16829049  0.02013745  1
  O2-  O541  1  0.32690948  0.16446270  0.35514890  1
  O2-  O542  1  0.31555124  0.15165906  0.68426755  1
  O2-  O543  1  0.32711611  0.41485579  0.03071441  1
  O2-  O544  1  0.33204756  0.41730164  0.35393080  1
  O2-  O545  1  0.32933092  0.41620168  0.68609083  1
  O2-  O546  1  0.36271911  0.67812809  0.04007552  1
  O2-  O547  1  0.40482808  0.71539592  0.37437871  1
  O2-  O548  1  0.34972913  0.68022422  0.68668027  1
  O2-  O549  1  0.32449910  0.91126662  0.02226821  1
  O2-  O550  1  0.33602507  0.92798585  0.35763689  1
  O2-  O551  1  0.32471175  0.90037946  0.70325926  1
  O2-  O552  1  0.57028270  0.14565352  0.01133920  1
  O2-  O553  1  0.60702924  0.22076402  0.33614253  1
  O2-  O554  1  0.55072313  0.11849293  0.67301143  1
  O2-  O555  1  0.56285703  0.45852318  0.05109162  1
  O2-  O556  1  0.57657244  0.40491449  0.34415943  1
  O2-  O557  1  0.58184845  0.41956907  0.69129151  1
  O2-  O558  1  0.57867145  0.66863901  0.01960373  1
  O2-  O559  1  0.58872017  0.67376281  0.35533545  1
  O2-  O560  1  0.58996729  0.67032956  0.69451737  1
  O2-  O561  1  0.57819054  0.90800710  0.01118310  1
  O2-  O562  1  0.59798095  0.94431376  0.35125009  1
  O2-  O563  1  0.51616405  0.94184700  0.69569099  1
  O2-  O564  1  0.82554159  0.14698587  0.01439154  1
  O2-  O565  1  0.84109565  0.17955748  0.34233402  1
  O2-  O566  1  0.82488282  0.16496597  0.68891178  1
  O2-  O567  1  0.83675976  0.40672969  0.01750433  1
  O2-  O568  1  0.81581408  0.40754011  0.35222201  1
  O2-  O569  1  0.84082967  0.42793320  0.67523844  1
  O2-  O570  1  0.83082351  0.67507465  0.01885244  1
  O2-  O571  1  0.83654126  0.66984836  0.34687857  1
  O2-  O572  1  0.82602798  0.66341724  0.69852731  1
  O2-  O573  1  0.83553055  0.91716750  0.01879955  1
  O2-  O574  1  0.82721950  0.91551788  0.34506374  1
  O2-  O575  1  0.83818753  0.91510840  0.68832906  1
