# generated using pymatgen
data_H2O
_symmetry_space_group_name_H-M   'P 1'
_cell_length_a   17.98682764
_cell_length_b   17.97718409
_cell_length_c   21.98526350
_cell_angle_alpha   90.00670143
_cell_angle_beta   90.00132014
_cell_angle_gamma   119.99836731
_symmetry_Int_Tables_number   1
_chemical_formula_structural   H2O
_chemical_formula_sum   'H384 O192'
_cell_volume   6156.66730036
_cell_formula_units_Z   192
loop_
 _symmetry_equiv_pos_site_id
 _symmetry_equiv_pos_as_xyz
  1  'x, y, z'
loop_
 _atom_type_symbol
 _atom_type_oxidation_number
  H+  1.0
  O2-  -2.0
loop_
 _atom_site_type_symbol
 _atom_site_label
 _atom_site_symmetry_multiplicity
 _atom_site_fract_x
 _atom_site_fract_y
 _atom_site_fract_z
 _atom_site_occupancy
  H+  H0  1  0.35963668  0.20286255  0.50121217  1
  H+  H1  1  0.82782538  0.42030623  0.39546023  1
  H+  H2  1  0.36186945  0.48183417  0.67618965  1
  H+  H3  1  0.22986122  0.61039969  0.01960527  1
  H+  H4  1  0.77852313  0.62130087  0.66820232  1
  H+  H5  1  0.02824153  0.14153901  0.49371525  1
  H+  H6  1  0.39173882  0.03773679  0.65349958  1
  H+  H7  1  0.38972004  0.10495085  0.98819924  1
  H+  H8  1  0.61089755  0.48189951  0.49119090  1
  H+  H9  1  0.61395887  0.39174636  0.33964529  1
  H+  H10  1  0.84900513  0.34113116  0.50004471  1
  H+  H11  1  0.26015192  0.13418786  0.34848302  1
  H+  H12  1  0.99067648  0.37234917  0.99520865  1
  H+  H13  1  0.14970458  1.02710923  -0.01437809  1
  H+  H14  1  0.11161053  0.95418585  0.50039266  1
  H+  H15  1  0.63011267  0.61770364  1.00809360  1
  H+  H16  1  0.11451456  0.09367086  0.33715923  1
  H+  H17  1  0.85650680  0.88125397  1.03103108  1
  H+  H18  1  0.46314402  0.42388207  0.61414526  1
  H+  H19  1  0.73183588  0.84656926  0.31640811  1
  H+  H20  1  0.65912415  -0.00018308  0.98814850  1
  H+  H21  1  0.48884497  0.61912812  0.66251704  1
  H+  H22  1  0.89182702  0.76523527  0.33259134  1
  H+  H23  1  0.12715551  0.09304212  0.50296844  1
  H+  H24  1  0.36285446  0.90018717  0.16988327  1
  H+  H25  1  0.39164817  0.61165735  0.18256990  1
  H+  H26  1  0.53119792  0.88596304  1.00946691  1
  H+  H27  1  0.62598595  0.87953297  0.83617843  1
  H+  H28  1  0.52041180  0.14644245  0.48618711  1
  H+  H29  1  0.62639103  0.63880804  0.67228132  1
  H+  H30  1  0.14064664  0.54342540  0.51984523  1
  H+  H31  1  0.83101963  0.16406354  0.75456894  1
  H+  H32  1  0.13724022  0.67372924  0.50697877  1
  H+  H33  1  0.61497518  0.63489156  0.82894495  1
  H+  H34  1  0.07855360  0.62708289  0.98572559  1
  H+  H35  1  0.48745295  0.13202063  0.99592460  1
  H+  H36  1  0.11482673  0.75783383  -0.01402067  1
  H+  H37  1  0.82212909  0.64103487  0.73373768  1
  H+  H38  1  0.53387361  0.14011604  0.66699594  1
  H+  H39  1  0.76665174  0.37267756  0.82531360  1
  H+  H40  1  0.39752025  0.36069105  0.84116270  1
  H+  H41  1  0.16462939  0.08453377  0.89928705  1
  H+  H42  1  0.77466476  0.13654941  0.01417913  1
  H+  H43  1  0.73618704  0.37709192  0.17522273  1
  H+  H44  1  0.95408528  0.35765605  0.33354995  1
  H+  H45  1  0.76863502  0.11692721  0.36119887  1
  H+  H46  1  0.97240172  0.11389333  0.65054439  1
  H+  H47  1  0.49054563  0.35718461  0.99273733  1
  H+  H48  1  0.13247758  0.86267884  0.99167530  1
  H+  H49  1  0.87207054  0.47601385  0.48627574  1
  H+  H50  1  0.38844456  -0.01516756  1.00638657  1
  H+  H51  1  0.78254071  0.18285163  0.48481915  1
  H+  H52  1  0.77985705  0.37815256  0.66722789  1
  H+  H53  1  0.14925618  0.09870583  0.18518109  1
  H+  H54  1  0.86556185  0.72291741  0.50702506  1
  H+  H55  1  0.38304994  0.39886873  0.35539713  1
  H+  H56  1  0.06854407  0.49763267  0.97059415  1
  H+  H57  1  0.40683642  0.65547493  0.01293432  1
  H+  H58  1  0.64613689  0.27369050  0.65598885  1
  H+  H59  1  0.38780274  0.74070345  0.81505690  1
  H+  H60  1  0.63696682  0.61334816  0.34912921  1
  H+  H61  1  0.71895106  0.84561161  0.00594123  1
  H+  H62  1  0.87026187  0.51937514  0.99658340  1
  H+  H63  1  0.33768121  0.15895210  0.06726352  1
  H+  H64  1  -0.02775704  0.36752250  0.16889339  1
  H+  H65  1  0.25221052  0.34561638  0.35638314  1
  H+  H66  1  0.48285918  0.61171074  0.83194852  1
  H+  H67  1  0.61381240  0.15711156  0.48207536  1
  H+  H68  1  0.59332601  0.41343297  0.73346374  1
  H+  H69  1  0.62964435  0.02417150  0.63804801  1
  H+  H70  1  0.39735980  0.61637712  0.82638067  1
  H+  H71  1  0.85476981  0.72104487  0.81432458  1
  H+  H72  1  0.57107341  0.05065035  0.04820722  1
  H+  H73  1  0.09288170  0.18541539  0.35103468  1
  H+  H74  1  0.38882660  0.37937125  1.00073298  1
  H+  H75  1  0.60009446  0.72292197  0.15471133  1
  H+  H76  1  0.86048563  0.38093196  0.82388877  1
  H+  H77  1  0.39095873  0.38925178  0.66418768  1
  H+  H78  1  0.93251429  0.81528505  0.59476114  1
  H+  H79  1  0.06136205  0.35865260  0.39446085  1
  H+  H80  1  0.63968858  0.37694480  0.17564154  1
  H+  H81  1  0.67628319  0.58016722  0.24094589  1
  H+  H82  1  0.61743933  0.72322410  0.37519328  1
  H+  H83  1  0.40411703  0.87346610  -0.00613837  1
  H+  H84  1  0.17688338  0.64616044  0.83534800  1
  H+  H85  1  1.00324011  0.08487568  0.15944321  1
  H+  H86  1  0.89615219  0.85875758  0.55447721  1
  H+  H87  1  0.28581206  0.11987419  0.17777407  1
  H+  H88  1  0.88407924  0.71505174  0.16274534  1
  H+  H89  1  0.24060752  0.37784463  0.14280372  1
  H+  H90  1  0.12722240  1.01799770  0.83624057  1
  H+  H91  1  0.21643274  0.09314521  0.50714195  1
  H+  H92  1  0.13828572  0.85809195  0.33011362  1
  H+  H93  1  0.38967016  0.16441004  0.66677367  1
  H+  H94  1  0.61048933  0.15001381  0.33455560  1
  H+  H95  1  0.67173411  0.10048066  0.54844452  1
  H+  H96  1  0.03807814  0.63569656  0.68195888  1
  H+  H97  1  0.60955338  0.97791338  0.16753962  1
  H+  H98  1  0.90571498  0.09037279  0.89561070  1
  H+  H99  1  0.40185654  0.62319911  0.65550073  1
  H+  H100  1  0.12749816  0.98501569  0.15890527  1
  H+  H101  1  0.47753628  0.36193663  0.33288948  1
  H+  H102  1  0.15539187  0.38868408  0.29824785  1
  H+  H103  1  0.23757431  0.87433883  0.84439896  1
  H+  H104  1  0.39271062  0.35841582  0.17433694  1
  H+  H105  1  0.60100790  0.88361081  0.16847840  1
  H+  H106  1  0.72167063  0.11433052  0.18181088  1
  H+  H107  1  0.62699663  0.03235214  0.33581422  1
  H+  H108  1  0.38872669  1.01922654  0.50358834  1
  H+  H109  1  0.61643900  0.08449952  1.04138860  1
  H+  H110  1  0.62665392  0.72746958  0.66667854  1
  H+  H111  1  0.90151025  0.79078101  0.99001401  1
  H+  H112  1  0.48050426  0.61865125  0.34158299  1
  H+  H113  1  0.66321481  0.82431675  0.91157090  1
  H+  H114  1  0.38906333  0.03212026  0.30919915  1
  H+  H115  1  0.93857199  0.59507656  0.82894395  1
  H+  H116  1  0.60062205  0.71644010  0.00257978  1
  H+  H117  1  0.80102079  0.04259128  -0.02739789  1
  H+  H118  1  0.15076429  0.78559329  0.83734063  1
  H+  H119  1  0.86575002  0.26807510  0.99103706  1
  H+  H120  1  1.00684919  0.85331311  0.17665743  1
  H+  H121  1  0.40022194  0.86944583  0.83539241  1
  H+  H122  1  0.87087952  0.24734612  0.65198900  1
  H+  H123  1  0.11528424  0.72803760  0.34516469  1
  H+  H124  1  0.86709850  0.64771179  -0.00244370  1
  H+  H125  1  0.85031784  0.38821671  1.00536811  1
  H+  H126  1  0.22456024  0.36807541  0.51139123  1
  H+  H127  1  0.87662913  0.37191620  0.31892222  1
  H+  H128  1  0.11627728  0.09338841  0.65469132  1
  H+  H129  1  0.15180194  0.29603429  0.15814539  1
  H+  H130  1  0.64653364  1.02030939  0.83439718  1
  H+  H131  1  0.52109831  0.14023092  0.15930439  1
  H+  H132  1  0.12019322  0.72616373  0.15054657  1
  H+  H133  1  0.78456521  0.88531780  0.60748858  1
  H+  H134  1  0.03817011  0.89782243  0.00229101  1
  H+  H135  1  0.85237133  0.00345177  1.00358742  1
  H+  H136  1  0.86292551  0.14659090  0.02168866  1
  H+  H137  1  0.85676346  0.38335531  0.16071547  1
  H+  H138  1  0.13525185  1.01408207  0.33573188  1
  H+  H139  1  0.70879016  0.86844318  0.17146756  1
  H+  H140  1  0.62253574  0.76987280  0.48390341  1
  H+  H141  1  0.37307708  0.64773117  0.49781989  1
  H+  H142  1  0.41848534  0.74975270  0.01370149  1
  H+  H143  1  0.29604488  0.36406676  0.00765204  1
  H+  H144  1  0.64141064  0.77013826  0.84845445  1
  H+  H145  1  0.37851114  0.48128581  0.16184795  1
  H+  H146  1  0.61584006  0.46815170  0.82846737  1
  H+  H147  1  0.48845139  0.62586278  0.49716839  1
  H+  H148  1  0.64597317  0.05631372  0.48321873  1
  H+  H149  1  0.35399190  0.71856830  0.34487161  1
  H+  H150  1  0.39780788  0.27061919  0.83820393  1
  H+  H151  1  0.12313422  0.59685382  0.37288978  1
  H+  H152  1  0.63863032  0.35381770  0.84064301  1
  H+  H153  1  0.87584633  0.34527321  0.65586293  1
  H+  H154  1  0.61842537  0.39667421  0.49228589  1
  H+  H155  1  0.88515235  1.02247683  0.84549922  1
  H+  H156  1  0.34617048  0.42110331  0.45692090  1
  H+  H157  1  0.68619079  0.59997336  1.05390111  1
  H+  H158  1  1.00034138  0.84069221  0.68203444  1
  H+  H159  1  0.90783126  0.74979541  0.67988465  1
  H+  H160  1  0.85880816  0.12709455  0.65977658  1
  H+  H161  1  0.60651991  0.89570158  0.41615174  1
  H+  H162  1  0.49898725  0.88792667  0.65147339  1
  H+  H163  1  0.37903287  0.86273107  0.49235957  1
  H+  H164  1  0.35275258  0.98402656  0.16034149  1
  H+  H165  1  0.63784217  0.61904991  0.49400379  1
  H+  H166  1  0.97635567  0.61870168  0.33786669  1
  H+  H167  1  0.19799691  0.38242444  1.00840771  1
  H+  H168  1  1.01801087  0.13584694  0.82757640  1
  H+  H169  1  0.82565094  0.93946545  0.52055059  1
  H+  H170  1  0.14062434  0.15199369  0.01229981  1
  H+  H171  1  0.53015178  0.38709955  0.16641279  1
  H+  H172  1  0.37567689  0.14290261  0.82453674  1
  H+  H173  1  0.12095009  0.11197027  0.83812290  1
  H+  H174  1  0.88959940  0.27284735  0.82775429  1
  H+  H175  1  0.73510096  0.60862267  0.18074159  1
  H+  H176  1  0.89349946  0.11690540  0.18200958  1
  H+  H177  1  0.43261719  0.84248623  0.93277693  1
  H+  H178  1  0.13204706  0.48133298  0.82947182  1
  H+  H179  1  0.10170483  0.22922505  0.67362220  1
  H+  H180  1  0.36278178  0.89387444  0.34067661  1
  H+  H181  1  0.72080655  0.60958363  0.84397123  1
  H+  H182  1  0.14477649  0.61927120  0.14368230  1
  H+  H183  1  0.83444381  0.90373474  0.25570228  1
  H+  H184  1  0.76051496  0.38443791  0.00701218  1
  H+  H185  1  0.37736120  0.48494122  0.35566450  1
  H+  H186  1  0.20746066  0.58958121  0.37030668  1
  H+  H187  1  0.02334411  0.86785317  0.50847248  1
  H+  H188  1  0.27374474  0.89226326  0.33633265  1
  H+  H189  1  0.84473046  0.62749690  0.83047460  1
  H+  H190  1  0.14834724  0.89717169  0.68313260  1
  H+  H191  1  0.87451504  0.07124441  0.49633977  1
  H+  H192  1  0.38045914  0.10348505  0.50312125  1
  H+  H193  1  0.86622671  1.01909976  0.17694486  1
  H+  H194  1  0.35095277  0.22334577  0.34962733  1
  H+  H195  1  0.36694624  0.47264450  0.82639935  1
  H+  H196  1  0.64631043  0.36271037  0.65855703  1
  H+  H197  1  0.23824021  0.11598345  -0.01456665  1
  H+  H198  1  0.28285176  0.63737038  0.66458742  1
  H+  H199  1  0.11445031  0.40537301  0.52075387  1
  H+  H200  1  0.13851709  0.28070143  0.49919646  1
  H+  H201  1  0.11893950  0.81871448  0.50408027  1
  H+  H202  1  0.22926488  0.25215119  0.34444766  1
  H+  H203  1  0.11094153  0.22223618  0.82963836  1
  H+  H204  1  0.62220642  0.47762207  0.16937032  1
  H+  H205  1  0.78187846  0.88664402  0.85432187  1
  H+  H206  1  0.86054623  0.50123778  0.83583937  1
  H+  H207  1  0.53244570  0.39113966  0.67555609  1
  H+  H208  1  0.64113834  0.11704720  0.64741425  1
  H+  H209  1  0.37679319  0.69023062  0.10711113  1
  H+  H210  1  -0.01252697  0.60644108  0.17619769  1
  H+  H211  1  0.89695708  0.85314557  0.31161730  1
  H+  H212  1  1.02684556  0.87462039  0.34690655  1
  H+  H213  1  0.63049811  0.11059803  0.17574764  1
  H+  H214  1  0.12727980  0.63338328  0.67810266  1
  H+  H215  1  0.57845718  0.17319613  0.10084703  1
  H+  H216  1  0.12234544  0.83975045  0.18117671  1
  H+  H217  1  1.00187122  0.64098755  0.99951698  1
  H+  H218  1  0.48255245  0.34332946  0.51009240  1
  H+  H219  1  0.86248377  0.13720638  0.81506910  1
  H+  H220  1  0.72613121  0.61758382  0.50432482  1
  H+  H221  1  0.43152336  0.32574381  0.93137020  1
  H+  H222  1  0.91032585  0.51847529  0.66791065  1
  H+  H223  1  0.30048855  0.65191129  0.81189505  1
  H+  H224  1  0.10685315  0.35856292  -0.01121305  1
  H+  H225  1  0.24637287  0.61665918  0.98746720  1
  H+  H226  1  0.89387711  0.61063717  0.50013578  1
  H+  H227  1  0.11007254  0.47965627  0.13623550  1
  H+  H228  1  0.85909762  0.48665388  0.33931326  1
  H+  H229  1  0.27987260  0.38179971  0.83106034  1
  H+  H230  1  0.51263358  0.62375590  0.99507711  1
  H+  H231  1  0.12645399  0.40022055  0.28101127  1
  H+  H232  1  0.77261676  0.63700315  0.35082089  1
  H+  H233  1  0.52811114  0.37915610  0.82669132  1
  H+  H234  1  0.90200387  0.16920144  0.50354286  1
  H+  H235  1  0.17038425  0.77571375  0.67470595  1
  H+  H236  1  0.37776125  0.77166551  0.64118947  1
  H+  H237  1  0.38707462  0.51011458  -0.01908168  1
  H+  H238  1  0.06599489  0.64404399  0.82658742  1
  H+  H239  1  0.53141213  0.23132311  0.05060575  1
  H+  H240  1  0.61536715  0.48027406  0.01436919  1
  H+  H241  1  0.36046985  0.63307424  0.34446830  1
  H+  H242  1  0.69656093  0.86966173  0.49014770  1
  H+  H243  1  0.50582870  0.90841652  0.47011367  1
  H+  H244  1  0.38899301  0.78429388  0.18221583  1
  H+  H245  1  0.72861274  0.37497132  0.32559780  1
  H+  H246  1  0.87968840  0.86980232  0.17950994  1
  H+  H247  1  0.29101127  0.64902224  0.14745547  1
  H+  H248  1  0.46982364  0.86030337  0.34210711  1
  H+  H249  1  0.12151352  0.89707213  0.83069673  1
  H+  H250  1  0.87168667  0.97578160  0.61030979  1
  H+  H251  1  0.63498097  0.52526028  0.33807089  1
  H+  H252  1  0.14764106  0.52094467  0.65586983  1
  H+  H253  1  0.26370853  0.87061713  0.48531445  1
  H+  H254  1  -0.02354361  0.08888314  0.33897651  1
  H+  H255  1  0.86598925  0.88836332  0.82863904  1
  H+  H256  1  0.61673322  0.22006157  0.82531299  1
  H+  H257  1  0.22281768  0.86502359  0.17192183  1
  H+  H258  1  0.64477521  0.86002266  0.64204199  1
  H+  H259  1  0.33425860  0.66575784  0.43763804  1
  H+  H260  1  0.36886548  -0.02181143  0.82687800  1
  H+  H261  1  0.39460529  0.26967169  0.17907216  1
  H+  H262  1  0.37125041  0.22189021  0.00928763  1
  H+  H263  1  0.05394491  0.98939116  0.12915994  1
  H+  H264  1  0.84497609  0.09936392  0.36479629  1
  H+  H265  1  0.32304098  0.85259515  0.66301677  1
  H+  H266  1  0.76739421  0.12628563  0.65730343  1
  H+  H267  1  0.64306715  0.52006599  0.65599358  1
  H+  H268  1  0.78581981  0.66049677  0.00025569  1
  H+  H269  1  0.86051887  0.23030627  0.17185077  1
  H+  H270  1  0.07879064  0.45387326  0.38622653  1
  H+  H271  1  0.10044711  0.41924903  0.77280604  1
  H+  H272  1  0.63246994  0.85112565  1.00420335  1
  H+  H273  1  0.64869901  0.85371218  0.32663175  1
  H+  H274  1  0.65810394  0.08315267  0.27279668  1
  H+  H275  1  0.62315132  0.27113867  1.00031462  1
  H+  H276  1  0.91595637  0.82884617  0.75275428  1
  H+  H277  1  0.86169370  0.63573297  0.34710704  1
  H+  H278  1  0.17273289  0.58399850  0.19904854  1
  H+  H279  1  0.64331163  0.36853450  0.98801491  1
  H+  H280  1  0.84533617  0.82561409  0.16989752  1
  H+  H281  1  0.49066515  0.86984769  0.83533740  1
  H+  H282  1  0.14329716  0.35947542  0.84326204  1
  H+  H283  1  0.12549249  0.23091741  0.02279788  1
  H+  H284  1  0.61729111  0.13149509  0.82369060  1
  H+  H285  1  0.08705826  0.68740816  0.41058198  1
  H+  H286  1  0.38713384  0.25042590  0.66927049  1
  H+  H287  1  0.63609475  0.28495672  0.49979081  1
  H+  H288  1  0.42608413  0.08829452  0.59106824  1
  H+  H289  1  0.16663358  0.32912216  0.90398468  1
  H+  H290  1  0.23392510  0.62870011  0.51238455  1
  H+  H291  1  0.32457200  0.91658651  0.42736314  1
  H+  H292  1  0.18469623  0.64695246  0.27242331  1
  H+  H293  1  0.11079268  0.67649144  0.75983254  1
  H+  H294  1  0.14338035  0.05881067  0.59657284  1
  H+  H295  1  0.17467660  0.59077123  0.60238648  1
  H+  H296  1  0.08440088  0.21612092  0.23273919  1
  H+  H297  1  0.12450897  0.23649961  0.25189820  1
  H+  H298  1  0.35102871  0.68076566  0.71847977  1
  H+  H299  1  0.12080476  0.97071024  0.67340570  1
  H+  H300  1  0.13866858  0.61072659  0.27033880  1
  H+  H301  1  0.97516737  0.86078728  0.81026985  1
  H+  H302  1  0.47656404  0.12147883  0.30723922  1
  H+  H303  1  0.48003619  0.61268029  0.17634716  1
  H+  H304  1  0.42969320  0.58853630  0.27698995  1
  H+  H305  1  0.41981335  0.83787955  0.27764396  1
  H+  H306  1  0.92575729  0.58835679  0.27424355  1
  H+  H307  1  0.89676147  0.57070741  0.93323923  1
  H+  H308  1  0.39571423  0.10375056  0.22005114  1
  H+  H309  1  0.16649852  0.82651095  0.26945385  1
  H+  H310  1  0.11188577  0.55905627  0.91408195  1
  H+  H311  1  0.86771598  0.96743918  0.31292739  1
  H+  H312  1  1.03265841  0.15376355  0.94306952  1
  H+  H313  1  0.23439195  0.64750762  0.89117194  1
  H+  H314  1  0.47484527  0.87394962  0.18206514  1
  H+  H315  1  0.67212617  0.33994156  0.56114334  1
  H+  H316  1  0.42611571  0.08119227  0.89802774  1
  H+  H317  1  0.82422679  0.41454643  0.10214886  1
  H+  H318  1  0.66791659  0.58123860  0.59673317  1
  H+  H319  1  0.83470267  0.39912684  0.72864850  1
  H+  H320  1  0.80927885  0.91160396  0.08423430  1
  H+  H321  1  0.44129087  0.60392720  0.56349448  1
  H+  H322  1  0.41167567  0.57245187  0.92214228  1
  H+  H323  1  0.91657018  0.07766391  0.27790786  1
  H+  H324  1  0.58259730  0.41771674  0.40116916  1
  H+  H325  1  0.65171989  0.81511056  0.23111313  1
  H+  H326  1  0.59191444  0.16514539  0.72751539  1
  H+  H327  1  0.58487101  0.91420955  0.07239408  1
  H+  H328  1  0.76490978  0.97203670  0.12554599  1
  H+  H329  1  0.09887204  0.93140437  0.06033459  1
  H+  H330  1  0.81198181  0.90047398  0.72100763  1
  H+  H331  1  0.92166749  0.10710550  0.58805736  1
  H+  H332  1  0.89673317  0.52091686  0.17989634  1
  H+  H333  1  0.33271036  0.41901899  0.73388299  1
  H+  H334  1  0.17584577  0.07719462  0.24979772  1
  H+  H335  1  0.96733960  0.80874056  0.23985603  1
  H+  H336  1  0.84115980  0.68274576  0.09822846  1
  H+  H337  1  0.41556860  0.33304687  0.27551121  1
  H+  H338  1  0.78469683  0.92049519  0.72707933  1
  H+  H339  1  0.59710621  0.67263971  0.76786418  1
  H+  H340  1  0.05185865  0.42103676  0.48152610  1
  H+  H341  1  0.35326875  0.92408236  0.06466830  1
  H+  H342  1  0.83775168  0.67208169  0.44276050  1
  H+  H343  1  0.48147598  0.10723641  0.83655148  1
  H+  H344  1  0.89414668  0.32210769  0.92740332  1
  H+  H345  1  1.00482125  0.17224075  0.95150949  1
  H+  H346  1  0.39039643  0.77856402  0.49476954  1
  H+  H347  1  0.08221942  0.67201858  0.08817260  1
  H+  H348  1  0.88407318  0.30459353  0.58812609  1
  H+  H349  1  0.66760034  0.32451567  0.90132971  1
  H+  H350  1  0.10254825  0.92627616  0.76641851  1
  H+  H351  1  0.73115639  0.11247238  0.83126714  1
  H+  H352  1  0.07429504  0.12305177  0.10489084  1
  H+  H353  1  0.60649758  0.90372067  0.77097772  1
  H+  H354  1  0.68972234  0.06054456  0.92732586  1
  H+  H355  1  0.07658925  0.16712619  0.72956322  1
  H+  H356  1  0.64954466  0.82038521  0.57891468  1
  H+  H357  1  0.54376237  0.94472493  0.70773946  1
  H+  H358  1  0.77485638  0.39528217  0.48848505  1
  H+  H359  1  0.56497302  0.66018357  0.09724579  1
  H+  H360  1  0.98668948  0.62083154  0.50218516  1
  H+  H361  1  0.97764965  0.36203405  0.83695122  1
  H+  H362  1  0.07488136  0.14132150  0.43227538  1
  H+  H363  1  0.92102476  0.86787707  0.94405896  1
  H+  H364  1  0.67388396  0.34934169  0.24166972  1
  H+  H365  1  0.08336197  0.89894668  0.40779847  1
  H+  H366  1  0.82864530  0.17133259  0.11350585  1
  H+  H367  1  0.36565602  0.48251544  0.51146219  1
  H+  H368  1  0.32557851  0.90911610  0.77139542  1
  H+  H369  1  0.40197452  0.83463338  0.58258741  1
  H+  H370  1  0.58769419  0.41674432  0.07080501  1
  H+  H371  1  0.83501438  0.94346989  0.44779755  1
  H+  H372  1  0.91766342  0.34449065  0.23247025  1
  H+  H373  1  0.16318082  0.83203714  0.92701064  1
  H+  H374  1  0.35604131  0.18244398  0.76581771  1
  H+  H375  1  0.11109060  0.39171576  0.13312405  1
  H+  H376  1  0.66213032  0.57611123  0.90328473  1
  H+  H377  1  0.63746758  0.28287187  0.32173138  1
  H+  H378  1  0.57668599  0.18276306  0.38961909  1
  H+  H379  1  0.41717198  0.31623618  0.56524124  1
  H+  H380  1  0.36269590  0.42686809  0.09964162  1
  H+  H381  1  0.05784946  0.41226197  0.05157273  1
  H+  H382  1  0.90132452  0.60182006  0.67245739  1
  H+  H383  1  0.32136167  0.15203677  0.43855323  1
  O2-  O384  1  0.05352523  0.08378446  0.14070599  1
  O2-  O385  1  0.08489599  0.15466362  0.47827581  1
  O2-  O386  1  0.07914560  0.16200107  0.81327929  1
  O2-  O387  1  0.07340681  0.41727438  0.12640464  1
  O2-  O388  1  0.08416998  0.43927751  0.51998765  1
  O2-  O389  1  0.09626482  0.42087097  0.81781302  1
  O2-  O390  1  0.09082202  0.66714732  0.13224462  1
  O2-  O391  1  0.10546714  0.70325931  0.49111299  1
  O2-  O392  1  0.12017780  0.68531537  0.80788791  1
  O2-  O393  1  0.07808509  0.94957651  0.13133486  1
  O2-  O394  1  0.08055227  0.89148230  0.48880153  1
  O2-  O395  1  0.09258994  0.92678636  0.81242539  1
  O2-  O396  1  0.34527224  0.15085981  0.15775191  1
  O2-  O397  1  0.32217652  0.14362170  0.48431416  1
  O2-  O398  1  0.35130513  0.17880470  0.81113208  1
  O2-  O399  1  0.35158574  0.42162667  0.14399518  1
  O2-  O400  1  0.33787694  0.42079965  0.50156497  1
  O2-  O401  1  0.33909456  0.41089133  0.81433887  1
  O2-  O402  1  0.35442651  0.68236014  0.15032767  1
  O2-  O403  1  0.33878399  0.67441657  0.48286732  1
  O2-  O404  1  0.36008839  0.68162070  0.79629295  1
  O2-  O405  1  0.32814567  0.92267772  0.14975381  1
  O2-  O406  1  0.32390107  0.90955250  0.47299825  1
  O2-  O407  1  0.33520920  0.91466657  0.81579662  1
  O2-  O408  1  0.57883657  0.15725679  0.14503884  1
  O2-  O409  1  0.57939680  0.18412004  0.46932895  1
  O2-  O410  1  0.58735051  0.16112307  0.80688199  1
  O2-  O411  1  0.59010213  0.41708616  0.15014516  1
  O2-  O412  1  0.58281516  0.42109492  0.47661090  1
  O2-  O413  1  0.58956582  0.40908414  0.81172007  1
  O2-  O414  1  0.56843449  0.66148626  0.14208764  1
  O2-  O415  1  0.58754800  0.66955341  0.45802388  1
  O2-  O416  1  0.59035633  0.66999969  0.81320093  1
  O2-  O417  1  0.57534045  0.91772827  0.15142874  1
  O2-  O418  1  0.55594187  0.95883828  0.44848483  1
  O2-  O419  1  0.59927525  0.91081462  0.81417851  1
  O2-  O420  1  0.82984404  0.16865622  0.15869148  1
  O2-  O421  1  0.84519335  0.22867286  0.48334460  1
  O2-  O422  1  0.83334718  0.16873570  0.79986982  1
  O2-  O423  1  0.82494914  0.41379959  0.14773468  1
  O2-  O424  1  0.83392838  0.41463556  0.47246099  1
  O2-  O425  1  0.82687866  0.40771460  0.80824115  1
  O2-  O426  1  0.82855211  0.67842076  0.14195119  1
  O2-  O427  1  0.83381050  0.66510212  0.48811472  1
  O2-  O428  1  0.81593975  0.65712647  0.81211218  1
  O2-  O429  1  0.78912583  0.93893773  0.14312901  1
  O2-  O430  1  0.80719426  0.95531201  0.48138609  1
  O2-  O431  1  0.84564127  0.91985248  0.85432603  1
  O2-  O432  1  0.18809456  0.08080004  0.20379044  1
  O2-  O433  1  0.15438137  0.05982195  0.51912436  1
  O2-  O434  1  0.15236521  0.08004045  0.85299048  1
  O2-  O435  1  0.17747916  0.34946567  0.13496200  1
  O2-  O436  1  0.16075578  0.33981996  0.51394354  1
  O2-  O437  1  0.16926043  0.32558882  0.85888629  1
  O2-  O438  1  0.17520969  0.58618464  0.15464903  1
  O2-  O439  1  0.17533776  0.60749233  0.52969560  1
  O2-  O440  1  0.20321796  0.61387475  0.85550964  1
  O2-  O441  1  0.16492718  0.82187844  0.18857473  1
  O2-  O442  1  0.15436045  0.79146553  0.51503222  1
  O2-  O443  1  0.17497826  0.84306663  0.85737460  1
  O2-  O444  1  0.38653800  0.10020563  0.17370916  1
  O2-  O445  1  0.41884546  0.07990709  0.51744863  1
  O2-  O446  1  0.42136193  0.07686367  0.85224400  1
  O2-  O447  1  0.42368233  0.33035455  0.19228355  1
  O2-  O448  1  0.43496286  0.29357798  0.53126894  1
  O2-  O449  1  0.42959916  0.33216900  0.85571608  1
  O2-  O450  1  0.42065130  0.57979295  0.19647575  1
  O2-  O451  1  0.43215612  0.60337428  0.51882338  1
  O2-  O452  1  0.42092642  0.58134814  0.84417113  1
  O2-  O453  1  0.41499815  0.84394151  0.19927644  1
  O2-  O454  1  0.41845373  0.84138925  0.50662339  1
  O2-  O455  1  0.42970747  0.83771224  0.84890368  1
  O2-  O456  1  0.66015429  0.08122961  0.19471300  1
  O2-  O457  1  0.67656330  0.11259420  0.50387876  1
  O2-  O458  1  0.67289878  0.07997189  0.85034874  1
  O2-  O459  1  0.67501975  0.35077910  0.19370727  1
  O2-  O460  1  0.67123038  0.34500437  0.51601577  1
  O2-  O461  1  0.66889035  0.32320012  0.85510820  1
  O2-  O462  1  0.67823130  0.56601056  0.19793035  1
  O2-  O463  1  0.66395610  0.58855292  0.51617017  1
  O2-  O464  1  0.65965006  0.57569041  0.85894462  1
  O2-  O465  1  0.64715561  0.82437758  0.18750629  1
  O2-  O466  1  0.63779575  0.82683144  0.50336697  1
  O2-  O467  1  0.66871187  0.82949476  0.86579080  1
  O2-  O468  1  0.91364893  0.07667284  0.19398066  1
  O2-  O469  1  0.91791404  0.12587978  0.51548839  1
  O2-  O470  1  0.91167775  0.08702906  0.85107107  1
  O2-  O471  1  0.91333082  0.33909912  0.18607556  1
  O2-  O472  1  0.84683582  0.29236247  0.52577427  1
  O2-  O473  1  0.91576359  0.33104216  0.84718401  1
  O2-  O474  1  0.93440253  0.57612354  0.20036202  1
  O2-  O475  1  0.92504953  0.57854391  0.50503185  1
  O2-  O476  1  0.88608336  0.56268569  0.85225259  1
  O2-  O477  1  0.98728030  0.79956758  0.19976812  1
  O2-  O478  1  0.92389279  0.82347547  0.55098146  1
  O2-  O479  1  0.91357216  0.82934497  0.79837566  1
  O2-  O480  1  0.15726932  0.07302247  0.31973832  1
  O2-  O481  1  0.13692419  0.05454167  0.64184258  1
  O2-  O482  1  0.17834350  0.08652022  0.96833798  1
  O2-  O483  1  0.20506260  0.28975785  0.34092315  1
  O2-  O484  1  0.12969798  0.35481669  0.66792811  1
  O2-  O485  1  0.15121022  0.33967571  0.98351604  1
  O2-  O486  1  0.14585106  0.55775436  0.38041846  1
  O2-  O487  1  0.17565457  0.58312475  0.64823422  1
  O2-  O488  1  0.07030947  0.54614679  0.94685655  1
  O2-  O489  1  0.16993640  0.82872069  0.31464146  1
  O2-  O490  1  0.20579713  0.83820817  0.66355039  1
  O2-  O491  1  0.15321696  0.82327848  0.97338327  1
  O2-  O492  1  0.42217982  0.08511937  0.28504407  1
  O2-  O493  1  0.43128569  0.09448543  0.63718196  1
  O2-  O494  1  0.43043227  0.08654017  0.97473736  1
  O2-  O495  1  0.41564861  0.33335374  0.32058558  1
  O2-  O496  1  0.43572077  0.37676936  0.64320131  1
  O2-  O497  1  0.42994237  0.32400640  0.97736800  1
  O2-  O498  1  0.42319146  0.58926225  0.32222756  1
  O2-  O499  1  0.43060720  0.58988747  0.64398772  1
  O2-  O500  1  0.41176600  0.57062229  0.96758350  1
  O2-  O501  1  0.41270781  0.83185453  0.32308249  1
  O2-  O502  1  0.39755881  0.83253723  0.62834967  1
  O2-  O503  1  0.43495375  0.84277953  0.97770946  1
  O2-  O504  1  0.65794047  0.08996719  0.31814455  1
  O2-  O505  1  0.66796548  0.08576151  0.62733427  1
  O2-  O506  1  0.70788517  0.05058008  0.96777376  1
  O2-  O507  1  0.66814384  0.34502472  0.30767572  1
  O2-  O508  1  0.67778276  0.33464584  0.64146588  1
  O2-  O509  1  0.66797545  0.33214298  0.97644658  1
  O2-  O510  1  0.66741226  0.58804765  0.32753960  1
  O2-  O511  1  0.67357285  0.58113481  0.64200923  1
  O2-  O512  1  0.67194637  0.59371667  1.01056622  1
  O2-  O513  1  0.66692103  0.81187849  0.31920240  1
  O2-  O514  1  0.66665807  0.82537685  0.62342291  1
  O2-  O515  1  0.66002891  0.81890916  0.98668028  1
  O2-  O516  1  0.91168791  0.06115885  0.32148750  1
  O2-  O517  1  0.91418389  0.08571679  0.63144264  1
  O2-  O518  1  0.86064697  0.05604297  0.98198062  1
  O2-  O519  1  0.90782922  0.34324392  0.30339942  1
  O2-  O520  1  0.89916439  0.30960858  0.63424041  1
  O2-  O521  1  0.89186034  0.32681283  0.97238007  1
  O2-  O522  1  0.91761712  0.58951974  0.31956931  1
  O2-  O523  1  0.94290128  0.58163263  0.66520860  1
  O2-  O524  1  0.90031226  0.57898336  0.97798885  1
  O2-  O525  1  0.93027059  0.82248087  0.31310592  1
  O2-  O526  1  0.93693141  0.81375830  0.67659896  1
  O2-  O527  1  0.93387395  0.85531200  0.98463171  1
  O2-  O528  1  0.12951551  0.18459296  0.04349168  1
  O2-  O529  1  0.06098371  0.12435853  0.36226951  1
  O2-  O530  1  0.07457733  0.16820307  0.68451756  1
  O2-  O531  1  0.05373836  0.40714785  0.00581444  1
  O2-  O532  1  0.03286681  0.39260929  0.39444925  1
  O2-  O533  1  0.10054958  0.40053749  0.69012256  1
  O2-  O534  1  0.06582768  0.66978812  0.00706438  1
  O2-  O535  1  0.08055005  0.67196047  0.36693910  1
  O2-  O536  1  0.10198944  0.66831530  0.69441013  1
  O2-  O537  1  0.09994986  0.92297635  0.01488790  1
  O2-  O538  1  0.08735586  0.90422478  0.36261577  1
  O2-  O539  1  0.10720450  0.91531407  0.69621543  1
  O2-  O540  1  0.33398522  0.16091739  0.02251374  1
  O2-  O541  1  0.31839288  0.16509721  0.36723780  1
  O2-  O542  1  0.36356287  0.19395547  0.68819965  1
  O2-  O543  1  0.35534248  0.40798655  0.01571649  1
  O2-  O544  1  0.35549716  0.42847147  0.37592558  1
  O2-  O545  1  0.33284642  0.42067377  0.68873132  1
  O2-  O546  1  0.41843268  0.70427329  0.03936791  1
  O2-  O547  1  0.32653887  0.65892208  0.36067642  1
  O2-  O548  1  0.34561891  0.67520574  0.67324340  1
  O2-  O549  1  0.35949501  0.92371947  0.02015510  1
  O2-  O550  1  0.33413401  0.92714153  0.35186607  1
  O2-  O551  1  0.28930909  0.86675238  0.69290385  1
  O2-  O552  1  0.56112487  0.20359516  0.03290123  1
  O2-  O553  1  0.58085942  0.18334902  0.34422059  1
  O2-  O554  1  0.59452850  0.16807124  0.68192552  1
  O2-  O555  1  0.58728843  0.41841416  0.02527063  1
  O2-  O556  1  0.58171686  0.41961242  0.35532690  1
  O2-  O557  1  0.59351124  0.41447819  0.68782054  1
  O2-  O558  1  0.57084377  0.65399285  0.01461334  1
  O2-  O559  1  0.58159447  0.66303509  0.38978382  1
  O2-  O560  1  0.59931768  0.67154966  0.68873938  1
  O2-  O561  1  0.59040023  0.91011946  0.02737056  1
  O2-  O562  1  0.57510224  0.92066519  0.39580361  1
  O2-  O563  1  0.55740465  0.92259911  0.67152210  1
  O2-  O564  1  0.83153441  0.17726512  0.03294421  1
  O2-  O565  1  0.80940268  0.11511815  0.38989407  1
  O2-  O566  1  0.82712882  0.15719716  0.67490683  1
  O2-  O567  1  0.82213624  0.41887095  0.02318085  1
  O2-  O568  1  0.82405816  0.42385853  0.35017261  1
  O2-  O569  1  0.83954380  0.39886281  0.68336792  1
  O2-  O570  1  0.84796655  0.68928986  0.00980716  1
  O2-  O571  1  0.83398535  0.66749555  0.36464952  1
  O2-  O572  1  0.83478898  0.64292389  0.68950631  1
  O2-  O573  1  0.81490232  0.90064410  0.03772225  1
  O2-  O574  1  0.83486015  0.90176862  0.30014364  1
  O2-  O575  1  0.84284187  0.91870194  0.58957490  1
