# generated using pymatgen
data_H2O
_symmetry_space_group_name_H-M   'P 1'
_cell_length_a   17.99173067
_cell_length_b   17.98925661
_cell_length_c   22.00210906
_cell_angle_alpha   90.00888243
_cell_angle_beta   89.99514108
_cell_angle_gamma   120.02885601
_symmetry_Int_Tables_number   1
_chemical_formula_structural   H2O
_chemical_formula_sum   'H384 O192'
_cell_volume   6165.30751615
_cell_formula_units_Z   192
loop_
 _symmetry_equiv_pos_site_id
 _symmetry_equiv_pos_as_xyz
  1  'x, y, z'
loop_
 _atom_type_symbol
 _atom_type_oxidation_number
  H+  1.0
  O2-  -2.0
loop_
 _atom_site_type_symbol
 _atom_site_label
 _atom_site_symmetry_multiplicity
 _atom_site_fract_x
 _atom_site_fract_y
 _atom_site_fract_z
 _atom_site_occupancy
  H+  H0  1  0.25479722  0.10889562  0.98809179  1
  H+  H1  1  0.99402343  0.13070597  0.65724986  1
  H+  H2  1  0.47634021  0.36193728  0.84118606  1
  H+  H3  1  0.63688747  0.85807211  0.99385110  1
  H+  H4  1  0.78853971  0.40315483  0.66857483  1
  H+  H5  1  0.93825766  0.13484315  0.56550631  1
  H+  H6  1  0.81523771  0.90531336  0.26382673  1
  H+  H7  1  0.12006625  0.64015788  0.15940246  1
  H+  H8  1  0.85820953  0.40050191  0.50132676  1
  H+  H9  1  0.35640040  0.16535288  0.55801570  1
  H+  H10  1  0.25267637  0.38266122  0.33890422  1
  H+  H11  1  0.93367502  0.59098668  0.56661792  1
  H+  H12  1  0.11613558  0.72686683  0.15668785  1
  H+  H13  1  0.56543191  0.27202514  0.95073406  1
  H+  H14  1  0.54808794  0.40448481  0.13691275  1
  H+  H15  1  0.41495685  0.32992835  0.93233197  1
  H+  H16  1  0.36422776  0.14048483  0.64817359  1
  H+  H17  1  0.48000185  0.61863331  0.98686436  1
  H+  H18  1  0.59268549  0.71760047  0.15051134  1
  H+  H19  1  0.18734956  0.07213675  0.92551678  1
  H+  H20  1  0.73315667  0.10720446  0.17470508  1
  H+  H21  1  0.55976131  0.40598895  0.33139600  1
  H+  H22  1  0.65517885  0.29972704  0.92267275  1
  H+  H23  1  0.85228394  0.24341647  0.48589475  1
  H+  H24  1  0.74203068  0.62423839  0.18185037  1
  H+  H25  1  0.24071080  0.11048549  0.83899425  1
  H+  H26  1  0.21723899  0.87047773  0.17860992  1
  H+  H27  1  0.82887120  0.11866946  0.81927148  1
  H+  H28  1  0.58237720  0.55616506  0.53201863  1
  H+  H29  1  0.57120379  0.66844860  0.41905138  1
  H+  H30  1  0.85563736  0.61822183  0.34694086  1
  H+  H31  1  0.38702406  0.85695727  0.32704465  1
  H+  H32  1  0.86771885  0.16677519  0.49050448  1
  H+  H33  1  0.63418990  0.09744919  0.98800614  1
  H+  H34  1  0.64068051  0.53435434  0.98499664  1
  H+  H35  1  0.65259495  0.23029437  0.83816351  1
  H+  H36  1  0.74071015  0.11246128  0.81104900  1
  H+  H37  1  0.11290638  0.88675315  0.00851900  1
  H+  H38  1  0.90056149  0.76911098  0.51004977  1
  H+  H39  1  0.64392318  0.52142673  0.66340329  1
  H+  H40  1  0.60314912  0.88541058  0.49480356  1
  H+  H41  1  0.35060827  0.23600926  0.67864840  1
  H+  H42  1  0.61267914  0.72431146  1.00113208  1
  H+  H43  1  0.77108818  0.89000103  1.01650737  1
  H+  H44  1  0.47263771  0.91574793  0.61074294  1
  H+  H45  1  0.77170938  0.13490941  0.00717060  1
  H+  H46  1  0.75831308  0.86880735  0.17368196  1
  H+  H47  1  0.35736556  0.96020697  0.34972518  1
  H+  H48  1  0.48183690  0.10448115  0.83663114  1
  H+  H49  1  0.89632247  0.61849835  0.16979469  1
  H+  H50  1  0.30813156  0.05762727  0.12981131  1
  H+  H51  1  0.59441828  0.63441023  0.33472151  1
  H+  H52  1  0.37395578  0.13941085  0.82292770  1
  H+  H53  1  0.35689011  0.98711782  0.16299482  1
  H+  H54  1  0.51693447  0.88499797  0.34156754  1
  H+  H55  1  0.11527238  0.11975285  0.66895510  1
  H+  H56  1  0.26268894  0.89542099  1.00821879  1
  H+  H57  1  0.87731358  1.02446702  -0.00399480  1
  H+  H58  1  0.85877881  0.39109910  0.82456906  1
  H+  H59  1  0.53130582  0.13620347  0.49419735  1
  H+  H60  1  0.47074246  0.85093209  0.53111962  1
  H+  H61  1  0.02188850  0.13780979  0.33758951  1
  H+  H62  1  0.12775505  0.37111321  0.84050534  1
  H+  H63  1  0.83549590  0.16742191  0.10426667  1
  H+  H64  1  0.72330165  0.33280598  0.83323846  1
  H+  H65  1  0.01063068  0.38886644  0.16449165  1
  H+  H66  1  0.47564567  0.84841980  0.17075732  1
  H+  H67  1  0.37241076  0.49637741  0.49977558  1
  H+  H68  1  0.22714927  0.86703645  0.83961096  1
  H+  H69  1  0.10487154  0.87229741  0.16009005  1
  H+  H70  1  0.41147697  0.63110458  0.65554290  1
  H+  H71  1  0.39058945  0.10983221  0.32270594  1
  H+  H72  1  0.47256635  0.09763558  0.33331585  1
  H+  H73  1  0.86802128  0.13651078  0.16207696  1
  H+  H74  1  0.97338081  0.87125239  0.65631999  1
  H+  H75  1  1.10278315  0.43747161  0.43983779  1
  H+  H76  1  0.67702204  0.38158383  0.33007297  1
  H+  H77  1  0.97907141  0.14198391  0.83025384  1
  H+  H78  1  0.12926307  0.00274514  0.17241681  1
  H+  H79  1  0.92164917  0.54556904  0.66523493  1
  H+  H80  1  0.37905898  0.84085461  0.53544711  1
  H+  H81  1  0.62361259  0.12563481  0.15730469  1
  H+  H82  1  0.39211153  0.77082915  0.32571890  1
  H+  H83  1  0.65278896  0.28254447  0.66526218  1
  H+  H84  1  0.12511346  0.17109263  0.49613295  1
  H+  H85  1  0.13028277  0.62172162  0.34974988  1
  H+  H86  1  0.15954162  0.33783786  0.13209657  1
  H+  H87  1  0.02009589  0.63399703  0.00794200  1
  H+  H88  1  0.33110107  0.89336006  0.40455708  1
  H+  H89  1  1.02015657  0.38839916  1.00602833  1
  H+  H90  1  0.63694859  0.52023148  0.50479892  1
  H+  H91  1  0.29046560  0.17189059  0.31526832  1
  H+  H92  1  0.36890910  0.22668823  0.82598358  1
  H+  H93  1  0.13574294  0.61597205  -0.00849270  1
  H+  H94  1  0.47782633  0.62201284  0.83679880  1
  H+  H95  1  0.23523942  0.62867945  0.83906970  1
  H+  H96  1  0.48787591  0.62030603  0.50418147  1
  H+  H97  1  0.39471563  0.92604088  0.67706129  1
  H+  H98  1  0.88093098  0.60965334  1.00028500  1
  H+  H99  1  0.31918777  0.83499860  0.69199101  1
  H+  H100  1  0.03793655  0.61245913  0.35386060  1
  H+  H101  1  0.86219525  0.66972791  0.44210838  1
  H+  H102  1  0.84003659  0.91739832  0.45191537  1
  H+  H103  1  0.86270300  0.73290899  0.83930513  1
  H+  H104  1  0.28780076  0.39601491  0.00657337  1
  H+  H105  1  0.86365689  0.89103724  0.66797542  1
  H+  H106  1  0.37339733  0.63646351  0.33199803  1
  H+  H107  1  0.12307186  -0.01630917  0.48506254  1
  H+  H108  1  0.12807439  0.76943428  0.99318094  1
  H+  H109  1  -0.01765490  0.61277687  0.16717049  1
  H+  H110  1  0.96091368  0.90676192  0.21371966  1
  H+  H111  1  0.26361824  0.10750957  0.15300681  1
  H+  H112  1  0.58964027  0.03297747  0.63733835  1
  H+  H113  1  0.27570822  0.39225420  0.67417203  1
  H+  H114  1  0.70113110  0.09971574  0.64881146  1
  H+  H115  1  0.27384869  0.63503252  0.00667068  1
  H+  H116  1  0.11298984  0.89225027  0.82676763  1
  H+  H117  1  0.10399277  0.19517260  0.14459822  1
  H+  H118  1  0.85077455  0.82132783  0.51080752  1
  H+  H119  1  0.35721495  0.93509503  0.50322357  1
  H+  H120  1  0.45884419  0.17329507  0.62365270  1
  H+  H121  1  0.52559879  0.38720504  0.67957477  1
  H+  H122  1  0.52544419  0.87533331  0.00580017  1
  H+  H123  1  0.62942461  0.85403876  0.17011170  1
  H+  H124  1  0.85848094  0.97858341  0.67259287  1
  H+  H125  1  0.77926858  1.00908670  0.87448407  1
  H+  H126  1  0.38637539  0.06099041  0.48300831  1
  H+  H127  1  0.11197246  0.73697072  0.32892349  1
  H+  H128  1  0.85238687  0.96907332  0.82695334  1
  H+  H129  1  0.85817443  0.22695603  0.00982081  1
  H+  H130  1  0.61667613  0.76868618  0.50208334  1
  H+  H131  1  0.70441765  0.85115736  0.49664931  1
  H+  H132  1  0.13014569  0.76916030  0.67279316  1
  H+  H133  1  0.79284939  0.28570131  0.87181594  1
  H+  H134  1  0.62452723  0.72398737  0.67288219  1
  H+  H135  1  0.64617093  0.26122600  0.17721091  1
  H+  H136  1  0.32524432  0.16912833  0.73448438  1
  H+  H137  1  0.85475954  0.87514276  0.17473183  1
  H+  H138  1  0.90960794  0.28210850  0.32682234  1
  H+  H139  1  0.28765646  0.36953725  0.17948687  1
  H+  H140  1  0.85904872  0.48024647  0.82812375  1
  H+  H141  1  0.92211894  0.08999270  0.50241190  1
  H+  H142  1  0.13431553  0.52651196  0.99071959  1
  H+  H143  1  0.15536654  0.00917021  0.99267614  1
  H+  H144  1  0.14330818  0.37542497  1.00128767  1
  H+  H145  1  0.38342170  0.51645019  0.18611136  1
  H+  H146  1  0.88287963  0.36096201  -0.00279515  1
  H+  H147  1  0.12285059  0.35971114  0.30101671  1
  H+  H148  1  0.38554708  0.35971900  0.84518167  1
  H+  H149  1  0.90651593  0.64728692  0.49932719  1
  H+  H150  1  0.39354915  0.87536494  0.84425691  1
  H+  H151  1  0.92500628  0.33407125  0.23665223  1
  H+  H152  1  0.39524071  0.76807670  0.99478860  1
  H+  H153  1  0.63419810  0.01670645  0.49793983  1
  H+  H154  1  0.61456608  0.38623937  0.67819682  1
  H+  H155  1  0.12499889  0.48752372  0.82558544  1
  H+  H156  1  0.03124694  0.58405230  0.77972824  1
  H+  H157  1  0.97976212  0.85944972  0.99652221  1
  H+  H158  1  0.11343830  0.62642810  0.82102055  1
  H+  H159  1  0.01603564  0.18100193  0.81590454  1
  H+  H160  1  0.24661486  0.61513085  0.32808734  1
  H+  H161  1  0.62066876  0.65310135  0.47566935  1
  H+  H162  1  0.21584248  0.13216977  0.52519258  1
  H+  H163  1  0.42387686  0.34526604  0.60930282  1
  H+  H164  1  0.17458792  0.60918681  0.63924743  1
  H+  H165  1  0.72453755  0.86213376  0.65763831  1
  H+  H166  1  0.82121973  0.68186112  0.34552118  1
  H+  H167  1  0.92038204  0.98784512  0.50958875  1
  H+  H168  1  0.36180628  0.71884791  0.16047071  1
  H+  H169  1  0.62450516  0.38852373  0.49746534  1
  H+  H170  1  0.91484420  0.37469426  0.32403947  1
  H+  H171  1  0.89340751  0.48238825  0.33189029  1
  H+  H172  1  0.38028210  0.53475713  0.32399892  1
  H+  H173  1  0.64465291  0.62895723  0.84209378  1
  H+  H174  1  0.86630579  0.38876654  0.16240671  1
  H+  H175  1  0.12208657  0.27386462  0.66288440  1
  H+  H176  1  0.41053939  0.26205998  0.15201392  1
  H+  H177  1  0.76882849  0.38226521  0.01481014  1
  H+  H178  1  0.84605882  0.86117408  0.31127109  1
  H+  H179  1  0.43406428  0.39756457  0.27658876  1
  H+  H180  1  0.72460423  0.35530161  0.17665017  1
  H+  H181  1  0.87315792  0.72891677  0.66320703  1
  H+  H182  1  0.09941700  0.10602291  0.15109357  1
  H+  H183  1  0.23295862  0.88602581  0.66533401  1
  H+  H184  1  0.03418797  0.66033894  0.66968389  1
  H+  H185  1  0.61415706  0.39600618  0.98565008  1
  H+  H186  1  0.52700938  0.10766471  0.73376750  1
  H+  H187  1  0.88233579  0.74031323  0.16275096  1
  H+  H188  1  0.10330944  0.40164875  0.17259756  1
  H+  H189  1  0.65217608  0.54193085  0.16989309  1
  H+  H190  1  0.36080282  0.20849256  0.36602944  1
  H+  H191  1  0.61042528  0.47926439  0.83282100  1
  H+  H192  1  0.30706950  0.64346755  0.61653913  1
  H+  H193  1  0.85594193  0.63677225  0.84425708  1
  H+  H194  1  0.53678557  0.39128271  0.49347518  1
  H+  H195  1  0.14434559  0.13575524  0.32418582  1
  H+  H196  1  0.37227946  0.64942992  0.82396518  1
  H+  H197  1  0.88234096  0.36040350  0.65969588  1
  H+  H198  1  0.88080020  0.51960205  -0.00078791  1
  H+  H199  1  0.90040341  0.32305999  0.93717499  1
  H+  H200  1  0.41688807  0.30570440  0.29746764  1
  H+  H201  1  0.36380991  0.48005535  0.84055132  1
  H+  H202  1  0.26239985  0.85545364  0.50184926  1
  H+  H203  1  0.27706108  0.39294941  0.85014536  1
  H+  H204  1  0.84848447  0.25331384  0.84015577  1
  H+  H205  1  0.39250222  0.29433241  0.52031092  1
  H+  H206  1  0.04594693  0.18864588  0.49290279  1
  H+  H207  1  0.13602883  0.53276030  0.17527835  1
  H+  H208  1  0.36275240  0.98120233  0.83192545  1
  H+  H209  1  0.15362177  0.29932362  0.50173575  1
  H+  H210  1  0.61694526  0.96913437  0.15795585  1
  H+  H211  1  0.38856849  0.61517968  -0.00893002  1
  H+  H212  1  0.91082973  0.63120588  0.66248078  1
  H+  H213  1  0.04391417  0.39572093  0.34780906  1
  H+  H214  1  -0.06417267  0.82045769  0.33037352  1
  H+  H215  1  0.80212961  0.14330465  0.72093600  1
  H+  H216  1  0.64825914  0.54875227  0.32997960  1
  H+  H217  1  0.77617300  0.63950741  0.01020569  1
  H+  H218  1  0.63583867  0.01547020  0.32771987  1
  H+  H219  1  0.96691682  0.61518061  0.84947114  1
  H+  H220  1  0.13756006  0.77925068  0.83526517  1
  H+  H221  1  0.61559056  0.96547003  0.00430453  1
  H+  H222  1  0.39869587  0.12573985  0.98941437  1
  H+  H223  1  0.11486712  0.98191970  0.82856442  1
  H+  H224  1  0.88771174  0.86246577  0.83917355  1
  H+  H225  1  0.52495630  0.39507787  -0.00902490  1
  H+  H226  1  0.83440760  0.11800345  0.66072553  1
  H+  H227  1  0.09565462  0.27903725  0.87006192  1
  H+  H228  1  0.36580164  0.47979118  0.67115866  1
  H+  H229  1  0.47981597  0.11004323  0.99309296  1
  H+  H230  1  0.97663120  0.86228371  0.83929179  1
  H+  H231  1  0.64898082  0.28325071  0.51250328  1
  H+  H232  1  0.36575548  0.63263441  0.49218888  1
  H+  H233  1  0.33970244  0.66527795  0.39401033  1
  H+  H234  1  0.73192109  0.87022095  0.83200479  1
  H+  H235  1  0.61735051  0.73521677  0.82476962  1
  H+  H236  1  0.88815999  0.27230550  0.17722143  1
  H+  H237  1  0.14023605  0.90433829  0.48258519  1
  H+  H238  1  0.35238128  0.98315798  0.00559723  1
  H+  H239  1  0.15266290  0.39387772  0.50688009  1
  H+  H240  1  0.49774880  0.63057233  0.33389148  1
  H+  H241  1  0.11634856  0.50737712  0.64820995  1
  H+  H242  1  0.62013364  0.14060157  0.49097693  1
  H+  H243  1  0.87814398  0.01547360  0.17960919  1
  H+  H244  1  0.58668381  0.90963938  0.09795148  1
  H+  H245  1  0.10408929  0.38599598  0.67551219  1
  H+  H246  1  0.37786934  0.73946464  0.61394589  1
  H+  H247  1  0.39092712  0.36843653  -0.00852538  1
  H+  H248  1  0.72464879  0.10640226  0.32476592  1
  H+  H249  1  0.08470149  0.66617020  0.06478786  1
  H+  H250  1  0.33948634  0.15925323  0.48699300  1
  H+  H251  1  0.60559348  0.07926542  0.82543113  1
  H+  H252  1  0.07164376  0.92372935  0.32739186  1
  H+  H253  1  0.15335844  0.23616854  1.00598610  1
  H+  H254  1  0.51783823  0.91956795  0.67352028  1
  H+  H255  1  0.60894762  0.75582208  0.32692681  1
  H+  H256  1  0.98117631  0.37884147  0.50904738  1
  H+  H257  1  0.53738372  0.12988242  0.16154346  1
  H+  H258  1  0.87051017  0.26539133  0.65685738  1
  H+  H259  1  0.88866990  0.01861585  0.31965953  1
  H+  H260  1  0.08419545  0.80948734  0.32692009  1
  H+  H261  1  0.14273736  0.88940143  0.66769526  1
  H+  H262  1  0.63818192  0.62256458  0.99270959  1
  H+  H263  1  0.16773558  0.06423769  0.33971255  1
  H+  H264  1  0.73850161  0.37876431  0.51789705  1
  H+  H265  1  0.02329402  0.63660783  0.50483305  1
  H+  H266  1  0.60230026  0.87961953  0.34361945  1
  H+  H267  1  0.01226471  0.38010112  0.67544635  1
  H+  H268  1  0.41166957  0.58750594  0.23778835  1
  H+  H269  1  0.86437847  0.13536933  0.33819602  1
  H+  H270  1  0.25205287  0.39611501  0.50713647  1
  H+  H271  1  0.41057319  0.11702322  0.18348480  1
  H+  H272  1  0.60308787  0.11853293  0.33891642  1
  H+  H273  1  0.88364851  -0.02678493  0.53220530  1
  H+  H274  1  0.11783111  0.26947506  0.30333168  1
  H+  H275  1  0.50130050  0.63189815  0.15064134  1
  H+  H276  1  0.12732967  0.76640943  0.50808677  1
  H+  H277  1  0.17497532  0.26278959  0.81276592  1
  H+  H278  1  0.16537504  0.12853469  0.83921584  1
  H+  H279  1  0.39959022  0.38513787  0.51064645  1
  H+  H280  1  0.98905165  0.66988245  0.30242364  1
  H+  H281  1  0.26942257  0.60802707  0.48220000  1
  H+  H282  1  0.61086709  0.20629440  0.00628847  1
  H+  H283  1  0.38823602  0.37056617  0.66698746  1
  H+  H284  1  0.62668123  0.63504428  0.67519436  1
  H+  H285  1  0.13342261  0.48654297  0.34419381  1
  H+  H286  1  0.36711710  0.23576311  0.00504968  1
  H+  H287  1  0.01626517  0.87614496  0.15970717  1
  H+  H288  1  0.40396690  0.79319042  0.83649608  1
  H+  H289  1  0.80348494  0.39367748  0.33081964  1
  H+  H290  1  0.65826795  0.08227044  0.57646146  1
  H+  H291  1  0.91071359  0.83620769  0.59668611  1
  H+  H292  1  0.41923798  0.59685132  0.89660984  1
  H+  H293  1  0.84471207  0.42823716  0.72840511  1
  H+  H294  1  0.49359843  0.61865711  0.66498814  1
  H+  H295  1  0.78142579  0.85830490  0.40070415  1
  H+  H296  1  0.15662369  0.83024687  0.93416117  1
  H+  H297  1  0.59912440  0.86118728  0.68734387  1
  H+  H298  1  0.07645109  0.42199971  0.06654891  1
  H+  H299  1  0.84669074  0.67851971  0.10465623  1
  H+  H300  1  0.65865088  0.06231860  0.92845799  1
  H+  H301  1  0.30735783  0.08006377  0.42143289  1
  H+  H302  1  0.65991368  0.82920224  0.60059119  1
  H+  H303  1  0.14178111  0.53377921  0.54499512  1
  H+  H304  1  0.97114347  0.09793900  0.16866365  1
  H+  H305  1  0.67300232  0.83532754  0.93442752  1
  H+  H306  1  0.83179313  0.41356240  0.07226520  1
  H+  H307  1  0.83342795  0.17180891  0.39345819  1
  H+  H308  1  0.22478658  0.43740600  0.37466545  1
  H+  H309  1  0.23062100  0.61652759  0.17341164  1
  H+  H310  1  0.33115116  0.65988696  0.06720024  1
  H+  H311  1  0.41876825  0.82214558  0.23032480  1
  H+  H312  1  0.43666686  0.59219232  0.56957880  1
  H+  H313  1  0.64227125  0.81457621  0.23169612  1
  H+  H314  1  0.43303998  0.08100706  0.24264159  1
  H+  H315  1  0.86867308  0.49551610  0.50893625  1
  H+  H316  1  0.10922244  0.15685403  0.04841942  1
  H+  H317  1  0.82431084  0.92332458  0.07772407  1
  H+  H318  1  0.08939883  0.18791376  0.39216559  1
  H+  H319  1  0.66896932  0.07324342  0.23218006  1
  H+  H320  1  0.42405653  0.08763973  0.89685687  1
  H+  H321  1  0.66993580  0.57829685  0.60268298  1
  H+  H322  1  0.17489667  0.35140177  0.94161863  1
  H+  H323  1  0.45209821  0.33060227  0.20496671  1
  H+  H324  1  0.88119105  0.11422992  0.99258177  1
  H+  H325  1  0.57044047  0.91343266  0.43615978  1
  H+  H326  1  0.70169573  0.84244520  0.31652029  1
  H+  H327  1  0.65054225  0.88463983  0.83912578  1
  H+  H328  1  0.37640916  0.48173238  -0.00109445  1
  H+  H329  1  0.14765871  0.81355646  0.23267900  1
  H+  H330  1  0.86863505  0.06127188  0.90869017  1
  H+  H331  1  0.35414003  0.62549369  0.16128296  1
  H+  H332  1  0.08159683  0.92602222  0.73509835  1
  H+  H333  1  0.15383135  0.31683147  0.20451355  1
  H+  H334  1  0.75608708  0.63764904  0.84425509  1
  H+  H335  1  0.92986747  0.59359285  0.25989234  1
  H+  H336  1  0.57963553  0.15606065  0.39744997  1
  H+  H337  1  0.07736575  0.90421071  0.39763289  1
  H+  H338  1  0.60413440  0.42564443  0.39685617  1
  H+  H339  1  0.37896837  0.38081364  0.17111948  1
  H+  H340  1  0.14219534  0.09567813  0.57295686  1
  H+  H341  1  0.10307254  0.69338068  0.72958454  1
  H+  H342  1  0.72645823  0.11243543  0.49757110  1
  H+  H343  1  0.58639546  0.14870813  0.06694905  1
  H+  H344  1  0.03666264  0.16954483  0.72637143  1
  H+  H345  1  0.59300332  0.67140479  0.76790031  1
  H+  H346  1  0.68975353  0.33348183  0.27459578  1
  H+  H347  1  0.42716441  0.83207628  0.93786166  1
  H+  H348  1  0.93016901  0.04291543  0.60871584  1
  H+  H349  1  0.32449097  0.43477446  0.44034734  1
  H+  H350  1  0.35507198  0.11295697  0.42186161  1
  H+  H351  1  0.58499223  0.41997735  0.77492675  1
  H+  H352  1  0.08874776  0.92226499  0.06822905  1
  H+  H353  1  0.15879728  0.83788092  0.56274365  1
  H+  H354  1  0.86742580  0.47866960  0.15927194  1
  H+  H355  1  0.16267135  0.07202477  0.22794494  1
  H+  H356  1  0.17924313  0.58382993  0.27067863  1
  H+  H357  1  0.66162109  0.59682834  0.26671135  1
  H+  H358  1  0.67177821  0.59964627  0.90623734  1
  H+  H359  1  0.10817643  0.98877946  0.67699757  1
  H+  H360  1  0.60559655  0.44967303  0.08091462  1
  H+  H361  1  0.89914603  0.80850064  0.26202648  1
  H+  H362  1  0.16462563  0.34015249  0.60759638  1
  H+  H363  1  0.91839805  0.33819041  0.56567421  1
  H+  H364  1  0.15287279  0.20587443  0.75401543  1
  H+  H365  1  0.53829798  0.92416268  0.83882586  1
  H+  H366  1  0.08679286  0.42452558  0.76825881  1
  H+  H367  1  0.92166561  0.82685881  0.93719587  1
  H+  H368  1  0.33492984  0.16377770  0.06095350  1
  H+  H369  1  0.79102780  0.63568543  0.66463304  1
  H+  H370  1  0.09468881  0.66525728  0.45114961  1
  H+  H371  1  0.86985058  0.72358107  0.00802841  1
  H+  H372  1  0.92141030  0.08411302  0.26527713  1
  H+  H373  1  0.31064781  0.94333139  0.09865699  1
  H+  H374  1  0.40312304  0.06923043  0.55372852  1
  H+  H375  1  0.34317281  0.68049263  0.76509220  1
  H+  H376  1  0.83854474  0.91704933  0.76382683  1
  H+  H377  1  0.58560960  0.90708013  0.74596162  1
  H+  H378  1  0.57164158  0.66218143  0.05970275  1
  H+  H379  1  0.90918966  0.58138119  0.91000156  1
  H+  H380  1  0.67195544  0.33640172  0.60263400  1
  H+  H381  1  0.33414378  0.91748003  0.77435029  1
  H+  H382  1  0.17292328  0.59467220  0.89834717  1
  H+  H383  1  0.20785750  0.12492940  0.66784033  1
  O2-  O384  1  0.06716693  0.13340730  0.13485196  1
  O2-  O385  1  0.10575402  0.21016113  0.47705497  1
  O2-  O386  1  0.17556915  0.21262810  0.79520063  1
  O2-  O387  1  0.07266355  0.42345259  0.14889309  1
  O2-  O388  1  0.10274580  0.43628707  0.48643221  1
  O2-  O389  1  0.09285406  0.42639846  0.81332413  1
  O2-  O390  1  0.08736391  0.66631561  0.14092790  1
  O2-  O391  1  0.08887936  0.67521705  0.49448866  1
  O2-  O392  1  0.07058382  0.63904889  0.79890446  1
  O2-  O393  1  0.07820012  0.90578932  0.14370274  1
  O2-  O394  1  0.13420655  0.94766713  0.45747474  1
  O2-  O395  1  0.08155021  0.92164995  0.81273065  1
  O2-  O396  1  0.31836932  0.11785677  0.13357831  1
  O2-  O397  1  0.33028715  0.18293480  0.52452706  1
  O2-  O398  1  0.33960431  0.16614707  0.80934606  1
  O2-  O399  1  0.34758241  0.40452686  0.19315076  1
  O2-  O400  1  0.33409315  0.43368133  0.48509061  1
  O2-  O401  1  0.33616989  0.41689670  0.83625750  1
  O2-  O402  1  0.32592154  0.65754301  0.14455220  1
  O2-  O403  1  0.32889207  0.65273515  0.47377343  1
  O2-  O404  1  0.34259508  0.68190369  0.80944171  1
  O2-  O405  1  0.30072838  0.95708418  0.14195691  1
  O2-  O406  1  0.32407957  0.87415636  0.49126388  1
  O2-  O407  1  0.32997071  0.91868338  0.81925051  1
  O2-  O408  1  0.59422228  0.15611654  0.14039859  1
  O2-  O409  1  0.59083868  0.17321056  0.48012581  1
  O2-  O410  1  0.58103108  0.13290675  0.81288954  1
  O2-  O411  1  0.60634916  0.44963199  0.12569666  1
  O2-  O412  1  0.59642579  0.41913195  0.47805671  1
  O2-  O413  1  0.58034962  0.41876059  0.81998602  1
  O2-  O414  1  0.55643884  0.66360420  0.12797469  1
  O2-  O415  1  0.58026074  0.67342582  0.46644874  1
  O2-  O416  1  0.59032237  0.67350130  0.81344419  1
  O2-  O417  1  0.58539827  0.90844947  0.14353707  1
  O2-  O418  1  0.57405577  0.91800680  0.48200858  1
  O2-  O419  1  0.59932874  0.95401389  0.82298074  1
  O2-  O420  1  0.83864489  0.16893975  0.14978368  1
  O2-  O421  1  0.82608033  0.18202490  0.47283765  1
  O2-  O422  1  0.80212853  0.14858937  0.79787455  1
  O2-  O423  1  0.83757985  0.41810748  0.14357341  1
  O2-  O424  1  0.82519129  0.43022724  0.49863157  1
  O2-  O425  1  0.83544166  0.42529487  0.80541047  1
  O2-  O426  1  0.85389867  0.67986654  0.14972136  1
  O2-  O427  1  0.88966367  0.69095958  0.48243245  1
  O2-  O428  1  0.82607968  0.66842252  0.82971774  1
  O2-  O429  1  0.82245555  0.90786003  0.16986845  1
  O2-  O430  1  0.78636690  0.86371125  0.44504015  1
  O2-  O431  1  0.83643070  0.91161299  0.80915235  1
  O2-  O432  1  0.16158612  0.06611632  0.18340798  1
  O2-  O433  1  0.15246644  0.10447986  0.52814456  1
  O2-  O434  1  0.18018093  0.08542599  0.85508352  1
  O2-  O435  1  0.16977447  0.30550718  0.16324255  1
  O2-  O436  1  0.18399614  0.36106232  0.52087762  1
  O2-  O437  1  0.14826782  0.33242747  0.86069690  1
  O2-  O438  1  0.17063474  0.59169936  0.19165255  1
  O2-  O439  1  0.15382838  0.52863059  0.50056615  1
  O2-  O440  1  0.17410494  0.59737218  0.85249056  1
  O2-  O441  1  0.15727745  0.82428139  0.18808081  1
  O2-  O442  1  0.16249315  0.83312146  0.51855873  1
  O2-  O443  1  0.16447859  0.83724509  0.85190418  1
  O2-  O444  1  0.44147936  0.08790809  0.19713638  1
  O2-  O445  1  0.41793747  0.05103481  0.51518537  1
  O2-  O446  1  0.42127871  0.08327862  0.85115835  1
  O2-  O447  1  0.43878380  0.32343634  0.16057905  1
  O2-  O448  1  0.43042596  0.35696971  0.52723416  1
  O2-  O449  1  0.41494865  0.32608338  0.85505082  1
  O2-  O450  1  0.40580576  0.57894911  0.19126688  1
  O2-  O451  1  0.42966035  0.58782112  0.52409981  1
  O2-  O452  1  0.41726686  0.59658296  0.85045953  1
  O2-  O453  1  0.41549757  0.81605199  0.18530713  1
  O2-  O454  1  0.42356322  0.83610770  0.56038955  1
  O2-  O455  1  0.43184022  0.85179890  0.85423951  1
  O2-  O456  1  0.67131754  0.07340135  0.18658956  1
  O2-  O457  1  0.66590727  0.07899219  0.51345418  1
  O2-  O458  1  0.64065185  0.04361976  0.84540622  1
  O2-  O459  1  0.67000820  0.31764388  0.19753948  1
  O2-  O460  1  0.67267949  0.34045022  0.53180259  1
  O2-  O461  1  0.69505173  0.28357197  0.86126176  1
  O2-  O462  1  0.68141746  0.59562682  0.19436726  1
  O2-  O463  1  0.64222106  0.57338037  0.52454883  1
  O2-  O464  1  0.67565591  0.59961209  0.85907886  1
  O2-  O465  1  0.65453985  0.81924430  0.18713695  1
  O2-  O466  1  0.64975168  0.82828881  0.51953264  1
  O2-  O467  1  0.67283644  0.84597943  0.84973546  1
  O2-  O468  1  0.91440813  0.07818677  0.18961655  1
  O2-  O469  1  0.94517391  0.14759106  0.51960455  1
  O2-  O470  1  0.83998972  0.04539742  0.86509087  1
  O2-  O471  1  0.91764369  0.33369462  0.19115936  1
  O2-  O472  1  0.92055307  0.34215707  0.52037132  1
  O2-  O473  1  0.85405384  0.30191683  0.86508261  1
  O2-  O474  1  0.92210156  0.58269813  0.18300625  1
  O2-  O475  1  0.93141489  0.58509949  0.52247643  1
  O2-  O476  1  0.90704108  0.58495825  0.86375109  1
  O2-  O477  1  0.92798923  0.84978943  0.19567102  1
  O2-  O478  1  0.90292921  0.82500752  0.52694616  1
  O2-  O479  1  0.91626493  0.83051257  0.85473965  1
  O2-  O480  1  0.18012328  0.10974094  0.31047465  1
  O2-  O481  1  0.14738733  0.09170923  0.65278283  1
  O2-  O482  1  0.20404653  0.05724921  0.96624467  1
  O2-  O483  1  0.14360550  0.32469053  0.28056864  1
  O2-  O484  1  0.15944336  0.33656238  0.65203517  1
  O2-  O485  1  0.17829834  0.35030527  0.98646044  1
  O2-  O486  1  0.18243379  0.57912704  0.31571981  1
  O2-  O487  1  0.13959342  0.55546738  0.61782725  1
  O2-  O488  1  0.16623334  0.58654764  0.97480697  1
  O2-  O489  1  0.09574048  0.77090419  0.30139257  1
  O2-  O490  1  0.17218255  0.85681097  0.65235430  1
  O2-  O491  1  0.15531794  0.83059591  0.97915118  1
  O2-  O492  1  0.41122423  0.06942384  0.31567053  1
  O2-  O493  1  0.39904205  0.13204996  0.61433175  1
  O2-  O494  1  0.42324128  0.09096293  0.97284660  1
  O2-  O495  1  0.46110631  0.36234956  0.28109295  1
  O2-  O496  1  0.41794827  0.33729624  0.65404177  1
  O2-  O497  1  0.41906032  0.33355723  0.97792541  1
  O2-  O498  1  0.41437945  0.59325472  0.30877153  1
  O2-  O499  1  0.43450727  0.59253440  0.64660945  1
  O2-  O500  1  0.41948600  0.58867694  0.97057671  1
  O2-  O501  1  0.42227806  0.83201184  0.31110526  1
  O2-  O502  1  0.49775940  0.95374879  0.64779321  1
  O2-  O503  1  0.43112457  0.82911942  0.98237033  1
  O2-  O504  1  0.66453701  0.07457560  0.30955775  1
  O2-  O505  1  0.64756227  0.08544343  0.62424652  1
  O2-  O506  1  0.66809307  0.07082736  0.97298238  1
  O2-  O507  1  0.70494527  0.34833243  0.31823510  1
  O2-  O508  1  0.67537198  0.34056229  0.64946895  1
  O2-  O509  1  0.62611946  0.30106288  0.96176290  1
  O2-  O510  1  0.65247561  0.60068052  0.31154535  1
  O2-  O511  1  0.67596120  0.58182769  0.64779059  1
  O2-  O512  1  0.67353838  0.59741193  0.97530976  1
  O2-  O513  1  0.63936885  0.81810473  0.31091177  1
  O2-  O514  1  0.66280208  0.82756914  0.64580811  1
  O2-  O515  1  0.66935280  0.82898188  0.97909412  1
  O2-  O516  1  0.92106027  0.08133574  0.31132513  1
  O2-  O517  1  0.92442907  0.08727206  0.63039676  1
  O2-  O518  1  0.90181264  0.07901762  0.97169281  1
  O2-  O519  1  0.94690176  0.34189948  0.31225784  1
  O2-  O520  1  0.90865548  0.32584641  0.64476030  1
  O2-  O521  1  0.91353065  0.33139201  0.98164413  1
  O2-  O522  1  0.94204032  0.60910307  0.30406993  1
  O2-  O523  1  0.95248408  0.60788409  0.65502173  1
  O2-  O524  1  0.91155347  0.57953299  0.98324688  1
  O2-  O525  1  0.88180547  0.79849143  0.30732528  1
  O2-  O526  1  0.91246909  0.84130506  0.64357841  1
  O2-  O527  1  0.92182052  0.81810006  0.98144534  1
  O2-  O528  1  0.14666858  0.17901862  0.01262297  1
  O2-  O529  1  0.08455376  0.17665239  0.34782956  1
  O2-  O530  1  0.05947018  0.17205856  0.68566364  1
  O2-  O531  1  0.08041053  0.42196596  0.02157599  1
  O2-  O532  1  0.10479304  0.42690171  0.36393786  1
  O2-  O533  1  0.07302523  0.41626267  0.68924092  1
  O2-  O534  1  0.08219011  0.66594320  0.01898049  1
  O2-  O535  1  0.09724106  0.64744645  0.36847326  1
  O2-  O536  1  0.10242711  0.70301452  0.68480765  1
  O2-  O537  1  0.09212038  0.92656585  0.02249593  1
  O2-  O538  1  0.04885815  0.87766354  0.35715604  1
  O2-  O539  1  0.08433237  0.92733889  0.68953600  1
  O2-  O540  1  0.33990200  0.17248211  0.01600399  1
  O2-  O541  1  0.35384757  0.20033922  0.32220649  1
  O2-  O542  1  0.31608724  0.17312921  0.68956143  1
  O2-  O543  1  0.35001329  0.42242782  0.01540297  1
  O2-  O544  1  0.27198771  0.42498148  0.37196632  1
  O2-  O545  1  0.33748847  0.41873374  0.68322281  1
  O2-  O546  1  0.33389137  0.66152468  0.02148669  1
  O2-  O547  1  0.33959001  0.66780889  0.34876461  1
  O2-  O548  1  0.34977019  0.68959640  0.64196540  1
  O2-  O549  1  0.31887591  0.92927582  0.02865653  1
  O2-  O550  1  0.33120403  0.89867990  0.35991991  1
  O2-  O551  1  0.33468699  0.89531586  0.69368478  1
  O2-  O552  1  0.58266941  0.14619462  0.02072030  1
  O2-  O553  1  0.56508004  0.13960525  0.35444234  1
  O2-  O554  1  0.58737379  0.14172729  0.74572367  1
  O2-  O555  1  0.58861600  0.43049432  -0.00104003  1
  O2-  O556  1  0.61551145  0.43401079  0.35252594  1
  O2-  O557  1  0.58665239  0.41842222  0.69349793  1
  O2-  O558  1  0.58031159  0.66240239  0.01335509  1
  O2-  O559  1  0.56193594  0.66325960  0.35200730  1
  O2-  O560  1  0.59560829  0.66482749  0.69064543  1
  O2-  O561  1  0.58771066  0.90628211  0.02113077  1
  O2-  O562  1  0.57717263  0.91452578  0.35967036  1
  O2-  O563  1  0.55769282  0.87275963  0.70943254  1
  O2-  O564  1  0.82949621  0.16720308  0.02631779  1
  O2-  O565  1  0.83572136  0.16880349  0.34831671  1
  O2-  O566  1  0.80015869  0.14354558  0.67501875  1
  O2-  O567  1  0.82956945  0.41265869  0.02559710  1
  O2-  O568  1  0.86786091  0.42110664  0.34000682  1
  O2-  O569  1  0.84907450  0.42961743  0.68297721  1
  O2-  O570  1  0.83600299  0.66312978  0.02549339  1
  O2-  O571  1  0.81855704  0.63450794  0.36949480  1
  O2-  O572  1  0.85253515  0.66879108  0.67614307  1
  O2-  O573  1  0.82870815  0.93009878  0.03340299  1
  O2-  O574  1  0.82040932  0.90118655  0.30830520  1
  O2-  O575  1  0.83010080  0.91793735  0.68575043  1
