# generated using pymatgen
data_H2O
_symmetry_space_group_name_H-M   'P 1'
_cell_length_a   17.98687490
_cell_length_b   17.99882773
_cell_length_c   22.00567773
_cell_angle_alpha   90.00464933
_cell_angle_beta   90.02530694
_cell_angle_gamma   120.01736445
_symmetry_Int_Tables_number   1
_chemical_formula_structural   H2O
_chemical_formula_sum   'H384 O192'
_cell_volume   6168.63719467
_cell_formula_units_Z   192
loop_
 _symmetry_equiv_pos_site_id
 _symmetry_equiv_pos_as_xyz
  1  'x, y, z'
loop_
 _atom_type_symbol
 _atom_type_oxidation_number
  H+  1.0
  O2-  -2.0
loop_
 _atom_site_type_symbol
 _atom_site_label
 _atom_site_symmetry_multiplicity
 _atom_site_fract_x
 _atom_site_fract_y
 _atom_site_fract_z
 _atom_site_occupancy
  H+  H0  1  0.39078761  0.60236779  0.65184914  1
  H+  H1  1  0.33836643  0.93616150  0.14265828  1
  H+  H2  1  0.62743375  0.00961714  0.83372942  1
  H+  H3  1  0.97304343  0.36120688  0.52318892  1
  H+  H4  1  0.72850790  0.36656738  0.50411501  1
  H+  H5  1  0.87345078  0.99047946  0.50295893  1
  H+  H6  1  0.62568721  0.85937070  0.17145748  1
  H+  H7  1  0.12671606  0.60749937  1.00492921  1
  H+  H8  1  0.07120767  0.83096573  0.52917619  1
  H+  H9  1  0.47409223  0.35662663  0.18335942  1
  H+  H10  1  0.83907953  0.22853415  0.01095810  1
  H+  H11  1  0.61236023  0.48860771  0.81170918  1
  H+  H12  1  0.59406726  0.11380519  0.81222980  1
  H+  H13  1  0.09186552  0.85660529  0.55742582  1
  H+  H14  1  0.36251382  0.63214531  0.01018215  1
  H+  H15  1  0.38874817  0.86200318  0.49659643  1
  H+  H16  1  0.63237225  0.74061059  0.80154001  1
  H+  H17  1  0.36645747  0.71786607  0.66964830  1
  H+  H18  1  0.89482466  0.58218167  0.17621503  1
  H+  H19  1  0.98867334  0.12608546  0.51880809  1
  H+  H20  1  0.51580502  0.88373992  0.48948252  1
  H+  H21  1  0.44707210  0.96302453  0.72013898  1
  H+  H22  1  0.13661657  0.53016144  0.31780769  1
  H+  H23  1  0.10282964  1.00714575  0.46189307  1
  H+  H24  1  0.62215125  0.10553670  0.17826198  1
  H+  H25  1  0.62085995  0.35998355  0.33103366  1
  H+  H26  1  0.11173247  0.77506782  0.83615469  1
  H+  H27  1  0.86308558  0.47383609  0.49566618  1
  H+  H28  1  0.10586230  0.21407719  0.81668936  1
  H+  H29  1  0.10846119  0.13329570  0.16856335  1
  H+  H30  1  0.76344943  0.37764869  0.34053841  1
  H+  H31  1  0.22869340  0.12620957  0.50538640  1
  H+  H32  1  0.39245747  0.03812519  0.50783499  1
  H+  H33  1  0.36138169  0.73023121  0.33822738  1
  H+  H34  1  0.20068939  0.22146093  0.05040089  1
  H+  H35  1  0.84252061  0.61897412  0.49806529  1
  H+  H36  1  0.72478193  0.10365637  0.50897069  1
  H+  H37  1  0.85157605  0.21339684  0.34474872  1
  H+  H38  1  0.01556550  0.62521534  0.67068870  1
  H+  H39  1  0.48137675  0.35719382  -0.01874195  1
  H+  H40  1  0.12090801  0.39200740  1.01246050  1
  H+  H41  1  0.87826393  0.84350033  0.00033634  1
  H+  H42  1  0.75083756  0.63448615  0.65622054  1
  H+  H43  1  0.08485115  0.42250335  0.58357176  1
  H+  H44  1  0.50883445  0.87513004  0.82902044  1
  H+  H45  1  0.58734581  0.66116027  0.71999215  1
  H+  H46  1  0.74816929  0.36417535  0.98579968  1
  H+  H47  1  0.98926949  0.59857371  0.17728131  1
  H+  H48  1  1.02029938  0.63651539  0.34115626  1
  H+  H49  1  0.64725788  0.07312462  0.23792877  1
  H+  H50  1  0.38777651  0.13917934  0.17569076  1
  H+  H51  1  0.98401695  0.16612972  0.98896944  1
  H+  H52  1  0.11245336  0.37975956  0.66520391  1
  H+  H53  1  0.56889192  0.91656130  0.10437322  1
  H+  H54  1  0.38906024  0.02086368  0.66937924  1
  H+  H55  1  0.37066817  0.15458380  0.50404920  1
  H+  H56  1  0.88023855  0.46370907  0.15757887  1
  H+  H57  1  0.62184191  0.61440188  0.17429999  1
  H+  H58  1  0.85576269  0.88448277  0.34355081  1
  H+  H59  1  0.08867421  0.16561144  0.10701559  1
  H+  H60  1  0.65289264  0.29072487  0.65684692  1
  H+  H61  1  0.47239086  0.59773669  0.99751539  1
  H+  H62  1  0.38503897  0.87085244  0.32558335  1
  H+  H63  1  0.28486170  0.32520224  0.45537302  1
  H+  H64  1  0.61684381  0.22753965  0.00362434  1
  H+  H65  1  0.95703415  0.84105508  0.33812878  1
  H+  H66  1  0.89908978  0.12141956  0.52820019  1
  H+  H67  1  0.38695869  0.36930296  0.32927275  1
  H+  H68  1  0.72572315  0.85630365  0.65499678  1
  H+  H69  1  0.31148143  0.10373296  0.66503624  1
  H+  H70  1  0.27504019  0.39226181  0.33842067  1
  H+  H71  1  0.89161694  0.39333297  0.99984514  1
  H+  H72  1  0.22470100  0.11731331  0.17430346  1
  H+  H73  1  0.88396195  0.35952467  0.50852008  1
  H+  H74  1  0.35325959  0.13100663  0.01575379  1
  H+  H75  1  0.35918679  0.63281297  0.48861931  1
  H+  H76  1  0.72263423  0.83087940  1.00315525  1
  H+  H77  1  0.38307679  0.76896149  0.49755733  1
  H+  H78  1  0.71498379  0.62510292  0.17022752  1
  H+  H79  1  0.13097605  0.60474704  0.50031335  1
  H+  H80  1  0.40545123  0.08651211  0.85616817  1
  H+  H81  1  0.11937145  0.26100749  0.66387883  1
  H+  H82  1  0.13722128  0.53827852  0.85027254  1
  H+  H83  1  0.50979554  0.62367478  0.49419892  1
  H+  H84  1  0.89412854  0.62398515  0.65925743  1
  H+  H85  1  0.97006865  0.11909103  0.62338382  1
  H+  H86  1  0.88400241  0.74945169  0.66006887  1
  H+  H87  1  0.52712702  0.15613567  0.16161635  1
  H+  H88  1  0.06330498  0.50064249  0.77192345  1
  H+  H89  1  0.11483415  0.23800342  0.49519988  1
  H+  H90  1  0.59773911  -0.02882983  0.16622605  1
  H+  H91  1  1.01802115  0.88302441  1.00817150  1
  H+  H92  1  0.26290892  0.38619756  0.68174945  1
  H+  H93  1  0.35970271  0.38636405  0.83143797  1
  H+  H94  1  0.26556629  0.14819645  0.81965558  1
  H+  H95  1  0.11319548  -0.01508931  0.83286686  1
  H+  H96  1  0.35514191  0.93795703  0.42146199  1
  H+  H97  1  0.60056013  0.87997527  0.82751004  1
  H+  H98  1  0.60873426  0.38268047  0.49224087  1
  H+  H99  1  0.89030176  0.15315039  0.98776865  1
  H+  H100  1  0.27427979  0.63561296  1.01216794  1
  H+  H101  1  0.63457739  0.86321860  0.32511408  1
  H+  H102  1  0.62187046  0.23559424  0.15884796  1
  H+  H103  1  0.89784518  0.87659462  0.84097525  1
  H+  H104  1  0.85903760  0.22101613  0.50052502  1
  H+  H105  1  0.13503843  0.52335855  0.00907850  1
  H+  H106  1  0.36800089  0.60423798  0.85413327  1
  H+  H107  1  0.87855026  -0.01102729  0.82355904  1
  H+  H108  1  0.75259353  0.13615670  0.00811607  1
  H+  H109  1  0.60948668  -0.01233090  0.34444289  1
  H+  H110  1  0.99354405  0.38244727  0.83460810  1
  H+  H111  1  0.88541807  0.35034193  0.16939337  1
  H+  H112  1  0.61247728  0.60059100  0.01626622  1
  H+  H113  1  0.88448170  1.02135116  0.32798854  1
  H+  H114  1  0.79231059  0.90057073  0.82614258  1
  H+  H115  1  0.37424215  0.51146762  0.49721941  1
  H+  H116  1  0.84697552  0.69389039  0.72197077  1
  H+  H117  1  0.63618269  0.41252291  0.66286569  1
  H+  H118  1  0.18608680  0.82626375  0.55720882  1
  H+  H119  1  0.63035448  0.52154480  0.32769365  1
  H+  H120  1  0.85823915  0.41590332  0.05982442  1
  H+  H121  1  0.13973326  0.14392574  1.01002457  1
  H+  H122  1  0.76383527  0.62704571  0.33984761  1
  H+  H123  1  0.60971251  0.64289089  0.33289586  1
  H+  H124  1  0.27986544  0.14947883  0.34850235  1
  H+  H125  1  0.45956665  0.40823072  0.55517112  1
  H+  H126  1  0.44703350  0.98487281  0.44891848  1
  H+  H127  1  0.63352595  0.77363345  0.32117615  1
  H+  H128  1  0.67741070  0.55762741  1.05902176  1
  H+  H129  1  0.65991691  0.36305910  0.97204933  1
  H+  H130  1  0.16800444  0.33543233  0.93323579  1
  H+  H131  1  0.87631301  0.00531415  0.95196141  1
  H+  H132  1  0.26448711  0.38590032  0.15512823  1
  H+  H133  1  0.84685016  0.66260157  0.15953373  1
  H+  H134  1  0.91228603  0.08283259  0.26958238  1
  H+  H135  1  0.97855451  0.12254171  0.82726757  1
  H+  H136  1  0.13132656  0.77584468  0.32709720  1
  H+  H137  1  0.88786888  0.36883053  0.66350162  1
  H+  H138  1  0.78344068  0.35927752  0.82251292  1
  H+  H139  1  0.86479897  0.45533279  0.83089066  1
  H+  H140  1  1.00281452  0.63986053  0.82640721  1
  H+  H141  1  0.24839130  0.85591599  0.15953061  1
  H+  H142  1  0.96311778  0.35195968  0.32277948  1
  H+  H143  1  0.36962843  0.51643781  0.85170634  1
  H+  H144  1  0.77562978  0.61770896  0.01096262  1
  H+  H145  1  0.17517661  0.06601964  0.64818522  1
  H+  H146  1  0.88189687  0.51558617  0.33375465  1
  H+  H147  1  0.36003100  0.22225867  0.00376493  1
  H+  H148  1  0.12171034  0.76442659  0.17406237  1
  H+  H149  1  0.61427486  0.48621713  0.17056734  1
  H+  H150  1  0.38296864  0.28455944  0.82621574  1
  H+  H151  1  1.02188660  0.13817858  0.34019789  1
  H+  H152  1  0.38832146  0.12400154  0.33795881  1
  H+  H153  1  0.65187659  0.82074017  0.56526567  1
  H+  H154  1  0.13235429  1.01849244  -0.00907491  1
  H+  H155  1  0.65289465  0.38002658  0.17026781  1
  H+  H156  1  0.38936357  0.89139704  0.67351490  1
  H+  H157  1  0.34220335  0.86643546  0.99842203  1
  H+  H158  1  0.89762746  0.35890266  0.83725112  1
  H+  H159  1  0.37775467  0.85346023  0.84538729  1
  H+  H160  1  0.59898404  0.90533369  0.00271198  1
  H+  H161  1  0.78255578  0.39848597  0.67080910  1
  H+  H162  1  0.46446095  0.09846607  0.01015264  1
  H+  H163  1  0.27624028  0.38867576  0.00436015  1
  H+  H164  1  0.87937659  0.78877432  0.17351647  1
  H+  H165  1  0.37320582  0.84211400  0.17518499  1
  H+  H166  1  0.92085693  1.01317546  -0.04075225  1
  H+  H167  1  0.17963501  0.87087070  0.69035547  1
  H+  H168  1  0.46602707  0.84278903  0.65294267  1
  H+  H169  1  0.97601087  0.35394903  0.17554232  1
  H+  H170  1  0.65383955  0.52558701  0.65903710  1
  H+  H171  1  0.11398525  0.14304355  0.34176473  1
  H+  H172  1  0.87137294  0.74571862  0.82210764  1
  H+  H173  1  0.64521458  0.15318410  0.66507720  1
  H+  H174  1  0.11529207  0.63283175  0.15719508  1
  H+  H175  1  0.22287021  0.61043769  0.50121263  1
  H+  H176  1  0.20095293  0.83781912  0.99180639  1
  H+  H177  1  0.37772522  0.60657773  0.16774589  1
  H+  H178  1  0.22390160  0.10539010  0.98782922  1
  H+  H179  1  1.02114697  0.88752191  0.83412743  1
  H+  H180  1  0.51799055  0.13399993  0.35045527  1
  H+  H181  1  0.60075844  0.72310564  0.15581169  1
  H+  H182  1  0.11468199  0.48228522  0.52615984  1
  H+  H183  1  0.13704412  0.27035049  0.17248421  1
  H+  H184  1  0.58694720  0.17234894  0.06495080  1
  H+  H185  1  0.11522049  0.88696146  0.83604520  1
  H+  H186  1  0.85379455  0.89004094  0.17254541  1
  H+  H187  1  0.11845563  0.84888937  0.99557795  1
  H+  H188  1  0.62424998  0.02947607  0.99086694  1
  H+  H189  1  0.87753123  1.02258991  0.17109855  1
  H+  H190  1  0.22538211  0.35488981  0.84016573  1
  H+  H191  1  0.75130895  0.12572126  0.65989691  1
  H+  H192  1  0.13975682  0.12787702  0.50168572  1
  H+  H193  1  0.59689476  0.44097823  0.71937551  1
  H+  H194  1  0.51293881  0.89183897  0.34146295  1
  H+  H195  1  0.11054931  0.38485729  0.31690183  1
  H+  H196  1  0.59890971  0.86485336  0.66967837  1
  H+  H197  1  0.15089941  0.28249312  0.99514011  1
  H+  H198  1  0.62411934  0.80418749  1.00409046  1
  H+  H199  1  0.77032221  0.88937699  0.33898967  1
  H+  H200  1  -0.02901940  0.60780011  0.50558961  1
  H+  H201  1  0.97045255  0.11024451  0.17030232  1
  H+  H202  1  0.64041650  0.27626877  0.50974297  1
  H+  H203  1  0.91864427  0.83672753  0.90121291  1
  H+  H204  1  0.16477678  0.32483784  0.60524131  1
  H+  H205  1  0.86755233  0.88073120  0.66323554  1
  H+  H206  1  0.63079897  0.11997999  0.98744404  1
  H+  H207  1  0.89625749  0.88446242  0.50288193  1
  H+  H208  1  0.71989190  0.10543650  0.33663005  1
  H+  H209  1  0.63663090  0.10606695  0.51298331  1
  H+  H210  1  0.85948609  0.12859505  0.82084404  1
  H+  H211  1  0.22606452  0.36733931  0.51000130  1
  H+  H212  1  1.01988908  0.89278218  0.16582768  1
  H+  H213  1  0.52760279  0.62353090  0.66004731  1
  H+  H214  1  0.10508333  0.88593346  0.16326452  1
  H+  H215  1  0.95038079  0.27681268  0.96808017  1
  H+  H216  1  0.50382538  0.88891407  0.00550755  1
  H+  H217  1  0.26483635  0.27294897  0.61488652  1
  H+  H218  1  0.86735609  0.13228013  0.15718693  1
  H+  H219  1  0.33305617  0.66442410  0.10120114  1
  H+  H220  1  0.38326153  0.52872359  0.32494983  1
  H+  H221  1  0.86815121  0.75598554  0.33099200  1
  H+  H222  1  0.13628893  1.02673363  0.17758795  1
  H+  H223  1  0.39511855  0.36150369  0.99073302  1
  H+  H224  1  0.62873003  0.47123713  0.00149129  1
  H+  H225  1  0.05185087  0.93556531  0.30628425  1
  H+  H226  1  0.40451436  0.56448932  0.55940640  1
  H+  H227  1  0.88117162  0.66571609  0.80745192  1
  H+  H228  1  0.13711583  0.36018101  0.17355948  1
  H+  H229  1  0.65259628  0.62417575  0.65418004  1
  H+  H230  1  0.64836669  0.24098723  0.83303661  1
  H+  H231  1  0.73540366  0.62773822  0.83759863  1
  H+  H232  1  0.11184672  0.64199190  0.33746646  1
  H+  H233  1  0.40618286  0.57425786  0.94050057  1
  H+  H234  1  0.41971359  0.33404557  0.88917422  1
  H+  H235  1  0.38386593  0.51116716  0.65586497  1
  H+  H236  1  0.55920188  0.15028574  0.64644254  1
  H+  H237  1  0.11715133  0.10088881  0.83252939  1
  H+  H238  1  0.56248416  0.88956254  0.72821794  1
  H+  H239  1  0.38428435  0.76849165  0.99474781  1
  H+  H240  1  0.34184256  0.37448364  0.67803501  1
  H+  H241  1  0.75904202  0.11795939  0.81738076  1
  H+  H242  1  0.78579446  0.38454971  0.14952520  1
  H+  H243  1  0.87950364  0.24130522  0.67951060  1
  H+  H244  1  0.13271637  0.86626981  0.32146671  1
  H+  H245  1  0.35747508  0.48404798  0.15485684  1
  H+  H246  1  0.13883150  0.37185531  0.52552640  1
  H+  H247  1  0.10442778  0.55756792  0.67289122  1
  H+  H248  1  0.43613449  0.12115700  0.67991078  1
  H+  H249  1  0.08241103  0.17713881  0.43534664  1
  H+  H250  1  0.07545040  0.41550461  0.26411230  1
  H+  H251  1  0.36141104  0.71874498  0.16401424  1
  H+  H252  1  0.35946136  0.23341079  0.16361842  1
  H+  H253  1  0.84562162  0.94000031  0.01735727  1
  H+  H254  1  0.03114222  0.38838496  0.00943167  1
  H+  H255  1  0.39547638  0.05656186  0.18683720  1
  H+  H256  1  0.11874061  0.71066158  0.49570296  1
  H+  H257  1  0.07628879  0.70688369  1.00374793  1
  H+  H258  1  0.26236998  0.87141928  0.83049269  1
  H+  H259  1  0.57563924  0.65665983  0.09843797  1
  H+  H260  1  0.88712924  0.76121815  -0.00927309  1
  H+  H261  1  0.60888019  0.97438933  0.49213303  1
  H+  H262  1  0.60788285  0.22014514  0.35480411  1
  H+  H263  1  0.63104898  0.10924704  0.33966604  1
  H+  H264  1  0.38724163  0.27983422  0.33585808  1
  H+  H265  1  0.13640360  0.27429824  0.32791598  1
  H+  H266  1  0.06404125  0.96218068  0.64362431  1
  H+  H267  1  0.35915720  0.30723145  0.58889799  1
  H+  H268  1  0.26774297  0.89112929  0.33437034  1
  H+  H269  1  0.22577810  0.61112444  0.17001395  1
  H+  H270  1  0.37158456  0.37599848  0.49893994  1
  H+  H271  1  0.84109822  0.93764601  0.44113128  1
  H+  H272  1  0.06962387  0.65503936  0.10169558  1
  H+  H273  1  0.36611182  0.47767158  0.00822374  1
  H+  H274  1  0.46893975  0.85539825  0.17551942  1
  H+  H275  1  0.61392487  0.68755325  1.00039943  1
  H+  H276  1  0.04729887  0.86178169  0.66874738  1
  H+  H277  1  0.46683630  0.60506278  0.16683807  1
  H+  H278  1  0.15359182  0.04108768  0.32899837  1
  H+  H279  1  0.52543677  0.14128452  0.50828411  1
  H+  H280  1  0.51978395  0.38772601  0.34029429  1
  H+  H281  1  0.61933059  0.51889199  0.49488843  1
  H+  H282  1  0.29799619  0.18464748  0.65463313  1
  H+  H283  1  0.52213246  0.64509675  0.32861793  1
  H+  H284  1  0.13165641  0.04936226  0.58114810  1
  H+  H285  1  0.35666484  0.98256083  0.33218177  1
  H+  H286  1  0.62361436  0.65136417  0.81729093  1
  H+  H287  1  0.87160674  0.56848121  0.87921056  1
  H+  H288  1  0.91747974  0.57122671  0.27407536  1
  H+  H289  1  0.37506492  0.24537864  0.50444389  1
  H+  H290  1  0.68965627  0.29714913  0.89389371  1
  H+  H291  1  0.93820937  0.33783148  0.92355486  1
  H+  H292  1  0.11262972  0.77256901  0.68516095  1
  H+  H293  1  0.92724664  0.11538058  0.88906871  1
  H+  H294  1  0.82643309  0.16611272  0.09805161  1
  H+  H295  1  0.40656200  0.82319264  0.59314835  1
  H+  H296  1  0.58023455  0.41399754  0.39958460  1
  H+  H297  1  0.90827297  0.83262131  0.23941069  1
  H+  H298  1  0.17247209  0.32992827  0.26691738  1
  H+  H299  1  0.62068698  0.84703603  0.50431184  1
  H+  H300  1  0.13549602  0.35176791  0.83905358  1
  H+  H301  1  0.02339112  0.38239192  0.66535328  1
  H+  H302  1  0.33160566  0.66479398  0.42924782  1
  H+  H303  1  0.30117217  0.17094251  0.75324635  1
  H+  H304  1  0.30184383  0.87673396  0.05931238  1
  H+  H305  1  0.87102276  0.23013600  0.16070296  1
  H+  H306  1  0.51753051  0.38083329  0.49207247  1
  H+  H307  1  0.31372599  0.65653875  0.77913718  1
  H+  H308  1  0.76054891  0.88433350  0.16709971  1
  H+  H309  1  0.57904134  0.15722613  0.75535994  1
  H+  H310  1  0.83973543  0.91034343  0.72301834  1
  H+  H311  1  0.33893902  0.17976601  0.40935524  1
  H+  H312  1  0.21920069  0.76307515  0.57025614  1
  H+  H313  1  0.67858642  0.34766596  0.59696153  1
  H+  H314  1  0.42213362  0.10712557  0.27535706  1
  H+  H315  1  0.07084665  0.94184027  0.38442992  1
  H+  H316  1  0.94508788  0.57293073  0.91813618  1
  H+  H317  1  0.81781998  0.65195499  0.43917404  1
  H+  H318  1  0.07806560  0.91664597  0.06734366  1
  H+  H319  1  0.66259327  0.07755278  0.88967592  1
  H+  H320  1  0.85401421  0.62772178  0.34090873  1
  H+  H321  1  0.11304804  0.47572157  0.16510677  1
  H+  H322  1  0.68379252  0.08593070  0.60533461  1
  H+  H323  1  0.14792491  0.82385808  0.90044248  1
  H+  H324  1  0.06461072  0.15852671  0.75363726  1
  H+  H325  1  0.83395504  0.16458812  0.75627529  1
  H+  H326  1  0.37962386  0.76540460  0.84522848  1
  H+  H327  1  0.36019901  0.64046461  0.33343865  1
  H+  H328  1  0.41784684  0.69670689  0.71574473  1
  H+  H329  1  0.41098361  0.82632818  0.93336376  1
  H+  H330  1  0.70998083  0.60650985  0.50041392  1
  H+  H331  1  0.08208806  0.41255531  0.10801685  1
  H+  H332  1  0.81847611  0.89349106  0.08180251  1
  H+  H333  1  0.26066835  0.63785840  0.84200946  1
  H+  H334  1  0.41133787  0.32673708  0.23944919  1
  H+  H335  1  0.82899203  0.68013885  0.09254724  1
  H+  H336  1  0.32949951  0.90230556  0.77531008  1
  H+  H337  1  0.60676797  0.62315226  0.49423491  1
  H+  H338  1  0.87541037  0.63444053  0.01381961  1
  H+  H339  1  0.90269866  0.16473511  0.68469000  1
  H+  H340  1  0.09268257  0.43870175  0.75259457  1
  H+  H341  1  0.07868888  0.66457226  0.43203930  1
  H+  H342  1  0.00895309  0.91845124  0.46867972  1
  H+  H343  1  0.71828686  0.93901082  0.88179549  1
  H+  H344  1  0.83166164  0.15749692  0.44360255  1
  H+  H345  1  0.59995344  0.72150829  0.50020229  1
  H+  H346  1  0.65618203  0.82946921  0.23061037  1
  H+  H347  1  0.40783104  0.58129253  0.26288309  1
  H+  H348  1  0.83140100  0.41342210  0.43611293  1
  H+  H349  1  0.33668365  0.42097235  0.39650920  1
  H+  H350  1  0.40827528  0.08456334  0.57313584  1
  H+  H351  1  0.05450108  0.67249322  0.76408268  1
  H+  H352  1  0.93547166  0.53963873  1.01098117  1
  H+  H353  1  0.60638337  0.28980608  0.28139338  1
  H+  H354  1  0.91538093  0.57981496  0.56647381  1
  H+  H355  1  0.41783133  0.83695289  0.26940884  1
  H+  H356  1  0.67327806  0.59223237  0.89493602  1
  H+  H357  1  0.57255316  0.42458549  0.11492139  1
  H+  H358  1  0.68147396  0.84596507  0.90660992  1
  H+  H359  1  0.90714630  0.32887437  0.60406083  1
  H+  H360  1  0.58036127  0.16239012  0.44729796  1
  H+  H361  1  0.52475291  0.40053081  0.80800911  1
  H+  H362  1  0.85411205  0.12611840  0.34354061  1
  H+  H363  1  0.15265704  0.07880460  0.89480325  1
  H+  H364  1  0.32873723  0.17318792  0.10224814  1
  H+  H365  1  0.88802523  0.53030413  0.66301578  1
  H+  H366  1  0.84105910  0.42103322  0.73142015  1
  H+  H367  1  0.17884240  0.10034265  0.27113736  1
  H+  H368  1  0.16651292  0.58541488  0.91481311  1
  H+  H369  1  0.15623327  0.82652199  0.23293719  1
  H+  H370  1  0.85033078  0.37408084  0.33980939  1
  H+  H371  1  0.32693861  0.41890209  0.08917283  1
  H+  H372  1  0.37375386  1.00761479  0.01120445  1
  H+  H373  1  0.66037183  0.58214258  0.26868445  1
  H+  H374  1  0.16780190  0.58923042  0.23024002  1
  H+  H375  1  0.57379047  0.91946540  0.40923563  1
  H+  H376  1  0.58922541  0.37466894  0.03284629  1
  H+  H377  1  0.94470110  0.86142796  0.55407466  1
  H+  H378  1  0.22594811  0.61935360  0.32478516  1
  H+  H379  1  0.89818934  0.31508114  0.26923928  1
  H+  H380  1  0.37844474  0.07513881  0.92359016  1
  H+  H381  1  0.63769979  0.76706566  0.65297169  1
  H+  H382  1  0.69729692  0.35984360  0.22481542  1
  H+  H383  1  0.32589498  0.41578700  0.77427116  1
  O2-  O384  1  0.07788108  0.16301145  0.15153536  1
  O2-  O385  1  0.08637901  0.17715455  0.48053336  1
  O2-  O386  1  0.06984964  0.15456075  0.80168419  1
  O2-  O387  1  0.08181371  0.41300444  0.15383070  1
  O2-  O388  1  0.08243958  0.41880447  0.53851100  1
  O2-  O389  1  0.07891991  0.46011683  0.79010875  1
  O2-  O390  1  0.07885733  0.65920680  0.14649526  1
  O2-  O391  1  0.07498737  0.65581615  0.47701140  1
  O2-  O392  1  0.03546475  0.69098490  0.80057675  1
  O2-  O393  1  0.07931372  0.92072495  0.14896642  1
  O2-  O394  1  0.05521985  0.96121261  0.43801918  1
  O2-  O395  1  0.08371897  0.91885921  0.81987812  1
  O2-  O396  1  0.32803398  0.17158049  0.14779809  1
  O2-  O397  1  0.34244015  0.18638863  0.48813477  1
  O2-  O398  1  0.31170101  0.19315035  0.79517651  1
  O2-  O399  1  0.32459416  0.42170765  0.13720799  1
  O2-  O400  1  0.32092793  0.38354305  0.47073231  1
  O2-  O401  1  0.32258308  0.41186125  0.81950948  1
  O2-  O402  1  0.32936312  0.65909535  0.14688126  1
  O2-  O403  1  0.33265446  0.66690156  0.47466491  1
  O2-  O404  1  0.32078466  0.66363008  0.82344335  1
  O2-  O405  1  0.30638808  0.87390019  0.13991804  1
  O2-  O406  1  0.38692339  0.95399884  0.46141830  1
  O2-  O407  1  0.32301419  0.89276385  0.81940268  1
  O2-  O408  1  0.58566390  0.17551840  0.14519510  1
  O2-  O409  1  0.58520772  0.16537026  0.49249670  1
  O2-  O410  1  0.56576483  0.14599538  0.79910717  1
  O2-  O411  1  0.58899160  0.42427819  0.15711159  1
  O2-  O412  1  0.57633759  0.40905599  0.47391286  1
  O2-  O413  1  0.58347944  0.43293962  0.79066648  1
  O2-  O414  1  0.57070220  0.66110142  0.14360695  1
  O2-  O415  1  0.57203486  0.65777170  0.48285154  1
  O2-  O416  1  0.59670699  0.67927256  0.79429906  1
  O2-  O417  1  0.56965442  0.91054060  0.14913517  1
  O2-  O418  1  0.57575099  0.91597873  0.47161823  1
  O2-  O419  1  0.56855325  0.90639584  0.81060478  1
  O2-  O420  1  0.83866146  0.16777142  0.14365635  1
  O2-  O421  1  0.83009228  0.15900354  0.48867253  1
  O2-  O422  1  0.82196355  0.15218694  0.80382130  1
  O2-  O423  1  0.84680602  0.40600457  0.13768998  1
  O2-  O424  1  0.83193342  0.41223109  0.48125477  1
  O2-  O425  1  0.84244952  0.40343950  0.80569256  1
  O2-  O426  1  0.81917500  0.68864300  0.13705379  1
  O2-  O427  1  0.80810295  0.64432731  0.48342875  1
  O2-  O428  1  0.84059181  0.68656275  0.80359528  1
  O2-  O429  1  0.82213983  0.91623864  0.15243093  1
  O2-  O430  1  0.84158827  0.93215777  0.48558788  1
  O2-  O431  1  0.85213289  0.92743676  0.81149444  1
  O2-  O432  1  0.16534542  0.08754289  0.19216368  1
  O2-  O433  1  0.16581937  0.09135116  0.51229018  1
  O2-  O434  1  0.14826775  0.07207210  0.84967265  1
  O2-  O435  1  0.17099723  0.33206497  0.18552157  1
  O2-  O436  1  0.16765425  0.33590079  0.52812355  1
  O2-  O437  1  0.16320793  0.32138643  0.85553231  1
  O2-  O438  1  0.16459677  0.58211588  0.18473569  1
  O2-  O439  1  0.16520083  0.58196928  0.52011564  1
  O2-  O440  1  0.16851538  0.59471826  0.87027016  1
  O2-  O441  1  0.15431462  0.82573388  0.18703302  1
  O2-  O442  1  0.20820100  0.79281887  0.53739584  1
  O2-  O443  1  0.15197303  0.83262457  0.85537732  1
  O2-  O444  1  0.42554108  0.11775293  0.19539319  1
  O2-  O445  1  0.41695455  0.09477349  0.52858068  1
  O2-  O446  1  0.35766202  0.07624679  0.88250464  1
  O2-  O447  1  0.41287472  0.32476271  0.19415456  1
  O2-  O448  1  0.42175602  0.35833728  0.53054040  1
  O2-  O449  1  0.41923950  0.34314849  0.84478533  1
  O2-  O450  1  0.40561363  0.57241131  0.18127050  1
  O2-  O451  1  0.40485803  0.56990009  0.51366732  1
  O2-  O452  1  0.39685529  0.57404185  0.87103130  1
  O2-  O453  1  0.40958760  0.82064702  0.19357129  1
  O2-  O454  1  0.41545379  0.82979714  0.51345189  1
  O2-  O455  1  0.41299259  0.82664406  0.85983782  1
  O2-  O456  1  0.64418288  0.06834254  0.19329363  1
  O2-  O457  1  0.66316603  0.07040493  0.52285017  1
  O2-  O458  1  0.66516135  0.07176372  0.84489909  1
  O2-  O459  1  0.68562828  0.35021709  0.18111836  1
  O2-  O460  1  0.66798344  0.33844437  0.52012607  1
  O2-  O461  1  0.70238790  0.28562869  0.85245055  1
  O2-  O462  1  0.65716924  0.58807987  0.18806272  1
  O2-  O463  1  0.64592487  0.57903614  0.50930315  1
  O2-  O464  1  0.67430201  0.59851236  0.85081596  1
  O2-  O465  1  0.65592168  0.82808515  0.18473572  1
  O2-  O466  1  0.63881069  0.80793859  0.52083546  1
  O2-  O467  1  0.69384484  0.87966680  0.86817188  1
  O2-  O468  1  0.90906067  0.08472838  0.18363186  1
  O2-  O469  1  0.93510130  0.09814008  0.54357448  1
  O2-  O470  1  0.91793358  0.09642867  0.84613676  1
  O2-  O471  1  0.91388020  0.31906247  0.18751691  1
  O2-  O472  1  0.90900441  0.32578288  0.52646659  1
  O2-  O473  1  0.93880754  0.34294264  0.85534180  1
  O2-  O474  1  0.92874475  0.55930643  0.19398691  1
  O2-  O475  1  0.91091402  0.57457232  0.52136182  1
  O2-  O476  1  0.92120977  0.56050201  0.87623094  1
  O2-  O477  1  0.91270404  0.84487035  0.19459957  1
  O2-  O478  1  0.93768301  0.86282543  0.50936307  1
  O2-  O479  1  0.92467582  0.84204082  0.85584999  1
  O2-  O480  1  0.18033780  0.10266816  0.31659505  1
  O2-  O481  1  0.11899745  0.03519882  0.62557629  1
  O2-  O482  1  0.16260036  0.07813636  0.97393171  1
  O2-  O483  1  0.16921059  0.33474212  0.31178037  1
  O2-  O484  1  0.16322426  0.32338110  0.65066100  1
  O2-  O485  1  0.17179164  0.34114397  0.97876552  1
  O2-  O486  1  0.16613693  0.59225054  0.30757690  1
  O2-  O487  1  0.07056264  0.56515853  0.70482310  1
  O2-  O488  1  0.16478675  0.58441851  0.99500867  1
  O2-  O489  1  0.16326555  0.83500461  0.30904628  1
  O2-  O490  1  0.12197815  0.83001080  0.67628169  1
  O2-  O491  1  0.13895991  0.81030213  0.97937049  1
  O2-  O492  1  0.41791491  0.09421041  0.31965586  1
  O2-  O493  1  0.39574569  0.07633065  0.65262013  1
  O2-  O494  1  0.40115298  0.07094584  1.00756811  1
  O2-  O495  1  0.41790277  0.33832672  0.31698476  1
  O2-  O496  1  0.32123642  0.28180672  0.62620694  1
  O2-  O497  1  0.41815267  0.32652014  0.97321375  1
  O2-  O498  1  0.40992340  0.58812525  0.30773262  1
  O2-  O499  1  0.41586500  0.56824786  0.63498127  1
  O2-  O500  1  0.41062314  0.57410013  0.98741452  1
  O2-  O501  1  0.41972225  0.84290927  0.31508079  1
  O2-  O502  1  0.40408030  0.81957381  0.63839007  1
  O2-  O503  1  0.41020185  0.82888477  0.97953673  1
  O2-  O504  1  0.65719972  0.07522425  0.32381746  1
  O2-  O505  1  0.69008907  0.10101831  0.64904165  1
  O2-  O506  1  0.66061687  0.08795135  0.97351494  1
  O2-  O507  1  0.64577978  0.32336127  0.31397674  1
  O2-  O508  1  0.68121351  0.35138768  0.64253473  1
  O2-  O509  1  0.68856834  0.32774274  0.97121356  1
  O2-  O510  1  0.66194914  0.58252767  0.31380624  1
  O2-  O511  1  0.68861079  0.59716872  0.64330322  1
  O2-  O512  1  0.67505535  0.56028814  1.01478845  1
  O2-  O513  1  0.66585231  0.83691876  0.30720048  1
  O2-  O514  1  0.66412048  0.82835316  0.64084717  1
  O2-  O515  1  0.66722058  0.80110426  0.97902995  1
  O2-  O516  1  0.91456582  0.08343529  0.31448968  1
  O2-  O517  1  0.96977330  0.12932337  0.66800773  1
  O2-  O518  1  0.94344227  0.17244215  0.96316288  1
  O2-  O519  1  0.90026491  0.31860540  0.31435927  1
  O2-  O520  1  0.91464265  0.33432184  0.64938299  1
  O2-  O521  1  0.93797108  0.32468635  0.97002944  1
  O2-  O522  1  0.91325435  0.57605589  0.31863791  1
  O2-  O523  1  0.92171791  0.59024776  0.64608341  1
  O2-  O524  1  0.96016896  0.60161944  0.99822588  1
  O2-  O525  1  0.90144872  0.81857321  0.31754887  1
  O2-  O526  1  0.93656775  0.84695884  0.63436150  1
  O2-  O527  1  0.91335655  0.82310739  0.97887037  1
  O2-  O528  1  0.14174628  0.19259322  0.03502701  1
  O2-  O529  1  0.08224828  0.17247436  0.35537864  1
  O2-  O530  1  0.05997879  0.17001271  0.68750027  1
  O2-  O531  1  0.08806866  0.41778742  0.03086064  1
  O2-  O532  1  0.07670601  0.41461249  0.30847616  1
  O2-  O533  1  0.08727843  0.41834797  0.66859618  1
  O2-  O534  1  0.04929854  0.64670663  0.02216457  1
  O2-  O535  1  0.08187764  0.67203897  0.35343509  1
  O2-  O536  1  0.07534632  0.64713571  0.68997508  1
  O2-  O537  1  0.07912729  0.91476213  0.02203105  1
  O2-  O538  1  0.08772132  0.92975809  0.33694616  1
  O2-  O539  1  0.01816855  0.89707420  0.66857423  1
  O2-  O540  1  0.32372822  0.16491877  0.02339334  1
  O2-  O541  1  0.34054319  0.17776209  0.36394226  1
  O2-  O542  1  0.27400600  0.12750254  0.67520300  1
  O2-  O543  1  0.33468187  0.41531680  0.02343487  1
  O2-  O544  1  0.33669514  0.42529670  0.35110191  1
  O2-  O545  1  0.32494787  0.41521524  0.69430018  1
  O2-  O546  1  0.33577376  0.66616491  0.02514961  1
  O2-  O547  1  0.32887354  0.66902716  0.35066148  1
  O2-  O548  1  0.36307777  0.66916436  0.69412912  1
  O2-  O549  1  0.30644398  0.89009352  0.01525041  1
  O2-  O550  1  0.32984163  0.92205677  0.34693786  1
  O2-  O551  1  0.39108619  0.93844232  0.70024579  1
  O2-  O552  1  0.58227605  0.16789841  0.01977504  1
  O2-  O553  1  0.57770037  0.15919024  0.36778916  1
  O2-  O554  1  0.60771590  0.18056822  0.67394068  1
  O2-  O555  1  0.59188039  0.40188825  -0.00596173  1
  O2-  O556  1  0.58163171  0.41538534  0.35359844  1
  O2-  O557  1  0.60944903  0.44803040  0.67366636  1
  O2-  O558  1  0.57935830  0.63290521  0.02225623  1
  O2-  O559  1  0.58328541  0.67879656  0.34065655  1
  O2-  O560  1  0.58803397  0.65811272  0.67423223  1
  O2-  O561  1  0.56480661  0.92659515  0.02237859  1
  O2-  O562  1  0.57454115  0.92243834  0.35929793  1
  O2-  O563  1  0.55639705  0.88142096  0.68373576  1
  O2-  O564  1  0.81251863  0.16928598  0.02688616  1
  O2-  O565  1  0.82107550  0.15308510  0.35989181  1
  O2-  O566  1  0.85720864  0.18022120  0.69415919  1
  O2-  O567  1  0.86597178  0.42689608  0.01511860  1
  O2-  O568  1  0.82335542  0.40766406  0.35477813  1
  O2-  O569  1  0.84333006  0.42792297  0.68591031  1
  O2-  O570  1  0.83951958  0.66085726  0.02110072  1
  O2-  O571  1  0.82453550  0.65879170  0.35512013  1
  O2-  O572  1  0.84969132  0.68829687  0.67728514  1
  O2-  O573  1  0.81678422  0.88288036  0.03603575  1
  O2-  O574  1  0.83087883  0.92115453  0.35390664  1
  O2-  O575  1  0.82586384  0.89690137  0.67991476  1
