# generated using pymatgen
data_H2O
_symmetry_space_group_name_H-M   'P 1'
_cell_length_a   17.99916815
_cell_length_b   17.99870450
_cell_length_c   22.01990917
_cell_angle_alpha   89.99836621
_cell_angle_beta   90.00178477
_cell_angle_gamma   119.99551673
_symmetry_Int_Tables_number   1
_chemical_formula_structural   H2O
_chemical_formula_sum   'H384 O192'
_cell_volume   6178.16430341
_cell_formula_units_Z   192
loop_
 _symmetry_equiv_pos_site_id
 _symmetry_equiv_pos_as_xyz
  1  'x, y, z'
loop_
 _atom_type_symbol
 _atom_type_oxidation_number
  H+  1.0
  O2-  -2.0
loop_
 _atom_site_type_symbol
 _atom_site_label
 _atom_site_symmetry_multiplicity
 _atom_site_fract_x
 _atom_site_fract_y
 _atom_site_fract_z
 _atom_site_occupancy
  H+  H0  1  0.91384360  0.01524791  0.52296939  1
  H+  H1  1  0.16058989  0.81938130  0.88694612  1
  H+  H2  1  0.12463358  0.70196679  0.83448111  1
  H+  H3  1  0.34875504  0.64199340  0.15468526  1
  H+  H4  1  0.60921564  0.85910097  0.83078956  1
  H+  H5  1  0.15541573  -0.01616171  0.33835402  1
  H+  H6  1  0.99231490  0.88149818  0.48730094  1
  H+  H7  1  0.59571598  0.44975616  0.50155310  1
  H+  H8  1  0.95865482  0.60611300  0.32991254  1
  H+  H9  1  0.24962713  0.12832335  0.99417319  1
  H+  H10  1  0.26660161  0.87414031  0.67288345  1
  H+  H11  1  0.26724793  0.14814946  0.68534550  1
  H+  H12  1  0.62769250  0.27819116  0.32504307  1
  H+  H13  1  0.22707984  0.62363003  0.50790379  1
  H+  H14  1  0.96900776  0.83519452  0.33587529  1
  H+  H15  1  0.05960288  0.05922494  0.54297729  1
  H+  H16  1  0.11246241  0.39730568  0.15220928  1
  H+  H17  1  0.88996890  0.37270928  0.67256604  1
  H+  H18  1  0.14087697  0.37100765  0.84542145  1
  H+  H19  1  0.53604396  0.14145231  0.17506555  1
  H+  H20  1  0.79328243  0.26690411  0.46968819  1
  H+  H21  1  0.10279729  0.00888730  0.51563215  1
  H+  H22  1  0.35772907  0.10288097  0.51157372  1
  H+  H23  1  0.80587023  0.41856376  0.03868378  1
  H+  H24  1  0.89271054  0.37208401  0.52085323  1
  H+  H25  1  0.60670209  0.17245683  0.12393648  1
  H+  H26  1  0.90508241  0.61495185  0.51734790  1
  H+  H27  1  0.61032285  0.99142299  0.34279340  1
  H+  H28  1  0.69279175  0.55557697  0.45756927  1
  H+  H29  1  0.72595910  0.11069718  0.32830987  1
  H+  H30  1  0.86894117  0.98202473  0.68195152  1
  H+  H31  1  0.90865333  0.29107617  0.52159450  1
  H+  H32  1  0.76141633  0.61305668  -0.00417868  1
  H+  H33  1  0.48180998  0.85429901  0.84744883  1
  H+  H34  1  0.11871280  0.72905144  0.49908072  1
  H+  H35  1  0.36887377  0.53306348  0.17393587  1
  H+  H36  1  0.64004574  1.02393365  0.51526017  1
  H+  H37  1  0.27462196  0.89925029  0.15992778  1
  H+  H38  1  0.38903314  0.34039408  0.51113336  1
  H+  H39  1  0.62646457  0.49608639  0.18925434  1
  H+  H40  1  0.36745706  0.24770128  0.68479720  1
  H+  H41  1  0.37415569  0.61683168  0.67985277  1
  H+  H42  1  0.02760446  0.14803711  0.49389996  1
  H+  H43  1  0.41156161  0.58326544  0.45208208  1
  H+  H44  1  0.03170483  0.62769558  0.00445218  1
  H+  H45  1  0.89821837  0.60771702  0.98646446  1
  H+  H46  1  0.80971677  0.91356642  0.08649206  1
  H+  H47  1  0.77754555  0.38534548  0.82041241  1
  H+  H48  1  0.07625004  0.09171062  -0.02519794  1
  H+  H49  1  0.59165774  0.65469140  0.14538187  1
  H+  H50  1  0.37395635  0.60955145  0.98811847  1
  H+  H51  1  0.36832656  0.73450914  0.33908586  1
  H+  H52  1  0.11361837  0.98335192  0.33272848  1
  H+  H53  1  0.76730191  0.87085334  0.82775102  1
  H+  H54  1  0.35818293  -0.02488566  0.48959645  1
  H+  H55  1  0.61364991  0.12660630  0.82715968  1
  H+  H56  1  0.07991033  0.17869444  0.08905438  1
  H+  H57  1  0.35434757  0.47782514  0.68733931  1
  H+  H58  1  0.12039639  0.64078276  0.49706723  1
  H+  H59  1  0.59457680  0.19260225  0.02725884  1
  H+  H60  1  0.93328912  0.30655986  0.26811364  1
  H+  H61  1  0.11330994  0.48684590  0.68322088  1
  H+  H62  1  0.13880030  0.29217369  0.99395103  1
  H+  H63  1  0.47612875  0.10767014  0.83764700  1
  H+  H64  1  0.67865217  0.34292526  0.88009743  1
  H+  H65  1  0.86014772  0.20501913  0.33989009  1
  H+  H66  1  0.90870764  0.79376719  0.67010288  1
  H+  H67  1  0.98581445  0.12018744  0.67214729  1
  H+  H68  1  0.26477009  0.38883422  0.68097846  1
  H+  H69  1  0.87412140  0.21746186  0.16430779  1
  H+  H70  1  0.11491069  0.15811096  0.48099905  1
  H+  H71  1  0.89421147  0.11370008  0.17027265  1
  H+  H72  1  0.26328761  0.40789682  0.15312761  1
  H+  H73  1  0.13631583  0.37309286  0.67040191  1
  H+  H74  1  0.72294288  0.11441576  -0.00604392  1
  H+  H75  1  0.64378674  0.84587701  0.66846838  1
  H+  H76  1  0.02205535  0.64187892  0.16226798  1
  H+  H77  1  -0.00955459  0.61184642  0.50865380  1
  H+  H78  1  0.23516820  0.12606874  0.83645772  1
  H+  H79  1  0.37554714  0.85316337  0.66027158  1
  H+  H80  1  0.03306842  0.40394655  0.49557422  1
  H+  H81  1  0.64438454  0.27373487  0.82628252  1
  H+  H82  1  0.84800316  0.86180195  0.00752266  1
  H+  H83  1  0.26126307  0.64328987  0.15280715  1
  H+  H84  1  0.87903406  0.72818133  0.82100598  1
  H+  H85  1  0.59425644  0.86224324  0.15488185  1
  H+  H86  1  0.11548233  0.14769091  0.83190572  1
  H+  H87  1  0.26740034  0.14670715  0.46296832  1
  H+  H88  1  0.09573727  0.84025694  0.34310529  1
  H+  H89  1  0.11317902  0.48659066  0.33922014  1
  H+  H90  1  0.39727457  0.86238491  0.83831636  1
  H+  H91  1  0.97609024  0.87044283  0.84903160  1
  H+  H92  1  0.84987963  0.22742004  1.00701826  1
  H+  H93  1  0.38072265  0.36981288  0.67073606  1
  H+  H94  1  0.79019866  0.38079728  0.17772281  1
  H+  H95  1  0.37070554  0.97451979  0.82286658  1
  H+  H96  1  0.78074005  0.13421918  0.83005884  1
  H+  H97  1  0.12028387  0.85105749  0.98115004  1
  H+  H98  1  0.37822388  0.15180619  0.00144643  1
  H+  H99  1  0.16858362  1.03509976  -0.01166449  1
  H+  H100  1  0.11753789  0.89487560  0.15251118  1
  H+  H101  1  0.16252500  0.96394814  0.45195713  1
  H+  H102  1  0.12054940  0.47758287  0.84468278  1
  H+  H103  1  0.45198859  0.12100058  0.49682694  1
  H+  H104  1  0.50173341  0.88932967  0.68313306  1
  H+  H105  1  0.38728866  1.03179389  -0.00838506  1
  H+  H106  1  -0.01155364  0.86871938  0.01450787  1
  H+  H107  1  0.62882307  0.54120244  0.67959389  1
  H+  H108  1  0.78303921  0.88756821  0.68083784  1
  H+  H109  1  0.78336627  0.12727478  0.16526659  1
  H+  H110  1  0.11678816  0.23653088  0.68043363  1
  H+  H111  1  0.63934967  0.01048730  0.17427371  1
  H+  H112  1  0.74611486  0.87287747  0.48998736  1
  H+  H113  1  0.37513422  0.24245931  0.15356896  1
  H+  H114  1  0.11764902  0.76129759  0.98280359  1
  H+  H115  1  0.71488140  0.36594832  0.33826387  1
  H+  H116  1  0.11426336  0.91331703  0.86369621  1
  H+  H117  1  0.65797354  0.28348119  0.96090827  1
  H+  H118  1  0.59200704  0.44637583  0.78223803  1
  H+  H119  1  0.23606126  0.60503933  0.85627899  1
  H+  H120  1  0.86816178  0.47699793  0.51054994  1
  H+  H121  1  0.22928594  0.86052350  0.31658925  1
  H+  H122  1  0.61866778  0.13728325  0.98222219  1
  H+  H123  1  0.08802337  0.43021504  0.43317566  1
  H+  H124  1  0.40622190  0.13122978  0.17147205  1
  H+  H125  1  0.47906833  0.35527974  0.83448766  1
  H+  H126  1  0.11167093  0.39744371  0.33821737  1
  H+  H127  1  0.36642962  0.48139234  0.00194831  1
  H+  H128  1  0.87140330  -0.11170728  0.48599645  1
  H+  H129  1  0.52739465  0.41698846  0.31597132  1
  H+  H130  1  0.13837081  0.28060877  0.84665805  1
  H+  H131  1  0.40738938  0.58418377  0.27080477  1
  H+  H132  1  0.17089360  0.83313947  0.57522689  1
  H+  H133  1  0.92320392  1.03076986  0.31636039  1
  H+  H134  1  0.65048913  0.77299853  0.49199555  1
  H+  H135  1  0.69665513  0.82522314  0.15248826  1
  H+  H136  1  0.87523272  0.36537394  0.99088306  1
  H+  H137  1  0.03990792  0.72219083  0.37153621  1
  H+  H138  1  0.55183981  0.64203519  0.49595019  1
  H+  H139  1  0.62452205  0.13578132  0.67346557  1
  H+  H140  1  0.37220470  0.24712742  0.52736142  1
  H+  H141  1  0.51849190  0.62483397  -0.00005508  1
  H+  H142  1  0.38076756  0.01946815  0.32565824  1
  H+  H143  1  0.62838476  1.02633141  -0.00680765  1
  H+  H144  1  0.51981550  0.38631347  1.01128723  1
  H+  H145  1  0.86990534  0.23250443  0.68175887  1
  H+  H146  1  0.54183931  0.54087453  0.13362952  1
  H+  H147  1  0.61174215  0.63758348  0.33782550  1
  H+  H148  1  0.27066619  0.16503928  0.36996804  1
  H+  H149  1  0.36218252  0.88534978  0.33624009  1
  H+  H150  1  0.88638023  0.88548605  0.18234597  1
  H+  H151  1  0.39401727  0.78980675  0.50520912  1
  H+  H152  1  0.64710782  0.76276591  0.68169282  1
  H+  H153  1  0.02878371  0.13593529  0.14881414  1
  H+  H154  1  0.52980957  0.96763632  0.72608711  1
  H+  H155  1  0.36985891  0.89308326  0.49349677  1
  H+  H156  1  0.98589286  0.35482856  0.17079654  1
  H+  H157  1  0.13077504  0.28469719  0.31825762  1
  H+  H158  1  0.08629010  0.17879783  0.74107684  1
  H+  H159  1  0.65693613  0.58888505  0.17086903  1
  H+  H160  1  0.74706960  0.37373132  -0.03581794  1
  H+  H161  1  0.27756159  0.39481271  0.00443583  1
  H+  H162  1  0.26061399  0.63530036  0.68020435  1
  H+  H163  1  0.38344140  0.86672709  0.17233316  1
  H+  H164  1  0.64638883  0.02815083  0.66983790  1
  H+  H165  1  0.89192561  1.02320859  0.16647245  1
  H+  H166  1  0.86921552  0.22502225  0.83124028  1
  H+  H167  1  0.36873615  0.77444069  0.99306833  1
  H+  H168  1  0.62923715  0.25691818  0.67070581  1
  H+  H169  1  0.53325714  0.88677131  0.50141585  1
  H+  H170  1  0.37597443  0.36419459  0.31276027  1
  H+  H171  1  0.37111210  0.63768012  0.82773395  1
  H+  H172  1  0.64218716  0.86702625  0.49293799  1
  H+  H173  1  0.76599793  0.59824550  0.65029814  1
  H+  H174  1  0.90052435  0.61017033  0.83964608  1
  H+  H175  1  0.61015025  0.13252694  0.33096108  1
  H+  H176  1  0.13605113  0.88697387  0.49894834  1
  H+  H177  1  0.90502209  0.87915824  0.67623258  1
  H+  H178  1  0.85581782  0.71886936  0.34683076  1
  H+  H179  1  0.90635249  0.51244829  0.18396460  1
  H+  H180  1  0.39167356  0.28769365  0.30414520  1
  H+  H181  1  0.88733007  0.10849626  0.84928693  1
  H+  H182  1  0.88737755  0.35993524  0.83694423  1
  H+  H183  1  0.88335675  0.01760951  0.84657250  1
  H+  H184  1  0.12212141  0.61516766  0.65753251  1
  H+  H185  1  1.01224031  0.12937516  0.31495068  1
  H+  H186  1  0.28639031  0.88156319  0.82324987  1
  H+  H187  1  0.13707362  0.28063703  0.16383939  1
  H+  H188  1  0.63025936  0.26709027  0.51854730  1
  H+  H189  1  0.64581210  0.01429188  0.84300340  1
  H+  H190  1  0.14796732  0.12666184  0.67996233  1
  H+  H191  1  0.81652034  0.91590170  0.32881777  1
  H+  H192  1  0.38810700  0.36917352  0.99157996  1
  H+  H193  1  0.84473933  0.47233321  0.34869586  1
  H+  H194  1  0.50241552  0.35217113  0.51502279  1
  H+  H195  1  0.85259209  0.40208285  0.11885218  1
  H+  H196  1  0.13818058  0.29080081  0.51250078  1
  H+  H197  1  0.80333766  0.65824243  0.50561200  1
  H+  H198  1  0.77391237  0.38711367  0.67911057  1
  H+  H199  1  0.59194010  0.12849038  0.49874228  1
  H+  H200  1  0.57969471  0.61209572  0.71820024  1
  H+  H201  1  0.47375877  0.10581773  0.32320448  1
  H+  H202  1  0.88274059  0.85930488  0.84329983  1
  H+  H203  1  0.13181366  0.53172597  0.16754994  1
  H+  H204  1  0.14107317  0.53100867  0.50682807  1
  H+  H205  1  0.00647358  0.38509590  0.00687555  1
  H+  H206  1  1.04286899  0.90261605  0.68775037  1
  H+  H207  1  0.15812887  0.12173982  0.13826001  1
  H+  H208  1  0.52858132  0.12337761  0.67018918  1
  H+  H209  1  0.89157757  0.51360038  0.98717876  1
  H+  H210  1  0.42200237  0.83897475  0.56878678  1
  H+  H211  1  0.38425347  0.14680790  0.33657566  1
  H+  H212  1  0.90962745  0.63322161  0.67377344  1
  H+  H213  1  0.66427465  0.28602265  0.18721918  1
  H+  H214  1  0.86920307  0.47386255  0.82727715  1
  H+  H215  1  0.34412738  0.49068940  0.34619093  1
  H+  H216  1  0.47590389  0.87308592  0.32743906  1
  H+  H217  1  0.72186097  0.84206141  0.97974223  1
  H+  H218  1  0.86511604  0.74463036  0.99474533  1
  H+  H219  1  0.39369228  1.01086062  0.65652639  1
  H+  H220  1  0.40823309  0.83451636  0.93587054  1
  H+  H221  1  0.53123087  0.46989224  0.69257621  1
  H+  H222  1  0.02258409  0.13930819  0.83445852  1
  H+  H223  1  0.92544953  0.76013593  0.13339653  1
  H+  H224  1  0.23319108  0.86091740  0.51512110  1
  H+  H225  1  0.37927484  0.76615699  0.66267236  1
  H+  H226  1  0.18192253  0.08121820  0.37690105  1
  H+  H227  1  0.59733668  0.66159057  0.43299408  1
  H+  H228  1  0.36842817  0.13651034  0.82742194  1
  H+  H229  1  0.83599406  0.42103538  0.73660286  1
  H+  H230  1  0.76652564  0.95589532  0.12466528  1
  H+  H231  1  0.59964006  0.69892813  0.79282419  1
  H+  H232  1  0.60930617  0.37435135  0.81135667  1
  H+  H233  1  0.61020992  0.47027093  0.01157554  1
  H+  H234  1  0.89746703  0.17742912  0.48490468  1
  H+  H235  1  0.25148540  0.12416957  0.14071498  1
  H+  H236  1  0.88299936  0.16978473  0.51762467  1
  H+  H237  1  0.39251421  0.36123770  0.84034955  1
  H+  H238  1  0.36245906  0.90159265  0.00633874  1
  H+  H239  1  0.37761173  0.24269684  0.00283621  1
  H+  H240  1  0.69436101  0.85037586  0.37988159  1
  H+  H241  1  0.58104620  0.90183936  0.77764413  1
  H+  H242  1  0.89381270  0.73957235  0.15885104  1
  H+  H243  1  0.51549099  0.87874608  0.16172637  1
  H+  H244  1  0.60186105  0.89890916  0.35196114  1
  H+  H245  1  0.13993417  1.00358221  0.14081368  1
  H+  H246  1  0.02666086  0.39690731  0.68801019  1
  H+  H247  1  0.45802849  0.62119327  0.17928433  1
  H+  H248  1  0.51467226  0.64570014  0.71121621  1
  H+  H249  1  0.66861099  0.08284082  0.57511109  1
  H+  H250  1  0.36113616  0.18884685  0.09199935  1
  H+  H251  1  0.14019190  0.82916522  0.81722473  1
  H+  H252  1  0.13317996  0.62182791  0.17064463  1
  H+  H253  1  0.63249881  0.59726187  0.98305158  1
  H+  H254  1  0.28064908  0.39145993  0.83678795  1
  H+  H255  1  0.03292584  0.61705959  0.83884494  1
  H+  H256  1  0.89588544  0.34620348  0.18381814  1
  H+  H257  1  0.36806743  0.64469830  0.34254328  1
  H+  H258  1  0.74790734  0.56049564  0.15517944  1
  H+  H259  1  0.89208939  0.89773287  0.34190015  1
  H+  H260  1  0.51001234  0.89693572  0.00960390  1
  H+  H261  1  0.64550919  0.59717668  0.49164391  1
  H+  H262  1  0.13671036  0.17039789  0.35441417  1
  H+  H263  1  0.63441832  0.74985880  -0.01675141  1
  H+  H264  1  0.46983218  0.60393674  0.32989001  1
  H+  H265  1  0.62708546  0.34451247  0.67793181  1
  H+  H266  1  0.90915264  0.79073525  0.49703006  1
  H+  H267  1  0.12779801  0.76330248  0.66263785  1
  H+  H268  1  0.40308817  0.52687765  0.83966681  1
  H+  H269  1  0.73255036  0.16691357  0.48813905  1
  H+  H270  1  0.74416756  0.62659791  0.83935824  1
  H+  H271  1  0.40282667  0.46032394  0.47907345  1
  H+  H272  1  0.33269806  0.90744442  0.72984710  1
  H+  H273  1  0.42315366  0.07480290  0.60020740  1
  H+  H274  1  0.23385383  0.12153224  0.52836499  1
  H+  H275  1  0.86728725  -0.04212102  1.00064613  1
  H+  H276  1  0.58995357  0.71091348  0.35403582  1
  H+  H277  1  0.14390412  0.38055180  0.51355505  1
  H+  H278  1  0.66616955  0.64352575  0.84895507  1
  H+  H279  1  0.12940729  0.78177410  0.16092473  1
  H+  H280  1  0.74063478  0.11454570  0.66764534  1
  H+  H281  1  0.85114681  0.62797568  0.34437884  1
  H+  H282  1  0.77510389  0.39087896  0.51498151  1
  H+  H283  1  0.36560397  -0.01282235  0.16292296  1
  H+  H284  1  0.36195409  0.66197580  0.49309862  1
  H+  H285  1  0.98543764  0.61839891  0.60576526  1
  H+  H286  1  0.42139321  0.33945501  0.93261085  1
  H+  H287  1  0.11966935  -0.00245441  0.83930156  1
  H+  H288  1  0.22725523  0.61479063  0.32348230  1
  H+  H289  1  0.83314966  0.91510316  0.77292558  1
  H+  H290  1  0.67095152  0.07844253  0.89882993  1
  H+  H291  1  0.81532665  0.62546252  0.05572663  1
  H+  H292  1  0.92516855  0.57585134  0.89954187  1
  H+  H293  1  0.33427291  0.44013437  0.10013620  1
  H+  H294  1  0.07893814  0.67015467  0.10060842  1
  H+  H295  1  0.39285286  0.56260761  0.52185801  1
  H+  H296  1  0.03544922  0.96786629  0.01544798  1
  H+  H297  1  0.42053578  0.09018473  0.23227964  1
  H+  H298  1  0.94506762  0.08628870  0.24840788  1
  H+  H299  1  0.41127142  0.58512121  0.93029378  1
  H+  H300  1  0.07290786  0.66754193  0.40357167  1
  H+  H301  1  0.90562669  0.32777320  0.93544689  1
  H+  H302  1  0.68836897  0.34934909  0.24257280  1
  H+  H303  1  0.67746320  0.84026945  0.30963592  1
  H+  H304  1  0.33449990  0.68329554  0.42915794  1
  H+  H305  1  0.98358327  0.91114753  0.18296219  1
  H+  H306  1  0.20944759  0.59879820  0.95389962  1
  H+  H307  1  0.34565718  0.93905144  0.06655678  1
  H+  H308  1  0.34109488  0.39385030  0.43137206  1
  H+  H309  1  0.18427530  0.12669427  0.26377694  1
  H+  H310  1  0.41603574  0.33733609  0.61571239  1
  H+  H311  1  0.55211472  0.42054826  0.09992584  1
  H+  H312  1  0.97772670  0.36327949  0.84358016  1
  H+  H313  1  0.92241174  0.84495495  0.27569565  1
  H+  H314  1  0.64421299  0.10196809  0.18039611  1
  H+  H315  1  0.58523003  0.63652787  0.05343208  1
  H+  H316  1  0.67138701  0.59782002  0.26941607  1
  H+  H317  1  0.92634589  0.34522645  0.61631198  1
  H+  H318  1  0.32216435  0.66454156  0.74007589  1
  H+  H319  1  0.07429127  0.42446383  0.09537703  1
  H+  H320  1  0.41638951  0.22735728  0.38087847  1
  H+  H321  1  0.84790066  0.67151638  0.44112689  1
  H+  H322  1  0.12884766  0.64482352  0.01409914  1
  H+  H323  1  0.37196770  0.22912793  0.83155973  1
  H+  H324  1  0.18394471  0.10355495  0.89879613  1
  H+  H325  1  0.30715397  0.65823731  0.05832316  1
  H+  H326  1  0.06984139  0.92165092  0.09408620  1
  H+  H327  1  0.65346686  0.19955010  0.45744476  1
  H+  H328  1  0.58340332  0.15460628  0.76749150  1
  H+  H329  1  0.66842155  0.07503191  0.26683929  1
  H+  H330  1  0.09081206  0.42784840  0.78014909  1
  H+  H331  1  0.41767439  0.83755552  0.26612753  1
  H+  H332  1  0.26770672  0.45127997  0.39358380  1
  H+  H333  1  0.65393332  0.32080739  0.58275046  1
  H+  H334  1  0.57310760  0.92385418  0.06613677  1
  H+  H335  1  0.32876547  0.91158412  0.39546244  1
  H+  H336  1  0.82118635  0.42094498  0.41105955  1
  H+  H337  1  0.57334463  0.15669371  0.38904094  1
  H+  H338  1  0.14041425  0.86134645  0.66794533  1
  H+  H339  1  0.14384857  0.76863509  0.31564968  1
  H+  H340  1  0.66951835  0.57215809  0.92580968  1
  H+  H341  1  0.07806677  0.18755968  0.39708038  1
  H+  H342  1  0.93948323  0.06935457  0.93619339  1
  H+  H343  1  -0.01889007  0.34669166  0.33093522  1
  H+  H344  1  0.60530086  0.36126924  0.51638141  1
  H+  H345  1  0.70660077  0.57396617  0.59170764  1
  H+  H346  1  0.84913147  0.93510974  0.43305077  1
  H+  H347  1  0.84063200  0.54394884  0.69771176  1
  H+  H348  1  0.43156765  0.60065260  0.63236667  1
  H+  H349  1  0.33261052  0.41475049  0.77486382  1
  H+  H350  1  0.48986852  0.62059000  0.84809071  1
  H+  H351  1  0.79999115  0.17201661  0.39661302  1
  H+  H352  1  0.36621761  0.72384696  0.83222746  1
  H+  H353  1  0.60883364  0.41074905  0.32747816  1
  H+  H354  1  0.87605245  0.57648807  0.16799055  1
  H+  H355  1  0.10093989  0.39793844  0.00539326  1
  H+  H356  1  0.82731592  0.16440380  0.06379549  1
  H+  H357  1  0.41261500  0.07894818  0.89518764  1
  H+  H358  1  0.15942985  0.33945138  0.22347860  1
  H+  H359  1  0.89661364  0.11963772  0.66615786  1
  H+  H360  1  0.84241843  0.16895275  0.73903654  1
  H+  H361  1  0.94517223  0.07425627  0.58324045  1
  H+  H362  1  0.16324520  0.58607991  0.60469024  1
  H+  H363  1  0.21608063  0.37470403  0.31822376  1
  H+  H364  1  0.37694186  0.77476065  0.16876416  1
  H+  H365  1  0.16756430  0.58690372  0.26490132  1
  H+  H366  1  0.65786450  0.79880304  0.90083336  1
  H+  H367  1  0.64031591  0.77058226  0.20727893  1
  H+  H368  1  0.34169787  0.17965936  0.74404620  1
  H+  H369  1  0.13735266  0.10777096  0.25685976  1
  H+  H370  1  0.85235183  0.65637527  0.76763433  1
  H+  H371  1  0.89829522  0.81123385  0.93757222  1
  H+  H372  1  0.58620700  0.92513807  0.43972817  1
  H+  H373  1  0.47762161  0.11830578  0.97765906  1
  H+  H374  1  0.90367450  0.57438717  0.26892548  1
  H+  H375  1  0.15801819  0.83774404  0.22139501  1
  H+  H376  1  0.76255617  0.50226950  0.10904212  1
  H+  H377  1  0.10138389  0.92628326  0.74644757  1
  H+  H378  1  0.06599028  0.85521956  0.40854832  1
  H+  H379  1  0.16959532  0.34679245  0.93345657  1
  H+  H380  1  0.15482422  0.03946849  0.68326474  1
  H+  H381  1  0.14628030  0.60144245  0.86474016  1
  H+  H382  1  0.16491956  0.34427863  0.60909487  1
  H+  H383  1  0.72688767  0.63678868  0.32858274  1
  O2-  O384  1  0.08815627  0.17060185  0.13182402  1
  O2-  O385  1  0.08155207  0.18648937  0.47093498  1
  O2-  O386  1  0.08236918  0.17582869  0.81885989  1
  O2-  O387  1  0.07950163  0.42647077  0.14174741  1
  O2-  O388  1  0.09225441  0.43320866  0.47909895  1
  O2-  O389  1  0.08784626  0.41949712  0.82515642  1
  O2-  O390  1  0.08179344  0.67754416  0.14588096  1
  O2-  O391  1  0.08902553  0.67009172  0.48145374  1
  O2-  O392  1  0.09531950  0.63903419  0.83198039  1
  O2-  O393  1  0.09173198  0.93290664  0.13907039  1
  O2-  O394  1  0.11290900  0.91981257  0.47385898  1
  O2-  O395  1  0.08947952  0.93312857  0.83266753  1
  O2-  O396  1  0.35658819  0.18473502  0.13847665  1
  O2-  O397  1  0.28778105  0.14526480  0.50461458  1
  O2-  O398  1  0.33946853  0.16922675  0.81357764  1
  O2-  O399  1  0.32396561  0.44919489  0.14295438  1
  O2-  O400  1  0.36859473  0.39869900  0.47091719  1
  O2-  O401  1  0.34019884  0.41868341  0.82003908  1
  O2-  O402  1  0.32128697  0.67231877  0.13531053  1
  O2-  O403  1  0.33130399  0.68843019  0.47542872  1
  O2-  O404  1  0.33565656  0.66374617  0.81581781  1
  O2-  O405  1  0.33622118  0.92636920  0.14896325  1
  O2-  O406  1  0.33219032  0.91409792  0.47659998  1
  O2-  O407  1  0.34623735  0.91419274  0.80745107  1
  O2-  O408  1  0.59973659  0.16717103  0.16777520  1
  O2-  O409  1  0.59368618  0.17562619  0.47402189  1
  O2-  O410  1  0.58275630  0.15645498  0.81276926  1
  O2-  O411  1  0.53707671  0.42041085  0.14543903  1
  O2-  O412  1  0.56600930  0.38521860  0.49903181  1
  O2-  O413  1  0.56441910  0.38615394  0.79462682  1
  O2-  O414  1  0.59792515  0.61174924  0.12266508  1
  O2-  O415  1  0.61020932  0.67115657  0.47850952  1
  O2-  O416  1  0.60625957  0.70322262  0.83879862  1
  O2-  O417  1  0.57682703  0.90571736  0.14819283  1
  O2-  O418  1  0.59314457  0.91442266  0.48377102  1
  O2-  O419  1  0.58692808  0.89897790  0.82215908  1
  O2-  O420  1  0.84356121  0.15548866  0.14985647  1
  O2-  O421  1  0.75277741  0.21005843  0.45419224  1
  O2-  O422  1  0.84195155  0.16382972  0.81642801  1
  O2-  O423  1  0.85346379  0.40637609  0.16303803  1
  O2-  O424  1  0.83347145  0.41460597  0.49808821  1
  O2-  O425  1  0.84042202  0.41435627  0.80953011  1
  O2-  O426  1  0.79129830  0.56067264  0.12492686  1
  O2-  O427  1  0.85937223  0.68051532  0.48625255  1
  O2-  O428  1  0.85008267  0.66579114  0.81173654  1
  O2-  O429  1  0.79695475  0.92405945  0.13011680  1
  O2-  O430  1  0.83652278  0.91854521  0.47640793  1
  O2-  O431  1  0.82869296  0.91024986  0.81857089  1
  O2-  O432  1  0.18706851  0.08730779  0.13711337  1
  O2-  O433  1  0.11547713  0.06608969  0.52915329  1
  O2-  O434  1  0.17576035  0.10059802  0.85375645  1
  O2-  O435  1  0.16088598  0.34033005  0.17804238  1
  O2-  O436  1  0.16850514  0.34751161  0.53245830  1
  O2-  O437  1  0.17231559  0.34131248  0.86099311  1
  O2-  O438  1  0.16461053  0.59189737  0.18366656  1
  O2-  O439  1  0.16865625  0.59034247  0.52526522  1
  O2-  O440  1  0.18188900  0.57520870  0.88010661  1
  O2-  O441  1  0.15832031  0.84324476  0.17613999  1
  O2-  O442  1  0.17231347  0.83419969  0.52899815  1
  O2-  O443  1  0.17892307  0.82059724  0.84334739  1
  O2-  O444  1  0.42989996  0.09529813  0.18727498  1
  O2-  O445  1  0.39814599  0.08057634  0.51666517  1
  O2-  O446  1  0.41405045  0.07799220  0.84935540  1
  O2-  O447  1  0.48731456  0.46365579  0.14566427  1
  O2-  O448  1  0.41265962  0.30906478  0.53589632  1
  O2-  O449  1  0.42068810  0.32901083  0.85524224  1
  O2-  O450  1  0.39979400  0.59329386  0.19535513  1
  O2-  O451  1  0.43622863  0.57803251  0.49032141  1
  O2-  O452  1  0.42706505  0.58748319  0.85403474  1
  O2-  O453  1  0.41082965  0.83344858  0.18709104  1
  O2-  O454  1  0.43021688  0.84773137  0.52360095  1
  O2-  O455  1  0.41974454  0.82772689  0.85840182  1
  O2-  O456  1  0.67521787  0.07042385  0.18984594  1
  O2-  O457  1  0.65786922  0.08231702  0.53036440  1
  O2-  O458  1  0.67245324  0.07612072  0.85307033  1
  O2-  O459  1  0.69927144  0.34711366  0.19779081  1
  O2-  O460  1  0.65626958  0.32595516  0.53672405  1
  O2-  O461  1  0.67402761  0.33656636  0.83320092  1
  O2-  O462  1  0.67527455  0.55514155  0.19744778  1
  O2-  O463  1  0.66713323  0.55587457  0.49664432  1
  O2-  O464  1  0.68386572  0.60016141  0.85362232  1
  O2-  O465  1  0.63647419  0.78658095  0.16565218  1
  O2-  O466  1  0.67915473  0.83754883  0.49979262  1
  O2-  O467  1  0.65400740  0.79672353  0.85068419  1
  O2-  O468  1  0.92816411  0.08251433  0.18183825  1
  O2-  O469  1  0.96332194  0.06477818  0.54207676  1
  O2-  O470  1  0.91724746  0.07700746  0.86312307  1
  O2-  O471  1  0.92824060  0.31491743  0.18985673  1
  O2-  O472  1  0.93200208  0.35049150  0.53479245  1
  O2-  O473  1  0.91552931  0.32817988  0.85371023  1
  O2-  O474  1  0.92182717  0.57327148  0.19194992  1
  O2-  O475  1  0.93219546  0.58070330  0.52866630  1
  O2-  O476  1  0.92529436  0.57448792  0.85355792  1
  O2-  O477  1  0.93613236  0.90452731  0.20890103  1
  O2-  O478  1  0.93188601  0.85374108  0.49932576  1
  O2-  O479  1  0.91473808  0.83060953  0.85841527  1
  O2-  O480  1  0.21246407  0.14178553  0.38910170  1
  O2-  O481  1  0.18453129  0.10087052  0.66976094  1
  O2-  O482  1  0.18970477  0.09467294  0.97672701  1
  O2-  O483  1  0.15773788  0.34311940  0.30013487  1
  O2-  O484  1  0.16519381  0.34155586  0.65486425  1
  O2-  O485  1  0.17035558  0.35114458  0.97961930  1
  O2-  O486  1  0.16723360  0.58200048  0.30987371  1
  O2-  O487  1  0.15817782  0.58724977  0.64976136  1
  O2-  O488  1  0.21384872  0.61283775  0.99899507  1
  O2-  O489  1  0.16978686  0.82797261  0.29936792  1
  O2-  O490  1  0.16691547  0.82921002  0.65034666  1
  O2-  O491  1  0.12720577  0.81034005  0.95621114  1
  O2-  O492  1  0.41187836  0.08007344  0.31023906  1
  O2-  O493  1  0.43329806  0.07105289  0.64367618  1
  O2-  O494  1  0.41448449  0.09060295  0.97073734  1
  O2-  O495  1  0.40890377  0.34539934  0.28883333  1
  O2-  O496  1  0.41743685  0.34403403  0.66043038  1
  O2-  O497  1  0.41868967  0.33820426  0.97801344  1
  O2-  O498  1  0.40906293  0.58208858  0.31668868  1
  O2-  O499  1  0.41157913  0.58934568  0.67418487  1
  O2-  O500  1  0.40880995  0.58371859  0.97572800  1
  O2-  O501  1  0.41614348  0.83670914  0.31167562  1
  O2-  O502  1  0.41068996  0.82606882  0.64636319  1
  O2-  O503  1  0.40240130  0.83538531  0.98096051  1
  O2-  O504  1  0.66371483  0.08126383  0.31165105  1
  O2-  O505  1  0.68027968  0.08541893  0.65093440  1
  O2-  O506  1  0.66374984  0.08523376  0.97406892  1
  O2-  O507  1  0.65921922  0.33973259  0.31476901  1
  O2-  O508  1  0.65666429  0.31944221  0.65640225  1
  O2-  O509  1  0.68604399  0.34396229  0.94807832  1
  O2-  O510  1  0.68364643  0.63998764  0.30263610  1
  O2-  O511  1  0.71364864  0.59599077  0.63298356  1
  O2-  O512  1  0.66385671  0.56659369  0.97146220  1
  O2-  O513  1  0.64925786  0.82934959  0.34910657  1
  O2-  O514  1  0.67755255  0.81848326  0.65974624  1
  O2-  O515  1  0.66322190  0.80765418  0.96288014  1
  O2-  O516  1  0.95234419  0.08902211  0.29576510  1
  O2-  O517  1  0.92601127  0.08687497  0.65516273  1
  O2-  O518  1  0.95430679  0.05876461  0.97876998  1
  O2-  O519  1  0.93165102  0.29605915  0.31246258  1
  O2-  O520  1  0.92111005  0.34130247  0.66121215  1
  O2-  O521  1  0.90316470  0.32876554  0.98050600  1
  O2-  O522  1  0.89855617  0.57566506  0.31419015  1
  O2-  O523  1  0.99951595  0.66408039  0.63614175  1
  O2-  O524  1  0.93121056  0.57961992  0.97432634  1
  O2-  O525  1  0.91410793  0.82988397  0.31970862  1
  O2-  O526  1  0.94216409  0.85530924  0.66317832  1
  O2-  O527  1  0.89432299  0.80747508  0.98287660  1
  O2-  O528  1  0.02230368  0.03812597  -0.03407465  1
  O2-  O529  1  0.09054437  0.18537156  0.35225634  1
  O2-  O530  1  0.08908397  0.17595595  0.69570484  1
  O2-  O531  1  0.06596646  0.42011246  0.02360213  1
  O2-  O532  1  0.08495536  0.42754040  0.35865857  1
  O2-  O533  1  0.08815631  0.42783567  0.70093270  1
  O2-  O534  1  0.08963234  0.66688126  0.02336894  1
  O2-  O535  1  0.05731791  0.67909263  0.36248166  1
  O2-  O536  1  0.07173495  0.67088556  0.67215360  1
  O2-  O537  1  0.04369654  0.91976960  0.02948953  1
  O2-  O538  1  0.04444783  0.82396939  0.36950130  1
  O2-  O539  1  0.10447556  0.93062700  0.70178142  1
  O2-  O540  1  0.34962807  0.18214303  0.02041802  1
  O2-  O541  1  0.37142899  0.19260321  0.35184628  1
  O2-  O542  1  0.33641029  0.18443008  0.69780939  1
  O2-  O543  1  0.33815345  0.42153390  0.01835563  1
  O2-  O544  1  0.30160521  0.43540480  0.36772556  1
  O2-  O545  1  0.32533570  0.41563898  0.69724723  1
  O2-  O546  1  0.30660391  0.65828843  0.01222582  1
  O2-  O547  1  0.33926260  0.67607702  0.35824395  1
  O2-  O548  1  0.32184462  0.66384791  0.69426850  1
  O2-  O549  1  0.34261013  0.94064684  0.02177646  1
  O2-  O550  1  0.32972576  0.91437178  0.35017473  1
  O2-  O551  1  0.32959691  0.90429438  0.68444015  1
  O2-  O552  1  0.58725326  0.17220131  -0.01427814  1
  O2-  O553  1  0.57472060  0.15885407  0.34432626  1
  O2-  O554  1  0.58822416  0.15958663  0.68846453  1
  O2-  O555  1  0.57499991  0.41545246  0.03390553  1
  O2-  O556  1  0.58241262  0.44558811  0.33803918  1
  O2-  O557  1  0.58082407  0.52050651  0.70993414  1
  O2-  O558  1  0.58041710  0.64985112  0.00930487  1
  O2-  O559  1  0.56933587  0.64992255  0.36282634  1
  O2-  O560  1  0.57500250  0.66552653  0.72291227  1
  O2-  O561  1  0.57093367  0.93186036  0.02200152  1
  O2-  O562  1  0.57455515  0.93252424  0.36346763  1
  O2-  O563  1  0.55264708  0.93419589  0.70709021  1
  O2-  O564  1  0.81824967  0.16555651  0.01987855  1
  O2-  O565  1  0.81394368  0.15062982  0.35962208  1
  O2-  O566  1  0.84164889  0.17045643  0.69328865  1
  O2-  O567  1  0.83748637  0.42405628  0.00177457  1
  O2-  O568  1  0.81170710  0.41422170  0.36701060  1
  O2-  O569  1  0.83418759  0.42589054  0.69074830  1
  O2-  O570  1  0.82213190  0.64417357  0.01283142  1
  O2-  O571  1  0.82702583  0.66108977  0.36571637  1
  O2-  O572  1  0.85081445  0.60282537  0.69286465  1
  O2-  O573  1  0.82420176  0.90064437  0.01729626  1
  O2-  O574  1  0.87005715  0.93988864  0.35153964  1
  O2-  O575  1  0.84251898  0.92193106  0.69756297  1
