# generated using pymatgen
data_H2O
_symmetry_space_group_name_H-M   'P 1'
_cell_length_a   17.99514148
_cell_length_b   17.99247969
_cell_length_c   22.00238042
_cell_angle_alpha   90.00778852
_cell_angle_beta   89.98732940
_cell_angle_gamma   119.99088985
_symmetry_Int_Tables_number   1
_chemical_formula_structural   H2O
_chemical_formula_sum   'H384 O192'
_cell_volume   6170.01809395
_cell_formula_units_Z   192
loop_
 _symmetry_equiv_pos_site_id
 _symmetry_equiv_pos_as_xyz
  1  'x, y, z'
loop_
 _atom_type_symbol
 _atom_type_oxidation_number
  H+  1.0
  O2-  -2.0
loop_
 _atom_site_type_symbol
 _atom_site_label
 _atom_site_symmetry_multiplicity
 _atom_site_fract_x
 _atom_site_fract_y
 _atom_site_fract_z
 _atom_site_occupancy
  H+  H0  1  0.37167101  0.54740786  0.16807654  1
  H+  H1  1  -0.04071007  0.87306298  0.66205065  1
  H+  H2  1  0.56639067  0.41937635  0.15714745  1
  H+  H3  1  0.27582603  0.38912653  0.67523228  1
  H+  H4  1  0.14621256  0.52230355  0.17333359  1
  H+  H5  1  0.15068397  0.52359778  0.51200378  1
  H+  H6  1  0.15418092  0.52430963  0.32722620  1
  H+  H7  1  0.71703791  0.63581971  0.34503381  1
  H+  H8  1  0.61381227  0.72695123  0.49030687  1
  H+  H9  1  0.26848305  0.88198858  0.34576897  1
  H+  H10  1  0.85790717  0.12141109  0.34618869  1
  H+  H11  1  0.14747919  0.33577801  0.81107216  1
  H+  H12  1  0.34843072  0.35096142  0.14795190  1
  H+  H13  1  0.52094431  0.63324270  0.01874954  1
  H+  H14  1  0.09747060  0.89510179  0.66910228  1
  H+  H15  1  0.61624480  0.54174525  0.19707510  1
  H+  H16  1  0.64614184  0.23842808  0.00085183  1
  H+  H17  1  0.35298080  -0.02864989  0.15251266  1
  H+  H18  1  0.52516143  0.16045459  0.66913436  1
  H+  H19  1  0.77602261  0.13372004  0.82403519  1
  H+  H20  1  0.66405244  0.47398078  0.14225242  1
  H+  H21  1  0.34217350  0.68273193  0.43900921  1
  H+  H22  1  0.37698640  0.64660391  0.34795070  1
  H+  H23  1  0.73074198  0.11681843  0.50663601  1
  H+  H24  1  0.33292691  0.34997182  0.17995113  1
  H+  H25  1  0.62114116  0.76896977  0.33012936  1
  H+  H26  1  0.84745807  0.92544519  0.40580717  1
  H+  H27  1  0.13162599  0.76278737  0.18045765  1
  H+  H28  1  0.90434187  0.70679346  0.30796420  1
  H+  H29  1  0.07223684  0.90899953  0.10241230  1
  H+  H30  1  0.72677301  0.86281859  0.50007059  1
  H+  H31  1  0.33165414  0.11751172  0.99462856  1
  H+  H32  1  0.89040264  0.11381209  0.50830549  1
  H+  H33  1  0.61038966  0.87057852  0.84152440  1
  H+  H34  1  0.62264552  0.35746252  0.83704531  1
  H+  H35  1  0.60965329  0.21126078  0.16852197  1
  H+  H36  1  0.37464849  0.66631338  0.17208470  1
  H+  H37  1  0.86024507  0.21200658  0.00424964  1
  H+  H38  1  0.08836747  0.83524501  0.35957540  1
  H+  H39  1  0.61776155  0.48392533  0.68231494  1
  H+  H40  1  0.63960035  0.86463243  0.50076094  1
  H+  H41  1  0.67599135  0.33531449  0.79006637  1
  H+  H42  1  0.61336448  0.13108591  0.33375429  1
  H+  H43  1  0.14864528  0.61270695  0.50958236  1
  H+  H44  1  0.83673372  1.00405560  0.65698710  1
  H+  H45  1  0.11095663  0.13578076  0.68006184  1
  H+  H46  1  0.85962531  0.72674703  0.16174430  1
  H+  H47  1  -0.02575722  0.60057201  -0.01309614  1
  H+  H48  1  0.31774852  0.17156128  0.41726396  1
  H+  H49  1  0.72470962  0.10415788  0.33624910  1
  H+  H50  1  0.47086164  0.17815963  0.04587827  1
  H+  H51  1  0.14102125  0.77165397  0.50326290  1
  H+  H52  1  0.08279365  0.35575112  1.00451970  1
  H+  H53  1  0.51329203  0.38318122  0.48089781  1
  H+  H54  1  0.82964244  -0.03703839  0.98052390  1
  H+  H55  1  0.47209575  0.60903779  0.33510906  1
  H+  H56  1  0.85225939  0.20704305  0.34813571  1
  H+  H57  1  0.57545387  0.41257690  0.88603087  1
  H+  H58  1  0.74336784  0.37341893  0.69665943  1
  H+  H59  1  0.34885180  0.72179327  0.66482506  1
  H+  H60  1  0.12922264  0.62583670  0.34002353  1
  H+  H61  1  0.87129624  0.33642444  0.33331561  1
  H+  H62  1  0.21779815  0.11450597  0.65458679  1
  H+  H63  1  0.21192696  0.86544794  0.65504075  1
  H+  H64  1  0.83603005  0.16108183  0.43954485  1
  H+  H65  1  0.36453184  0.96858409  0.82069077  1
  H+  H66  1  0.77758290  0.39175492  0.48018797  1
  H+  H67  1  0.12239025  0.22808847  0.84491529  1
  H+  H68  1  0.89368953  0.36415666  0.50851943  1
  H+  H69  1  0.39027582  0.22200672  0.19160911  1
  H+  H70  1  0.61759199  0.62804329  0.82112229  1
  H+  H71  1  0.61478328  0.64691247  0.02703284  1
  H+  H72  1  0.62130056  0.25315714  0.69330208  1
  H+  H73  1  0.58899183  0.88843083  0.60372643  1
  H+  H74  1  0.12561108  0.84926013  0.17827679  1
  H+  H75  1  0.49379076  0.06894304  0.17493889  1
  H+  H76  1  0.85761488  0.37591113  0.00199846  1
  H+  H77  1  0.96729706  0.75935345  0.41663052  1
  H+  H78  1  0.72866488  0.85388714  0.84230249  1
  H+  H79  1  0.11330001  0.88787150  0.49966417  1
  H+  H80  1  0.11219189  0.14886408  0.16337097  1
  H+  H81  1  0.63096412  0.89014887  0.00592451  1
  H+  H82  1  0.89927863  1.02845197  0.32627242  1
  H+  H83  1  0.28931073  0.64601023  0.34377678  1
  H+  H84  1  0.63640375  0.39995872  -0.00907472  1
  H+  H85  1  0.37551239  0.39208354  0.34617454  1
  H+  H86  1  0.27292317  0.02102042  0.12594124  1
  H+  H87  1  0.37008619  0.47242631  0.00414698  1
  H+  H88  1  0.77547643  0.12123489  0.00546538  1
  H+  H89  1  0.32945470  0.92130468  0.40464575  1
  H+  H90  1  0.85753172  0.88107355  0.82858297  1
  H+  H91  1  0.78047313  0.20680982  0.70496292  1
  H+  H92  1  0.87164770  0.73564393  0.67306935  1
  H+  H93  1  0.86456188  0.88940425  0.18821852  1
  H+  H94  1  0.10689883  0.73397011  0.82775086  1
  H+  H95  1  0.16064162  0.81953977  0.27476983  1
  H+  H96  1  0.09981853  -0.01604529  0.67235868  1
  H+  H97  1  0.13495075  0.25114336  1.00363204  1
  H+  H98  1  0.13216895  0.86838816  0.99560369  1
  H+  H99  1  0.11507976  0.38606731  0.32977749  1
  H+  H100  1  0.59989071  0.59599739  0.51824331  1
  H+  H101  1  0.90604697  0.79131246  0.50333843  1
  H+  H102  1  0.97893926  0.35555984  0.66468582  1
  H+  H103  1  0.85377647  0.09880003  0.65925487  1
  H+  H104  1  0.11135714  0.38488097  0.16495614  1
  H+  H105  1  0.64344423  0.01419337  0.99240350  1
  H+  H106  1  0.47960445  0.59588864  0.84677841  1
  H+  H107  1  0.12525595  0.39213290  0.50836104  1
  H+  H108  1  -0.00182357  0.60610005  0.66701860  1
  H+  H109  1  0.64049244  0.52724836  0.98773571  1
  H+  H110  1  0.35424437  0.71714300  0.82623290  1
  H+  H111  1  0.72991230  0.86793046  0.18337585  1
  H+  H112  1  0.70207165  0.84178791  0.93518549  1
  H+  H113  1  0.51602028  0.12487076  0.82193904  1
  H+  H114  1  0.63606022  0.34332784  0.17433050  1
  H+  H115  1  0.08926990  0.15855462  0.74455453  1
  H+  H116  1  0.86795675  0.45881538  0.33173167  1
  H+  H117  1  0.64734313  0.53479610  0.33225789  1
  H+  H118  1  0.28359345  0.65665386  0.16587732  1
  H+  H119  1  0.98888488  0.87980696  0.51222155  1
  H+  H120  1  0.10186226  0.39477126  0.84808728  1
  H+  H121  1  0.62788942  0.72934358  0.67715563  1
  H+  H122  1  0.39331139  0.52846726  0.66004630  1
  H+  H123  1  -0.02541103  0.69896978  0.69976915  1
  H+  H124  1  0.25757339  0.13585093  0.48069821  1
  H+  H125  1  0.17107287  0.34062974  0.23697208  1
  H+  H126  1  0.37685736  0.73086835  0.01171190  1
  H+  H127  1  0.39301358  0.78263761  0.33530038  1
  H+  H128  1  0.95474447  0.57493589  0.57953651  1
  H+  H129  1  0.97943944  0.11988530  0.17403814  1
  H+  H130  1  0.84376489  0.42442292  0.09157666  1
  H+  H131  1  0.11526256  0.13159459  0.49929779  1
  H+  H132  1  0.26152388  0.63184343  0.66883465  1
  H+  H133  1  0.37705369  0.34509250  -0.00880054  1
  H+  H134  1  0.63497878  0.01763335  0.33222656  1
  H+  H135  1  0.63518978  0.50343686  0.83463730  1
  H+  H136  1  0.90517396  0.88338001  0.30496990  1
  H+  H137  1  0.61676681  0.88598731  0.15719529  1
  H+  H138  1  0.12186287  0.53456957  0.83394797  1
  H+  H139  1  0.06073135  0.41206806  0.28855031  1
  H+  H140  1  0.86890072  -0.01599492  0.49495626  1
  H+  H141  1  0.37019479  0.14053671  0.32190963  1
  H+  H142  1  0.95824348  0.34700698  0.99151407  1
  H+  H143  1  0.14246707  0.60855089  0.17886589  1
  H+  H144  1  0.61121503  0.65060238  0.17168374  1
  H+  H145  1  0.93147529  0.50418064  0.66425566  1
  H+  H146  1  0.61120641  0.88308039  0.34537486  1
  H+  H147  1  0.11399239  0.78642203  0.66342732  1
  H+  H148  1  0.35946333  0.23425967  0.66161395  1
  H+  H149  1  0.47354583  0.35295069  0.84046866  1
  H+  H150  1  0.87018948  0.68891555  0.28370521  1
  H+  H151  1  0.86874735  0.62723065  0.82503296  1
  H+  H152  1  0.40293495  0.04768602  0.64812155  1
  H+  H153  1  0.65482789  0.11582697  0.17998720  1
  H+  H154  1  0.36824550  0.90060995  0.49715194  1
  H+  H155  1  0.21714168  0.85748891  0.99502680  1
  H+  H156  1  0.48267609  0.87734217  0.50852098  1
  H+  H157  1  0.86623616  0.97574007  0.17348141  1
  H+  H158  1  0.13989939  0.75440784  0.33054681  1
  H+  H159  1  0.97401888  0.36334095  0.16620880  1
  H+  H160  1  0.60436716  0.21690927  0.82270827  1
  H+  H161  1  0.47059403  0.62122384  0.18035604  1
  H+  H162  1  0.09676425  0.73771048  1.01695202  1
  H+  H163  1  0.90665259  0.59441239  0.31480808  1
  H+  H164  1  0.07218748  0.13943523  0.88433462  1
  H+  H165  1  0.82085497  0.86104662  0.66444037  1
  H+  H166  1  0.93006550  0.67116116  0.45437055  1
  H+  H167  1  0.33828101  0.98823222  -0.02730231  1
  H+  H168  1  0.95787061  0.33486829  0.33948396  1
  H+  H169  1  0.22192214  0.86367391  0.84412689  1
  H+  H170  1  0.03603564  0.63731397  0.49697777  1
  H+  H171  1  0.36183926  1.03034929  0.50858039  1
  H+  H172  1  0.64131778  0.76258629  0.84883414  1
  H+  H173  1  0.94054459  0.80574535  0.24561553  1
  H+  H174  1  0.88207248  0.27179496  0.83776978  1
  H+  H175  1  0.41385399  0.29414975  0.31686864  1
  H+  H176  1  0.27119185  0.36998148  0.82504870  1
  H+  H177  1  0.47960103  0.36976230  0.64801027  1
  H+  H178  1  0.22939626  0.36574094  0.33497838  1
  H+  H179  1  0.09350714  0.56722871  0.64928312  1
  H+  H180  1  0.92318364  0.63586735  0.55350003  1
  H+  H181  1  0.74225873  0.36840093  0.98390372  1
  H+  H182  1  0.09662360  0.87657051  0.82507539  1
  H+  H183  1  0.99232296  0.87782262  0.19668839  1
  H+  H184  1  0.85399386  0.96755302  0.82433181  1
  H+  H185  1  0.36631405  0.47410715  0.35541426  1
  H+  H186  1  0.02978342  0.14968248  0.34302298  1
  H+  H187  1  0.96616655  0.10660692  0.83419575  1
  H+  H188  1  0.36198442  0.23880349  0.18037563  1
  H+  H189  1  0.11171199  0.46779689  0.68066788  1
  H+  H190  1  0.38611590  0.10747155  0.81938269  1
  H+  H191  1  0.88603097  0.36753499  0.83822664  1
  H+  H192  1  0.77373370  0.64823025  0.52892602  1
  H+  H193  1  0.51990487  0.64149172  0.49196022  1
  H+  H194  1  0.00785946  0.38088741  0.83687867  1
  H+  H195  1  0.86744877  0.47832368  0.49222646  1
  H+  H196  1  0.86329786  0.85644628  0.97675257  1
  H+  H197  1  0.06621307  0.88135612  0.41481456  1
  H+  H198  1  1.03548998  0.61535510  0.33431049  1
  H+  H199  1  0.79636222  0.39510107  0.82801054  1
  H+  H200  1  0.39578293  0.63059869  0.50740778  1
  H+  H201  1  0.43155653  0.85549020  0.24525829  1
  H+  H202  1  1.02492285  0.62301828  0.16897437  1
  H+  H203  1  0.87009333  0.22752957  0.49652105  1
  H+  H204  1  0.23773882  0.49989768  0.05679373  1
  H+  H205  1  0.39784539  0.61164005  0.99860794  1
  H+  H206  1  0.67852309  0.60460119  0.24479577  1
  H+  H207  1  0.86776596  0.47090652  -0.00349168  1
  H+  H208  1  0.27418185  0.88984245  0.49644155  1
  H+  H209  1  0.12573199  -0.01563340  0.49837576  1
  H+  H210  1  0.14164222  1.06264142  0.23744001  1
  H+  H211  1  0.62446602  0.39443646  0.34541209  1
  H+  H212  1  0.77142442  0.64071731  0.16300419  1
  H+  H213  1  0.65341174  0.10915710  0.99290171  1
  H+  H214  1  0.44681705  -0.02962341  0.19783303  1
  H+  H215  1  0.87247602  0.38808990  0.15022122  1
  H+  H216  1  0.42043194  0.06025942  0.26342358  1
  H+  H217  1  0.87147061  0.09243259  0.98535904  1
  H+  H218  1  0.56033013  0.15174175  0.00884055  1
  H+  H219  1  0.86882347  0.37766369  0.68163766  1
  H+  H220  1  0.10772204  0.64468519  0.81715889  1
  H+  H221  1  0.12162282  0.15716865  0.00503431  1
  H+  H222  1  0.13899945  0.35892242  0.67446028  1
  H+  H223  1  0.61846611  0.14552531  0.48745991  1
  H+  H224  1  0.50130355  0.38205761  0.33330613  1
  H+  H225  1  0.36258075  0.88017316  1.00523896  1
  H+  H226  1  0.26064256  0.57776074  0.01477493  1
  H+  H227  1  0.21298509  0.62052251  0.82763210  1
  H+  H228  1  0.77820442  0.62582134  0.81709468  1
  H+  H229  1  0.08734421  0.95236535  0.32666918  1
  H+  H230  1  0.88921245  0.11588365  0.17477126  1
  H+  H231  1  0.52326203  0.13057266  0.33150087  1
  H+  H232  1  0.13838357  0.28103794  0.17641435  1
  H+  H233  1  0.59073749  0.91107423  0.06438563  1
  H+  H234  1  0.64109181  0.37019221  0.48265559  1
  H+  H235  1  0.20092464  0.08978212  0.17724205  1
  H+  H236  1  0.63329870  0.27039347  0.33082063  1
  H+  H237  1  0.39202177  0.50607060  0.84837479  1
  H+  H238  1  0.39210947  0.78867898  0.50784425  1
  H+  H239  1  0.39437311  0.85476244  0.85581915  1
  H+  H240  1  0.24795104  0.42150437  0.14661801  1
  H+  H241  1  0.15967996  0.57089003  0.60081302  1
  H+  H242  1  0.87123388  0.89589130  0.49462276  1
  H+  H243  1  0.14180341  0.27128589  0.67686300  1
  H+  H244  1  0.65337209  0.37990508  0.69667489  1
  H+  H245  1  0.87519287  0.77411903  0.99090319  1
  H+  H246  1  0.78309978  0.13913524  0.16496984  1
  H+  H247  1  0.25472521  0.89348212  0.15246672  1
  H+  H248  1  0.46574203  0.45405680  0.19202873  1
  H+  H249  1  0.59139076  0.47285772  0.50015906  1
  H+  H250  1  0.64911412  0.01236658  0.64956577  1
  H+  H251  1  0.38747833  0.86968290  0.33715440  1
  H+  H252  1  0.29223581  0.15710873  0.31244058  1
  H+  H253  1  0.01518373  0.88953605  0.00312088  1
  H+  H254  1  0.13514666  0.27089603  0.51726749  1
  H+  H255  1  0.15636904  0.11114332  0.84259626  1
  H+  H256  1  0.36475740  0.89805444  0.66054825  1
  H+  H257  1  0.63707509  0.78213106  0.17980249  1
  H+  H258  1  0.36390083  0.14868940  0.66173024  1
  H+  H259  1  0.87902978  0.75151282  0.84278073  1
  H+  H260  1  0.36296654  0.12011265  0.50012188  1
  H+  H261  1  0.53252818  0.64465040  0.67203924  1
  H+  H262  1  0.03998967  0.39756062  0.50316800  1
  H+  H263  1  0.08576718  0.66487590  0.11239937  1
  H+  H264  1  0.53210611  0.89361655  0.15802573  1
  H+  H265  1  0.64707221  0.61914485  0.67178787  1
  H+  H266  1  0.37288656  0.22489051  0.81778194  1
  H+  H267  1  0.64334732  0.28142170  0.47737883  1
  H+  H268  1  0.28264014  0.64936418  0.49913097  1
  H+  H269  1  0.76686201  0.68465708  0.53785179  1
  H+  H270  1  0.18302194  -0.00625156  0.31099230  1
  H+  H271  1  0.77320562  0.65228575  0.00358195  1
  H+  H272  1  0.46962513  0.85755037  0.65803523  1
  H+  H273  1  0.38114563  0.01965419  0.32729698  1
  H+  H274  1  0.13884046  0.27753144  0.33349497  1
  H+  H275  1  0.45333000  0.13491188  1.03070081  1
  H+  H276  1  0.39674043  0.80981333  0.18169492  1
  H+  H277  1  0.48513909  0.86380232  0.99881064  1
  H+  H278  1  0.32268948  0.91547337  0.05768007  1
  H+  H279  1  0.10668261  0.44840692  0.01702433  1
  H+  H280  1  0.34531195  0.21280329  1.00333311  1
  H+  H281  1  0.38154890  0.34918976  0.83365090  1
  H+  H282  1  0.61860726  0.98472060  0.49665620  1
  H+  H283  1  0.02594708  0.12975431  0.50155934  1
  H+  H284  1  0.65651115  0.83346673  0.27336292  1
  H+  H285  1  0.89387825  0.59843434  0.17276348  1
  H+  H286  1  0.63509018  0.10035725  0.83822705  1
  H+  H287  1  0.89225769  0.51440137  0.83307651  1
  H+  H288  1  0.82372449  0.69939590  0.41113994  1
  H+  H289  1  0.92258061  0.08912958  0.26764357  1
  H+  H290  1  0.36547066  0.39212900  0.66767373  1
  H+  H291  1  0.85382449  0.41782573  0.74596895  1
  H+  H292  1  0.33860962  0.16962233  0.75542760  1
  H+  H293  1  0.24605494  0.11529345  0.83893537  1
  H+  H294  1  0.58587362  0.92155246  0.43875788  1
  H+  H295  1  0.52556884  0.89101586  0.34804090  1
  H+  H296  1  0.62352399  0.59437411  0.94917217  1
  H+  H297  1  0.11756377  0.97255845  0.15624330  1
  H+  H298  1  0.59392504  0.42906525  0.40342933  1
  H+  H299  1  0.92893415  0.56171337  0.25416358  1
  H+  H300  1  0.33590570  0.94394228  0.71006622  1
  H+  H301  1  0.42336314  0.82784870  0.94110229  1
  H+  H302  1  0.73551334  0.61677348  0.66592213  1
  H+  H303  1  0.36150166  0.26922199  0.48577515  1
  H+  H304  1  0.97272242  0.84759538  0.83884018  1
  H+  H305  1  0.33765208  0.88014767  0.78358189  1
  H+  H306  1  0.58540152  0.16524652  0.42598821  1
  H+  H307  1  0.66950810  0.07486001  0.89738920  1
  H+  H308  1  0.83188303  0.17180294  0.76169342  1
  H+  H309  1  0.21192596  0.10888648  -0.00378619  1
  H+  H310  1  0.60351951  0.42353591  0.05027950  1
  H+  H311  1  0.67223105  0.24922955  0.59620948  1
  H+  H312  1  0.57000676  0.42082435  0.73748944  1
  H+  H313  1  0.27803824  0.00903312  0.93278327  1
  H+  H314  1  0.09302367  0.18609395  0.10216788  1
  H+  H315  1  0.68127686  0.28277699  0.57237660  1
  H+  H316  1  0.32333874  0.66693861  0.76306249  1
  H+  H317  1  0.88547665  0.26802169  0.66454694  1
  H+  H318  1  0.72418337  0.35707341  0.33064272  1
  H+  H319  1  0.90731234  0.83813186  0.60048477  1
  H+  H320  1  0.35317338  0.68158879  0.07495911  1
  H+  H321  1  0.90649481  0.82040372  0.90796413  1
  H+  H322  1  0.39813954  0.30934957  0.93106560  1
  H+  H323  1  0.89024883  0.50286258  0.16110095  1
  H+  H324  1  0.23060512  0.05860115  0.53897706  1
  H+  H325  1  0.60244250  0.63317291  0.34149336  1
  H+  H326  1  0.83889552  0.41274478  0.39647738  1
  H+  H327  1  0.63204899  0.56658938  0.57770946  1
  H+  H328  1  0.08735425  0.17663895  0.40278293  1
  H+  H329  1  0.17628383  0.35115505  0.91162005  1
  H+  H330  1  0.58446112  0.66532431  0.76940324  1
  H+  H331  1  0.63027947  0.87410264  0.66039059  1
  H+  H332  1  0.18673207  0.58429031  0.26877460  1
  H+  H333  1  0.68303314  0.33371437  0.92320226  1
  H+  H334  1  0.92078391  0.33255962  0.56856582  1
  H+  H335  1  0.60147144  0.16278084  0.10568567  1
  H+  H336  1  0.48387016  0.40753176  0.24655125  1
  H+  H337  1  0.83641368  0.15905391  0.10153161  1
  H+  H338  1  0.19992022  0.42473411  0.96515125  1
  H+  H339  1  0.65541268  0.31719925  0.23954111  1
  H+  H340  1  0.85004057  0.67488983  0.73170047  1
  H+  H341  1  0.16460016  0.08135879  0.93319660  1
  H+  H342  1  0.90149278  0.31962600  0.93049017  1
  H+  H343  1  0.87886310  0.11050344  0.82800899  1
  H+  H344  1  0.08069597  0.41359563  0.74305198  1
  H+  H345  1  0.38928686  0.61457241  0.65864484  1
  H+  H346  1  0.68483831  0.08868619  0.23988004  1
  H+  H347  1  0.10269366  0.97902395  0.00460229  1
  H+  H348  1  0.97568169  0.61244419  0.83478256  1
  H+  H349  1  0.16070176  0.08029818  0.59511613  1
  H+  H350  1  0.42373676  0.59256210  0.56213529  1
  H+  H351  1  0.48165714  0.85024082  0.85070589  1
  H+  H352  1  0.57361235  0.16651054  0.73884864  1
  H+  H353  1  0.40806750  0.57990323  0.27778529  1
  H+  H354  1  0.68794555  0.58028310  0.88165925  1
  H+  H355  1  0.08895956  0.65713267  0.43360957  1
  H+  H356  1  0.42500143  0.57576535  0.93921206  1
  H+  H357  1  0.04624352  0.69189741  0.74175683  1
  H+  H358  1  0.41887430  0.34239008  0.58897226  1
  H+  H359  1  0.01080473  0.69722713  0.05334634  1
  H+  H360  1  0.16346305  0.32633881  0.57784161  1
  H+  H361  1  0.92000284  0.56936496  0.92449165  1
  H+  H362  1  0.57534484  0.66225644  0.40281315  1
  H+  H363  1  0.41940805  0.10833293  0.59261347  1
  H+  H364  1  0.90532143  0.07511061  0.56882401  1
  H+  H365  1  0.41513502  0.84043749  0.59844342  1
  H+  H366  1  0.39419185  0.06464828  0.88041840  1
  H+  H367  1  0.81030448  0.76484819  0.37313972  1
  H+  H368  1  0.33482831  0.40985155  0.76708712  1
  H+  H369  1  0.67067631  0.08490497  0.56539053  1
  H+  H370  1  0.60961044  0.95832229  0.83554623  1
  H+  H371  1  0.35600696  0.38772186  0.44670682  1
  H+  H372  1  0.57544911  0.67262875  0.11138372  1
  H+  H373  1  0.28054536  0.38679706  -0.00451600  1
  H+  H374  1  0.89081990  0.06287564  0.92035882  1
  H+  H375  1  0.30953369  0.44264717  0.08873034  1
  H+  H376  1  0.88594714  0.27413373  0.16243681  1
  H+  H377  1  0.82959401  0.67945135  0.06367293  1
  H+  H378  1  0.16055897  0.82911400  0.56383271  1
  H+  H379  1  0.73017242  0.10729107  0.65883098  1
  H+  H380  1  0.05952210  0.90389136  0.76694527  1
  H+  H381  1  0.27913001  0.10104984  0.08977219  1
  H+  H382  1  0.07540406  0.40411863  0.10377650  1
  H+  H383  1  0.15945202  0.83554868  0.90200624  1
  O2-  O384  1  0.08660099  0.18306898  0.14753844  1
  O2-  O385  1  0.08585700  0.16191229  0.48535443  1
  O2-  O386  1  0.08533217  0.15889506  0.84233885  1
  O2-  O387  1  0.08402157  0.41754036  0.14792574  1
  O2-  O388  1  0.10173122  0.42907265  0.49285396  1
  O2-  O389  1  0.07095365  0.41577185  0.82346874  1
  O2-  O390  1  0.08789659  0.65904444  0.15724220  1
  O2-  O391  1  0.09435592  0.66645860  0.47857228  1
  O2-  O392  1  0.07534352  0.67737154  0.80707744  1
  O2-  O393  1  0.07920934  0.91090048  0.14743652  1
  O2-  O394  1  0.08478330  0.91971786  0.48491543  1
  O2-  O395  1  0.05287121  0.89134442  0.81143514  1
  O2-  O396  1  0.25865933  0.06758624  0.12796159  1
  O2-  O397  1  0.31785517  0.17712941  0.46188242  1
  O2-  O398  1  0.34533479  0.16442293  0.80008648  1
  O2-  O399  1  0.29017650  0.46920734  0.12031829  1
  O2-  O400  1  0.35098002  0.37500144  0.49135410  1
  O2-  O401  1  0.33394691  0.40283457  0.81215753  1
  O2-  O402  1  0.34460220  0.69512693  0.15400216  1
  O2-  O403  1  0.34301736  0.68684692  0.48436663  1
  O2-  O404  1  0.31340052  0.66158728  0.80740737  1
  O2-  O405  1  0.29988614  0.93930254  0.12673717  1
  O2-  O406  1  0.33413430  0.92648633  0.48108658  1
  O2-  O407  1  0.33037607  0.90349247  0.82150588  1
  O2-  O408  1  0.58703559  0.15224957  0.14916197  1
  O2-  O409  1  0.58864537  0.17474868  0.47063545  1
  O2-  O410  1  0.57679217  0.15612208  0.80661930  1
  O2-  O411  1  0.61299052  0.41961972  0.13224424  1
  O2-  O412  1  0.57589932  0.41894207  0.47501609  1
  O2-  O413  1  0.57929769  0.40968463  0.84182409  1
  O2-  O414  1  0.57525663  0.67465328  0.15776883  1
  O2-  O415  1  0.58110372  0.66542288  0.47652913  1
  O2-  O416  1  0.58667581  0.66022832  0.81459657  1
  O2-  O417  1  0.58228923  0.90505491  0.13311275  1
  O2-  O418  1  0.58477882  0.92217306  0.48460105  1
  O2-  O419  1  0.57564182  0.89597450  0.82683106  1
  O2-  O420  1  0.84319852  0.16779370  0.14629980  1
  O2-  O421  1  0.83852488  0.16533862  0.48516427  1
  O2-  O422  1  0.83620355  0.16750971  0.80938671  1
  O2-  O423  1  0.84870645  0.42704212  0.13686944  1
  O2-  O424  1  0.84307813  0.42083351  0.47456110  1
  O2-  O425  1  0.85545154  0.42192462  0.81338949  1
  O2-  O426  1  0.83069058  0.66796977  0.14593392  1
  O2-  O427  1  0.91952266  0.71753721  0.44387815  1
  O2-  O428  1  0.84179355  0.66279745  0.81062158  1
  O2-  O429  1  0.83454018  0.91286128  0.16513919  1
  O2-  O430  1  0.84093477  0.92432452  0.47658939  1
  O2-  O431  1  0.82256492  0.90514016  0.81419439  1
  O2-  O432  1  0.14814704  0.08528120  0.19573172  1
  O2-  O433  1  0.18676814  0.07059181  0.52294648  1
  O2-  O434  1  0.18905568  0.08496010  0.85919087  1
  O2-  O435  1  0.16684824  0.34211436  0.19170355  1
  O2-  O436  1  0.16208408  0.33024830  0.53298073  1
  O2-  O437  1  0.17028447  0.32054425  0.84606107  1
  O2-  O438  1  0.17705051  0.58144850  0.19120675  1
  O2-  O439  1  0.18130470  0.58671781  0.52683007  1
  O2-  O440  1  0.15161321  0.59703447  0.84112816  1
  O2-  O441  1  0.15968671  0.82405339  0.19467222  1
  O2-  O442  1  0.16790468  0.83189424  0.51873595  1
  O2-  O443  1  0.16108123  0.83885856  0.85661337  1
  O2-  O444  1  0.44030894  0.02211117  0.19459158  1
  O2-  O445  1  0.36731550  0.08140858  0.53018774  1
  O2-  O446  1  0.41106404  0.07168308  0.83655138  1
  O2-  O447  1  0.50956520  0.44310208  0.20850636  1
  O2-  O448  1  0.39979244  0.33112043  0.50243511  1
  O2-  O449  1  0.40981029  0.31636834  0.84904208  1
  O2-  O450  1  0.41021280  0.59503359  0.19590248  1
  O2-  O451  1  0.42452772  0.59729917  0.51731718  1
  O2-  O452  1  0.42380458  0.56341067  0.86789637  1
  O2-  O453  1  0.43439746  0.86672472  0.20043021  1
  O2-  O454  1  0.42166633  0.84926580  0.52400114  1
  O2-  O455  1  0.41963155  0.81923024  0.86682543  1
  O2-  O456  1  0.69254522  0.09443622  0.19503641  1
  O2-  O457  1  0.66921201  0.08709570  0.51934834  1
  O2-  O458  1  0.66739375  0.07238853  0.85185140  1
  O2-  O459  1  0.65108203  0.30437394  0.19526735  1
  O2-  O460  1  0.67941200  0.34564190  0.48129961  1
  O2-  O461  1  0.65650257  0.32355949  0.83294329  1
  O2-  O462  1  0.67002911  0.59760173  0.19892344  1
  O2-  O463  1  0.59921511  0.54667533  0.53967444  1
  O2-  O464  1  0.67468654  0.57149165  0.83816660  1
  O2-  O465  1  0.66789709  0.84208737  0.19546684  1
  O2-  O466  1  0.66603740  0.82992072  0.51286026  1
  O2-  O467  1  0.67175591  0.82244093  0.86495918  1
  O2-  O468  1  0.92059343  0.08681807  0.19145722  1
  O2-  O469  1  0.91789452  0.08077191  0.52400030  1
  O2-  O470  1  0.90412336  0.07461640  0.84357795  1
  O2-  O471  1  0.91165365  0.33587559  0.17406403  1
  O2-  O472  1  0.92319551  0.33332831  0.52298469  1
  O2-  O473  1  0.91158406  0.33013432  0.85682566  1
  O2-  O474  1  0.92406347  0.56791299  0.18468682  1
  O2-  O475  1  0.94032368  0.59506936  0.53983696  1
  O2-  O476  1  0.91474777  0.57721181  0.84860191  1
  O2-  O477  1  0.93834739  0.85003991  0.22145426  1
  O2-  O478  1  0.92586232  0.84637371  0.52434718  1
  O2-  O479  1  0.90894480  0.81402529  0.85845363  1
  O2-  O480  1  0.13482500  0.00367558  0.30730822  1
  O2-  O481  1  0.15693857  0.08286488  0.64115493  1
  O2-  O482  1  0.15234242  0.08000879  0.97799425  1
  O2-  O483  1  0.17143276  0.33895514  0.31649350  1
  O2-  O484  1  0.17179442  0.33119905  0.65968282  1
  O2-  O485  1  0.18009279  0.36338426  0.95794823  1
  O2-  O486  1  0.18814493  0.58601595  0.31447337  1
  O2-  O487  1  0.14766030  0.56583889  0.64592505  1
  O2-  O488  1  0.21814673  0.51532981  1.01920305  1
  O2-  O489  1  0.16277683  0.81641555  0.32006090  1
  O2-  O490  1  0.15220885  0.84060790  0.64064990  1
  O2-  O491  1  0.15643152  0.83220045  0.98058976  1
  O2-  O492  1  0.41275626  0.07606557  0.30558200  1
  O2-  O493  1  0.43325523  0.10958142  0.63773675  1
  O2-  O494  1  0.33695727  0.03478791  0.94747156  1
  O2-  O495  1  0.44360022  0.35734106  0.31166597  1
  O2-  O496  1  0.41924291  0.33936554  0.63390108  1
  O2-  O497  1  0.39593013  0.30521727  0.97612223  1
  O2-  O498  1  0.40904217  0.57802078  0.32295310  1
  O2-  O499  1  0.42510907  0.58953577  0.64595615  1
  O2-  O500  1  0.42459668  0.57729604  0.98563839  1
  O2-  O501  1  0.42161849  0.84388100  0.32136832  1
  O2-  O502  1  0.41016007  0.83764168  0.64449055  1
  O2-  O503  1  0.42324544  0.83466151  0.98670651  1
  O2-  O504  1  0.66606670  0.07870940  0.31747623  1
  O2-  O505  1  0.67248005  0.07322947  0.63881998  1
  O2-  O506  1  0.67640904  0.07406911  0.97482168  1
  O2-  O507  1  0.66302204  0.33212828  0.31782465  1
  O2-  O508  1  0.67926257  0.34337119  0.70615802  1
  O2-  O509  1  0.68038936  0.33483916  0.96778467  1
  O2-  O510  1  0.66912065  0.59447876  0.31704688  1
  O2-  O511  1  0.67317376  0.58421921  0.65756229  1
  O2-  O512  1  0.66452891  0.59069274  0.97601015  1
  O2-  O513  1  0.65100854  0.83045523  0.31855104  1
  O2-  O514  1  0.70273651  0.83445500  0.65497919  1
  O2-  O515  1  0.70871264  0.85386557  0.98083518  1
  O2-  O516  1  0.92368704  0.08904407  0.31347470  1
  O2-  O517  1  0.87553124  0.06279086  0.64263517  1
  O2-  O518  1  0.88546662  0.05111343  0.96502409  1
  O2-  O519  1  0.89898528  0.30161535  0.32412723  1
  O2-  O520  1  0.92027248  0.32938181  0.64697346  1
  O2-  O521  1  0.89801970  0.31565021  0.97652263  1
  O2-  O522  1  0.93344259  0.56182244  0.30107939  1
  O2-  O523  1  0.98162495  0.55277775  0.64269424  1
  O2-  O524  1  0.91724008  0.56227186  0.96975040  1
  O2-  O525  1  0.89290762  0.87535621  0.34884697  1
  O2-  O526  1  0.89986155  0.83677975  0.64576842  1
  O2-  O527  1  0.90304492  0.83290980  0.96897393  1
  O2-  O528  1  0.10386770  0.19568152  0.02438132  1
  O2-  O529  1  0.08984264  0.18324489  0.35796381  1
  O2-  O530  1  0.08991852  0.17048534  0.70130832  1
  O2-  O531  1  0.05847826  0.38876045  0.02342103  1
  O2-  O532  1  0.08090714  0.41699164  0.33026902  1
  O2-  O533  1  0.08328324  0.40853159  0.69814033  1
  O2-  O534  1  0.05534994  0.68493080  0.04028521  1
  O2-  O535  1  0.09239958  0.65021053  0.35441109  1
  O2-  O536  1  0.03046819  0.70055324  0.69891064  1
  O2-  O537  1  0.07434785  0.91748332  0.01948068  1
  O2-  O538  1  0.04313063  0.84560982  0.37678566  1
  O2-  O539  1  0.06706653  0.92293320  0.68751675  1
  O2-  O540  1  0.31101366  0.15035312  0.01812165  1
  O2-  O541  1  0.34612059  0.17819018  0.33435323  1
  O2-  O542  1  0.32980195  0.17420722  0.67754418  1
  O2-  O543  1  0.33493239  0.41134091  0.01890771  1
  O2-  O544  1  0.34138054  0.41297843  0.36851566  1
  O2-  O545  1  0.33840742  0.42242960  0.68717062  1
  O2-  O546  1  0.35330618  0.67250490  0.03018222  1
  O2-  O547  1  0.34853582  0.68018359  0.36071226  1
  O2-  O548  1  0.32317094  0.66204403  0.67992037  1
  O2-  O549  1  0.32462022  0.90551511  0.01294063  1
  O2-  O550  1  0.32937691  0.91856730  0.35893649  1
  O2-  O551  1  0.33414317  0.93194091  0.66680270  1
  O2-  O552  1  0.62071892  0.17966445  0.02010379  1
  O2-  O553  1  0.58329607  0.16321334  0.34635290  1
  O2-  O554  1  0.58125122  0.18552246  0.69332101  1
  O2-  O555  1  0.60915866  0.43290396  0.00583601  1
  O2-  O556  1  0.59806768  0.43003293  0.35736487  1
  O2-  O557  1  0.58375263  0.42132193  0.69436727  1
  O2-  O558  1  0.57723118  0.66877873  0.04003895  1
  O2-  O559  1  0.56956087  0.66043264  0.35675388  1
  O2-  O560  1  0.59060148  0.66888885  0.69114131  1
  O2-  O561  1  0.59455973  0.91457321  0.01758879  1
  O2-  O562  1  0.58600205  0.91881272  0.36269529  1
  O2-  O563  1  0.58940391  0.89383896  0.64789471  1
  O2-  O564  1  0.83599138  0.15272785  0.02099143  1
  O2-  O565  1  0.82395280  0.14598068  0.36455700  1
  O2-  O566  1  0.81783877  0.18318489  0.69642666  1
  O2-  O567  1  0.83135881  0.41119282  0.01524020  1
  O2-  O568  1  0.83101730  0.40243899  0.35157928  1
  O2-  O569  1  0.84732169  0.41558334  0.69806173  1
  O2-  O570  1  0.83260321  0.68523059  0.01884246  1
  O2-  O571  1  0.77882063  0.70695776  0.39095738  1
  O2-  O572  1  0.85856205  0.67727222  0.68679564  1
  O2-  O573  1  0.80036904  0.89682323  -0.00587609  1
  O2-  O574  1  0.84954927  0.92467712  0.35883054  1
  O2-  O575  1  0.78312660  0.88390537  0.67996084  1
