# generated using pymatgen
data_H2O
_symmetry_space_group_name_H-M   'P 1'
_cell_length_a   17.99068845
_cell_length_b   17.99164012
_cell_length_c   22.00160789
_cell_angle_alpha   89.98607793
_cell_angle_beta   90.00777425
_cell_angle_gamma   120.01089837
_symmetry_Int_Tables_number   1
_chemical_formula_structural   H2O
_chemical_formula_sum   'H384 O192'
_cell_volume   6166.74333459
_cell_formula_units_Z   192
loop_
 _symmetry_equiv_pos_site_id
 _symmetry_equiv_pos_as_xyz
  1  'x, y, z'
loop_
 _atom_type_symbol
 _atom_type_oxidation_number
  H+  1.0
  O2-  -2.0
loop_
 _atom_site_type_symbol
 _atom_site_label
 _atom_site_symmetry_multiplicity
 _atom_site_fract_x
 _atom_site_fract_y
 _atom_site_fract_z
 _atom_site_occupancy
  H+  H0  1  0.82465171  0.16803672  0.39717133  1
  H+  H1  1  0.62612094  0.40161325  0.16671540  1
  H+  H2  1  0.63271522  0.60611388  0.32276301  1
  H+  H3  1  0.53482888  0.64560556  0.67087817  1
  H+  H4  1  0.13844472  0.86880001  0.51590226  1
  H+  H5  1  0.61774789  0.15069532  0.17007573  1
  H+  H6  1  0.13733085  0.51953676  0.50887592  1
  H+  H7  1  0.13904436  0.26799501  0.85061763  1
  H+  H8  1  0.02080690  0.89370641  0.15020329  1
  H+  H9  1  0.90075115  0.27147844  0.85437489  1
  H+  H10  1  0.15703151  0.11388658  0.51077857  1
  H+  H11  1  0.34694930  0.92615077  0.76121003  1
  H+  H12  1  0.23783383  0.15191091  0.32040430  1
  H+  H13  1  0.36927486  0.36847802  0.51056923  1
  H+  H14  1  0.35218119  -0.03418254  0.17547923  1
  H+  H15  1  0.63159628  0.85973338  0.83862023  1
  H+  H16  1  0.42482116  0.17996779  0.33354187  1
  H+  H17  1  0.84249298  0.38803818  0.11170734  1
  H+  H18  1  0.82281205  0.90050158  0.43592432  1
  H+  H19  1  0.88502335  0.57494231  0.58239391  1
  H+  H20  1  0.61128420  0.38755297  0.50381609  1
  H+  H21  1  0.76864995  0.88524332  1.00440980  1
  H+  H22  1  0.36928388  0.72909206  -0.00728259  1
  H+  H23  1  0.52616456  0.88688257  0.66974932  1
  H+  H24  1  0.95827390  0.58724861  0.83153484  1
  H+  H25  1  0.10695961  0.13334687  0.68216861  1
  H+  H26  1  0.39424682  0.02762279  0.34405105  1
  H+  H27  1  0.15369644  0.54878911  0.05228332  1
  H+  H28  1  0.33641849  0.81228680  0.15022104  1
  H+  H29  1  0.11719587  0.78010692  0.18520025  1
  H+  H30  1  0.94253075  0.75831439  0.28689867  1
  H+  H31  1  0.13711227  0.75431402  0.66398424  1
  H+  H32  1  0.71698694  0.61549400  0.54787918  1
  H+  H33  1  0.42197838  0.77370977  0.20682840  1
  H+  H34  1  0.88728544  0.41371505  0.17709406  1
  H+  H35  1  0.62215851  0.15484517  0.49798049  1
  H+  H36  1  0.86760016  0.47184445  0.34319452  1
  H+  H37  1  0.11786197  0.48845531  0.67550701  1
  H+  H38  1  0.38907027  0.59930442  0.15454302  1
  H+  H39  1  0.57694940  0.91986287  0.06611354  1
  H+  H40  1  0.85591360  0.14474701  0.68743682  1
  H+  H41  1  0.62330851  0.02858644  0.99774284  1
  H+  H42  1  0.41025464  0.61884363  0.29354404  1
  H+  H43  1  0.01417504  0.88733039  0.67881033  1
  H+  H44  1  0.33717982  0.36795966  0.99697467  1
  H+  H45  1  0.89600624  0.07298403  0.23117504  1
  H+  H46  1  0.97923501  0.61705870  0.32864828  1
  H+  H47  1  0.60154853  0.39295862  0.67391904  1
  H+  H48  1  0.39334873  0.76815436  0.66242382  1
  H+  H49  1  0.16533937  0.18162196  0.36699890  1
  H+  H50  1  0.61711277  0.71874785  0.82547149  1
  H+  H51  1  0.32752501  0.67545327  0.41914437  1
  H+  H52  1  0.25501954  0.11767949  0.00625252  1
  H+  H53  1  -0.02313722  0.36817668  0.66238368  1
  H+  H54  1  0.60334289  0.46686981  0.75430642  1
  H+  H55  1  0.10737653  0.38665384  0.34499459  1
  H+  H56  1  0.45209972  0.19418799  0.23964743  1
  H+  H57  1  0.47247495  0.36944657  0.98221151  1
  H+  H58  1  0.62726472  0.80015493  0.52693586  1
  H+  H59  1  0.37017093  0.89103145  0.82161888  1
  H+  H60  1  0.77381117  0.38873121  0.50435215  1
  H+  H61  1  0.97306377  0.12651668  0.68636394  1
  H+  H62  1  0.62604808  0.02444646  0.17475004  1
  H+  H63  1  0.76086387  0.13471049  0.00483680  1
  H+  H64  1  0.60400455  0.48058158  0.65948156  1
  H+  H65  1  0.85234706  0.71168449  0.35888516  1
  H+  H66  1  -0.04339857  0.10059214  0.32717224  1
  H+  H67  1  0.38003002  0.79088598  0.34269724  1
  H+  H68  1  0.63839771  0.61476600  -0.01045731  1
  H+  H69  1  0.88241282  0.86188890  0.83387590  1
  H+  H70  1  0.88568442  0.27578285  0.50760259  1
  H+  H71  1  0.77862705  0.82619871  0.79695258  1
  H+  H72  1  0.60041042  0.27071523  0.81463968  1
  H+  H73  1  0.86233803  0.89306725  0.68271366  1
  H+  H74  1  0.89477365  0.25687804  0.16328655  1
  H+  H75  1  0.42880121  0.08642951  0.28369973  1
  H+  H76  1  0.39246113  0.21544609  0.81671541  1
  H+  H77  1  0.59729326  0.67338232  0.72782937  1
  H+  H78  1  0.84050907  0.67220623  0.06022918  1
  H+  H79  1  0.12302042  0.23692978  0.50794332  1
  H+  H80  1  0.87702124  0.76906489  0.52562185  1
  H+  H81  1  0.22897491  0.60679859  0.50601385  1
  H+  H82  1  0.20053059  0.67902352  0.63554462  1
  H+  H83  1  0.23173201  0.10852369  0.32981787  1
  H+  H84  1  0.10499925  0.47394122  0.35631120  1
  H+  H85  1  0.38345134  0.77048388  0.83698371  1
  H+  H86  1  0.88648852  0.59793218  0.30563738  1
  H+  H87  1  0.72817168  0.11082578  0.84282429  1
  H+  H88  1  0.88400071  0.77550112  0.98611629  1
  H+  H89  1  0.03564054  0.38555916  0.83457416  1
  H+  H90  1  0.62152748  0.38038195  0.82123452  1
  H+  H91  1  0.74543084  0.10056793  0.15207791  1
  H+  H92  1  0.85684924  0.23406308  0.67920224  1
  H+  H93  1  0.60137664  0.60626708  0.50718478  1
  H+  H94  1  0.88255004  0.35938000  0.33857657  1
  H+  H95  1  0.83434179  0.62344531  0.38807810  1
  H+  H96  1  0.90010569  0.53478124  0.15947012  1
  H+  H97  1  0.63329965  0.03514392  0.51104519  1
  H+  H98  1  0.85160805  0.12926255  0.82542602  1
  H+  H99  1  0.28174345  0.87326688  0.67050301  1
  H+  H100  1  0.10418479  0.89095150  -0.00641302  1
  H+  H101  1  0.72455589  0.61089888  0.99081115  1
  H+  H102  1  0.52763736  0.63195535  0.81848537  1
  H+  H103  1  0.89422016  0.77908356  0.82595052  1
  H+  H104  1  0.61931072  0.89461441  0.67354289  1
  H+  H105  1  0.88463508  0.02639859  0.46801869  1
  H+  H106  1  0.25560957  0.13822560  0.67858344  1
  H+  H107  1  0.38545551  0.86245264  0.98263934  1
  H+  H108  1  0.15669510  0.81109167  0.81548680  1
  H+  H109  1  0.72073070  0.86129618  0.17077320  1
  H+  H110  1  0.77365866  0.89184546  0.49841125  1
  H+  H111  1  0.08218239  0.40877562  0.44462112  1
  H+  H112  1  0.65192408  0.09094319  0.94026498  1
  H+  H113  1  0.27326035  0.63248411  0.82849482  1
  H+  H114  1  0.39108665  0.85707705  0.66049289  1
  H+  H115  1  0.14297808  0.62711586  -0.01612098  1
  H+  H116  1  0.96906867  0.11763299  0.46690639  1
  H+  H117  1  0.63272672  0.28134981  0.00161796  1
  H+  H118  1  0.63498833  0.86890784  0.99441020  1
  H+  H119  1  0.85888338  0.24932350  0.18444441  1
  H+  H120  1  0.08902133  0.61746464  0.67593399  1
  H+  H121  1  0.35536805  -0.02007993  1.01939788  1
  H+  H122  1  0.63285047  0.36926949  -0.00636230  1
  H+  H123  1  0.60440898  0.14322571  0.01686808  1
  H+  H124  1  0.39163025  0.03061941  0.84032608  1
  H+  H125  1  0.40971260  0.51601403  0.66396219  1
  H+  H126  1  0.88773621  0.27724589  0.00965633  1
  H+  H127  1  0.21243710  0.12318271  0.82300824  1
  H+  H128  1  0.60673243  0.97059920  0.82258887  1
  H+  H129  1  0.42799062  0.36192712  0.23191985  1
  H+  H130  1  0.34257079  0.17019513  0.60983143  1
  H+  H131  1  0.61937919  0.27313062  0.66052341  1
  H+  H132  1  0.88336024  0.77453258  0.68264710  1
  H+  H133  1  0.60980682  0.48432600  -0.00038292  1
  H+  H134  1  0.08653622  0.68320074  0.84140740  1
  H+  H135  1  0.13156841  0.02745039  0.98091130  1
  H+  H136  1  0.61708844  0.90674778  0.50152511  1
  H+  H137  1  0.13758261  0.51204461  0.83838741  1
  H+  H138  1  0.87168350  0.60776456  0.68382434  1
  H+  H139  1  0.73100881  0.11203640  0.32431889  1
  H+  H140  1  0.10197448  0.36996710  0.15656792  1
  H+  H141  1  0.53120872  0.63295587  0.15237218  1
  H+  H142  1  -0.04647903  0.59823718  0.67154416  1
  H+  H143  1  0.30517160  0.38450011  0.06068875  1
  H+  H144  1  0.52230345  0.88940611  0.16545448  1
  H+  H145  1  0.52334425  0.62224817  0.33489876  1
  H+  H146  1  0.07177314  0.95551414  0.33862017  1
  H+  H147  1  0.55720743  0.17899508  0.75442542  1
  H+  H148  1  0.30457159  0.45766374  0.39057931  1
  H+  H149  1  0.13397838  0.41080363  0.67306716  1
  H+  H150  1  0.78056493  0.63392621  0.78686455  1
  H+  H151  1  0.10440631  0.14368022  0.99331208  1
  H+  H152  1  0.02117178  0.89220360  0.82899164  1
  H+  H153  1  0.62970968  0.14368268  0.33802246  1
  H+  H154  1  0.11778612  0.48851868  0.11350886  1
  H+  H155  1  0.62118560  0.69568135  0.48555057  1
  H+  H156  1  0.48546471  0.61649242  0.98187133  1
  H+  H157  1  0.02004627  0.64390622  -0.00550944  1
  H+  H158  1  0.10788791  0.73754814  -0.01015710  1
  H+  H159  1  0.07271218  0.07621780  0.31686599  1
  H+  H160  1  0.39638261  0.61473891  0.83278124  1
  H+  H161  1  0.99640580  0.40424155  0.18924295  1
  H+  H162  1  0.38763061  0.98690579  0.15239973  1
  H+  H163  1  0.17626529  0.34497803  0.89772330  1
  H+  H164  1  0.62867641  0.76595844  0.32736417  1
  H+  H165  1  0.63716166  0.62559486  0.64205130  1
  H+  H166  1  0.61010203  0.88821471  0.16083961  1
  H+  H167  1  0.61772845  0.72496580  0.16030773  1
  H+  H168  1  0.27889554  0.38210617  0.82372928  1
  H+  H169  1  0.47932112  0.35872403  0.52113343  1
  H+  H170  1  0.95265992  0.09365776  0.83727084  1
  H+  H171  1  0.84513823  0.46736097  0.67999013  1
  H+  H172  1  0.21121353  0.62075395  0.35495623  1
  H+  H173  1  0.89218351  0.36673750  0.00350902  1
  H+  H174  1  0.37064660  0.62714763  0.67681584  1
  H+  H175  1  0.91722923  0.33602114  0.60365546  1
  H+  H176  1  0.85549336  0.13851041  0.47551175  1
  H+  H177  1  0.97148911  0.35904784  0.34071146  1
  H+  H178  1  0.85859348  0.88655114  0.00147059  1
  H+  H179  1  0.41139418  0.31667392  0.32201463  1
  H+  H180  1  0.11687672  0.90305671  0.82896713  1
  H+  H181  1  0.51229061  0.13102789  0.65313816  1
  H+  H182  1  0.86497775  1.00237391  0.83552091  1
  H+  H183  1  0.71618311  0.85471314  0.32686078  1
  H+  H184  1  0.21912350  0.11577705  0.17951020  1
  H+  H185  1  0.13149352  0.02895605  0.83267974  1
  H+  H186  1  0.21926865  0.87088445  0.98802852  1
  H+  H187  1  0.76955641  0.14182872  0.49405712  1
  H+  H188  1  0.62796692  0.50338380  0.16974291  1
  H+  H189  1  0.39314319  0.38165133  0.82096051  1
  H+  H190  1  1.01489268  0.89025959  0.99533578  1
  H+  H191  1  0.10134739  0.64698626  0.35191092  1
  H+  H192  1  0.43988794  0.38243790  0.68069361  1
  H+  H193  1  0.39158214  0.27740403  0.97575096  1
  H+  H194  1  0.62866609  0.24571499  0.16750911  1
  H+  H195  1  0.83843941  0.09391607  0.15200685  1
  H+  H196  1  0.36394383  0.96586820  0.65857455  1
  H+  H197  1  0.39584988  0.61256873  0.97544192  1
  H+  H198  1  0.35388548  0.46658369  0.14664403  1
  H+  H199  1  0.52099169  0.89087870  0.00451941  1
  H+  H200  1  0.64629633  0.27702827  0.32500430  1
  H+  H201  1  0.34060099  0.65189022  0.35258998  1
  H+  H202  1  0.09056110  0.13152830  0.83292120  1
  H+  H203  1  0.86641431  0.52345410  0.51972037  1
  H+  H204  1  0.64137808  0.36410342  0.32949856  1
  H+  H205  1  0.34809863  0.18405180  0.30677429  1
  H+  H206  1  0.87121863  1.01943976  -0.00943439  1
  H+  H207  1  0.47256690  0.10933479  1.00657774  1
  H+  H208  1  0.36736819  0.62814788  0.49904594  1
  H+  H209  1  0.27270118  0.89850286  0.35366887  1
  H+  H210  1  0.64409940  0.28451105  0.51025782  1
  H+  H211  1  0.14423418  0.36607993  0.51191524  1
  H+  H212  1  0.38089738  0.52254310  0.31275621  1
  H+  H213  1  0.13591594  0.27935902  0.32703792  1
  H+  H214  1  0.35473962  0.87190629  0.49735940  1
  H+  H215  1  0.93595080  0.32911869  0.91400910  1
  H+  H216  1  1.01488430  0.13769450  0.99375935  1
  H+  H217  1  0.77546362  0.38725088  0.34446651  1
  H+  H218  1  0.83062703  0.45956681  0.82616267  1
  H+  H219  1  0.73797392  0.37930341  0.17567279  1
  H+  H220  1  0.53082210  0.39919337  0.16717898  1
  H+  H221  1  0.01561946  0.13805594  0.17107236  1
  H+  H222  1  0.88645679  0.52920259  0.98227565  1
  H+  H223  1  0.11892480  0.64763271  0.49099647  1
  H+  H224  1  0.63908248  0.61515119  0.17119461  1
  H+  H225  1  0.47448691  0.85885726  0.50779641  1
  H+  H226  1  0.39302565  0.09744863  0.58536136  1
  H+  H227  1  0.37012075  0.16508473  0.16876030  1
  H+  H228  1  0.13781203  0.62054422  0.11208100  1
  H+  H229  1  0.63506065  0.03048729  0.66300469  1
  H+  H230  1  0.39658491  0.26779933  0.54319161  1
  H+  H231  1  0.52262862  0.89338209  0.34534520  1
  H+  H232  1  0.87197114  0.10602214  0.32938648  1
  H+  H233  1  0.36156012  0.47570536  0.81668373  1
  H+  H234  1  0.85631560  0.88344434  0.15649856  1
  H+  H235  1  0.86673479  0.64212929  0.99927075  1
  H+  H236  1  0.39700845  0.29324869  0.17615142  1
  H+  H237  1  0.10620002  0.88790611  0.34789089  1
  H+  H238  1  0.83852372  0.62709372  0.52090079  1
  H+  H239  1  0.25810383  0.59255578  0.12005056  1
  H+  H240  1  0.07495795  0.68093993  0.40884372  1
  H+  H241  1  0.85584036  0.88191394  0.33605725  1
  H+  H242  1  0.29559244  0.12893459  0.54728084  1
  H+  H243  1  0.10492252  0.13812210  0.17249438  1
  H+  H244  1  0.50635073  0.15355295  0.81962458  1
  H+  H245  1  0.23356417  0.36180416  0.50955630  1
  H+  H246  1  0.71106882  0.35866587  0.66641012  1
  H+  H247  1  0.87653345  1.01233540  0.17203946  1
  H+  H248  1  0.21729777  0.36075043  0.17464319  1
  H+  H249  1  0.34540981  0.20346279  0.71295818  1
  H+  H250  1  0.35454469  0.38109450  0.15636027  1
  H+  H251  1  0.88342180  0.86017468  0.51815145  1
  H+  H252  1  0.88899954  0.36641888  0.51133697  1
  H+  H253  1  0.60119846  0.13711947  0.66819788  1
  H+  H254  1  0.87420071  0.64315690  0.15659134  1
  H+  H255  1  0.88583173  0.03542227  0.68647882  1
  H+  H256  1  0.13409082  0.78412362  0.33585175  1
  H+  H257  1  0.24925976  0.88801355  0.82946388  1
  H+  H258  1  0.62391070  0.47808632  0.34291584  1
  H+  H259  1  0.49740335  0.16214077  0.19107573  1
  H+  H260  1  0.32326969  0.68555774  0.14107762  1
  H+  H261  1  0.19870939  0.72669261  0.11614365  1
  H+  H262  1  0.12733769  0.27077414  0.18198316  1
  H+  H263  1  0.47496435  0.59698081  0.50863179  1
  H+  H264  1  0.05836865  0.14324967  0.53153380  1
  H+  H265  1  0.34606526  0.39220490  0.44634701  1
  H+  H266  1  0.25326931  0.39669576  0.33469239  1
  H+  H267  1  0.22950718  0.87111730  0.51385891  1
  H+  H268  1  0.04115744  0.35751973  0.09990086  1
  H+  H269  1  0.97676296  0.83576501  0.33275743  1
  H+  H270  1  0.28538598  0.63410327  0.67049020  1
  H+  H271  1  0.73948987  0.87852607  0.67055938  1
  H+  H272  1  0.22882178  0.39961690  -0.01275627  1
  H+  H273  1  0.13881372  0.01757217  0.51389717  1
  H+  H274  1  0.60660794  0.88366964  0.34207764  1
  H+  H275  1  0.63411353  0.59349484  0.81052020  1
  H+  H276  1  0.10678346  0.60707321  0.83198922  1
  H+  H277  1  0.78313110  0.63966117  0.15794685  1
  H+  H278  1  0.12805772  0.87114016  0.17468111  1
  H+  H279  1  0.11859042  0.01495757  0.66931966  1
  H+  H280  1  0.38868540  0.39167710  0.32992205  1
  H+  H281  1  0.29443763  0.35065838  0.67336862  1
  H+  H282  1  0.15420575  0.58770673  0.29561112  1
  H+  H283  1  0.54082584  0.14149706  0.34559548  1
  H+  H284  1  0.23176926  0.62400266  -0.01553881  1
  H+  H285  1  0.61767189  0.73334020  1.00355042  1
  H+  H286  1  0.38018041  0.10152903  0.00069323  1
  H+  H287  1  0.88828053  0.77609366  0.16861636  1
  H+  H288  1  0.66207651  0.83745313  0.93400805  1
  H+  H289  1  0.41698167  0.82472611  0.56794032  1
  H+  H290  1  0.13433849  0.02503932  0.16468383  1
  H+  H291  1  0.70608435  0.36561166  0.82433616  1
  H+  H292  1  0.28798761  0.93959888  0.07251270  1
  H+  H293  1  0.37603180  0.96488864  0.51531605  1
  H+  H294  1  0.84761883  0.12637163  -0.00010383  1
  H+  H295  1  0.57813663  0.17517268  0.07707191  1
  H+  H296  1  0.42198991  0.57095088  0.60533861  1
  H+  H297  1  0.33276530  0.92417115  0.41419880  1
  H+  H298  1  0.57724127  0.41058414  0.44477496  1
  H+  H299  1  0.85289517  0.38214283  0.67526491  1
  H+  H300  1  0.33337853  0.66318854  0.76923740  1
  H+  H301  1  0.72198850  0.60953195  0.32892985  1
  H+  H302  1  0.83008981  0.91636012  0.74401875  1
  H+  H303  1  0.42078169  0.08371007  0.90159768  1
  H+  H304  1  0.86036881  0.22534351  0.33731812  1
  H+  H305  1  0.76167784  0.39197401  1.00266374  1
  H+  H306  1  0.41956433  0.83619610  0.92430520  1
  H+  H307  1  0.13296373  0.23117823  0.69041200  1
  H+  H308  1  0.10941012  0.68075100  0.07181193  1
  H+  H309  1  0.90477813  0.82500985  0.61731556  1
  H+  H310  1  0.95663330  0.06249174  0.57642151  1
  H+  H311  1  0.38521818  0.88146760  0.33939073  1
  H+  H312  1  0.16475961  0.84557170  0.27722313  1
  H+  H313  1  0.32955474  0.18096115  0.10874727  1
  H+  H314  1  0.85169991  0.96788926  0.33882980  1
  H+  H315  1  0.64017235  1.02310900  0.32621843  1
  H+  H316  1  0.08586110  0.41892979  0.77107675  1
  H+  H317  1  0.58407280  0.92515005  0.43871004  1
  H+  H318  1  0.66079904  0.83018597  0.23063243  1
  H+  H319  1  0.06492904  0.64151728  0.73929273  1
  H+  H320  1  0.91738102  0.83615473  0.22705456  1
  H+  H321  1  0.64969788  0.78735563  0.66393892  1
  H+  H322  1  0.67756992  0.35014237  0.23564248  1
  H+  H323  1  0.80594364  0.40010893  0.76766947  1
  H+  H324  1  0.37045811  0.72059337  0.50377573  1
  H+  H325  1  0.15047554  0.64720556  0.22658468  1
  H+  H326  1  0.57465394  0.42407093  0.05834206  1
  H+  H327  1  0.67917463  0.85911284  0.58162665  1
  H+  H328  1  0.47428219  0.85936522  0.83418519  1
  H+  H329  1  0.60582121  0.18859081  0.43599099  1
  H+  H330  1  0.06567958  0.16395795  0.77439076  1
  H+  H331  1  0.79827241  0.66025717  0.46774931  1
  H+  H332  1  0.32331261  0.19488578  0.43657844  1
  H+  H333  1  0.15829307  0.33585090  0.26436784  1
  H+  H334  1  0.27206502  0.07058257  0.05883186  1
  H+  H335  1  1.01680613  0.88274227  0.50620222  1
  H+  H336  1  0.42246116  0.56927686  0.21198518  1
  H+  H337  1  0.82066937  0.45360702  0.05517032  1
  H+  H338  1  0.66804811  0.08409948  0.23359922  1
  H+  H339  1  0.41441790  0.83976203  0.24838766  1
  H+  H340  1  0.10200184  0.04744842  0.25796238  1
  H+  H341  1  0.69790212  0.03431183  0.88628227  1
  H+  H342  1  0.83349873  0.41896408  0.44504458  1
  H+  H343  1  0.09458797  0.17276712  0.41163995  1
  H+  H344  1  0.89085241  0.07083911  0.92758901  1
  H+  H345  1  0.07826309  0.92043625  0.08969488  1
  H+  H346  1  0.17510028  0.81109380  0.60321274  1
  H+  H347  1  0.20169990  0.36618848  0.60300490  1
  H+  H348  1  0.40607593  0.36144218  0.61410044  1
  H+  H349  1  0.93663760  0.58868573  0.21855488  1
  H+  H350  1  0.53275915  0.39856769  0.34450541  1
  H+  H351  1  0.94245856  0.38255032  0.25135603  1
  H+  H352  1  0.02457935  0.38208719  0.50451650  1
  H+  H353  1  0.15383167  0.07678281  0.61084291  1
  H+  H354  1  0.12811978  0.59936512  0.22080184  1
  H+  H355  1  0.07026591  0.91089583  0.44398267  1
  H+  H356  1  0.57888594  0.91337953  0.76199004  1
  H+  H357  1  0.12111896  0.73739660  0.49718049  1
  H+  H358  1  0.88317885  0.60853377  0.82210159  1
  H+  H359  1  0.59136706  0.67113741  0.06103487  1
  H+  H360  1  0.57708381  0.64192073  0.39716186  1
  H+  H361  1  0.31323512  0.83997908  0.08696832  1
  H+  H362  1  0.34058137  0.16476591  0.43338235  1
  H+  H363  1  0.72274531  0.86211383  0.84413960  1
  H+  H364  1  0.17355419  0.84648537  0.92218157  1
  H+  H365  1  0.66766026  0.09346080  0.57074222  1
  H+  H366  1  0.66630634  0.34049731  0.57221890  1
  H+  H367  1  0.07058662  0.38027712  -0.01894167  1
  H+  H368  1  0.38734402  0.50862085  0.51206487  1
  H+  H369  1  0.91231594  0.58791868  0.92305425  1
  H+  H370  1  0.33963588  0.66030598  0.04687666  1
  H+  H371  1  0.17279061  0.09198147  0.92422957  1
  H+  H372  1  0.41915264  0.34357834  0.87837833  1
  H+  H373  1  0.42961445  0.58306832  0.88877912  1
  H+  H374  1  0.91146689  0.83268353  0.92534664  1
  H+  H375  1  0.82711070  0.17447471  0.77240241  1
  H+  H376  1  0.17630986  0.59967601  0.59279063  1
  H+  H377  1  0.82655918  0.91314087  0.09690479  1
  H+  H378  1  0.80637332  0.12613044  0.08266790  1
  H+  H379  1  0.07779830  0.91988456  0.73463893  1
  H+  H380  1  0.72158036  0.12198097  0.66649155  1
  H+  H381  1  0.66947629  0.58405205  0.23319336  1
  H+  H382  1  0.16511814  0.57350496  0.89853890  1
  H+  H383  1  0.93517168  0.08859983  0.57010593  1
  O2-  O384  1  0.07852488  0.17495709  0.17075490  1
  O2-  O385  1  0.09070765  0.17374389  0.49519207  1
  O2-  O386  1  0.05564704  0.15718103  0.81940321  1
  O2-  O387  1  0.06511573  0.39148370  0.13683417  1
  O2-  O388  1  0.08597743  0.41103366  0.49000897  1
  O2-  O389  1  0.09346740  0.42246512  0.81546671  1
  O2-  O390  1  0.13556793  0.67793273  0.11376922  1
  O2-  O391  1  0.09109267  0.67998200  0.47716259  1
  O2-  O392  1  0.06837645  0.63176816  0.81717805  1
  O2-  O393  1  0.08111810  0.92223346  0.13525840  1
  O2-  O394  1  0.07637657  0.91410156  0.48892417  1
  O2-  O395  1  0.08262970  0.92871596  0.81472020  1
  O2-  O396  1  0.33407075  0.18933839  0.15348548  1
  O2-  O397  1  0.35364921  0.16207637  0.56492906  1
  O2-  O398  1  0.39170300  0.24836504  0.78128373  1
  O2-  O399  1  0.31730169  0.40334471  0.14175858  1
  O2-  O400  1  0.33959075  0.39904099  0.48960346  1
  O2-  O401  1  0.33297757  0.41663088  0.80010344  1
  O2-  O402  1  0.32115990  0.63313587  0.12693878  1
  O2-  O403  1  0.33763218  0.66009428  0.48650250  1
  O2-  O404  1  0.33421543  0.66721289  0.81444864  1
  O2-  O405  1  0.29768199  0.79070958  0.11440463  1
  O2-  O406  1  0.33444337  0.91311071  0.48866063  1
  O2-  O407  1  0.34404972  0.92554132  0.80683636  1
  O2-  O408  1  0.59012659  0.18418698  0.15650187  1
  O2-  O409  1  0.60017039  0.19094659  0.48045170  1
  O2-  O410  1  0.56311437  0.19085466  0.79898892  1
  O2-  O411  1  0.59384664  0.43246940  0.15317219  1
  O2-  O412  1  0.57283526  0.40933251  0.48935837  1
  O2-  O413  1  0.61434288  0.47595989  0.80021541  1
  O2-  O414  1  0.59471477  0.66493308  0.14484383  1
  O2-  O415  1  0.58007526  0.63526069  0.47847254  1
  O2-  O416  1  0.59002363  0.66224859  0.80478920  1
  O2-  O417  1  0.58022060  0.91970104  0.14693854  1
  O2-  O418  1  0.57933387  0.92674963  0.48380357  1
  O2-  O419  1  0.57580824  0.91026530  0.80789804  1
  O2-  O420  1  0.79134415  0.09697177  0.12687494  1
  O2-  O421  1  0.82743470  0.17436202  0.47391604  1
  O2-  O422  1  0.82668819  0.16708312  0.81785224  1
  O2-  O423  1  0.84158178  0.41632501  0.14939803  1
  O2-  O424  1  0.83576269  0.41901485  0.49006159  1
  O2-  O425  1  0.79577435  0.39932758  0.81250036  1
  O2-  O426  1  0.84270243  0.67388537  0.14323303  1
  O2-  O427  1  0.80837835  0.66323366  0.51173851  1
  O2-  O428  1  0.84393949  0.67255806  0.78241391  1
  O2-  O429  1  0.82438124  0.91253902  0.14280309  1
  O2-  O430  1  0.83129220  0.91238475  0.48014343  1
  O2-  O431  1  0.81501170  0.88472034  0.81185536  1
  O2-  O432  1  0.15708491  0.07966527  0.18819635  1
  O2-  O433  1  0.17537004  0.07688360  0.53070520  1
  O2-  O434  1  0.16080780  0.09059525  0.84741667  1
  O2-  O435  1  0.15841691  0.33530390  0.19266180  1
  O2-  O436  1  0.17464701  0.33550329  0.52738238  1
  O2-  O437  1  0.19243687  0.31503646  0.86775178  1
  O2-  O438  1  0.15489504  0.54969910  0.09811608  1
  O2-  O439  1  0.16840347  0.58190358  0.51981074  1
  O2-  O440  1  0.16653022  0.57575994  0.85337426  1
  O2-  O441  1  0.15243079  0.83995143  0.19723127  1
  O2-  O442  1  0.16926141  0.83863447  0.52945811  1
  O2-  O443  1  0.18632430  0.85891673  0.84359392  1
  O2-  O444  1  0.44128637  0.14845157  0.21030112  1
  O2-  O445  1  0.44708964  0.03188766  0.55855862  1
  O2-  O446  1  0.41605144  0.08916632  0.85742983  1
  O2-  O447  1  0.43306095  0.35576490  0.18718817  1
  O2-  O448  1  0.41933840  0.33121934  0.53957103  1
  O2-  O449  1  0.43482307  0.36179474  0.83565607  1
  O2-  O450  1  0.42431942  0.57320565  0.16700361  1
  O2-  O451  1  0.41533667  0.57013209  0.52447911  1
  O2-  O452  1  0.42844115  0.58472414  0.84253812  1
  O2-  O453  1  0.41796622  0.82572485  0.20414215  1
  O2-  O454  1  0.41437240  0.82034396  0.52234996  1
  O2-  O455  1  0.41432180  0.83216607  0.85113304  1
  O2-  O456  1  0.66304767  0.08559412  0.18768934  1
  O2-  O457  1  0.67045221  0.09513274  0.52516634  1
  O2-  O458  1  0.67460978  0.06565500  0.86522717  1
  O2-  O459  1  0.67701616  0.35411720  0.18967802  1
  O2-  O460  1  0.67378320  0.34542770  0.52701338  1
  O2-  O461  1  0.63938433  0.33873289  0.83354646  1
  O2-  O462  1  0.66738144  0.58117804  0.18687269  1
  O2-  O463  1  0.65451746  0.58700904  0.56096331  1
  O2-  O464  1  0.67226630  0.56768075  0.80920439  1
  O2-  O465  1  0.65954321  0.83053203  0.18526158  1
  O2-  O466  1  0.67295925  0.85851547  0.53495143  1
  O2-  O467  1  0.66080735  0.83176543  0.85887339  1
  O2-  O468  1  0.89915471  0.07335394  0.18587857  1
  O2-  O469  1  0.90960517  0.08618226  0.45261104  1
  O2-  O470  1  0.89042883  0.06175095  0.85047659  1
  O2-  O471  1  0.96099573  0.42021430  0.21457944  1
  O2-  O472  1  0.91939189  0.33504184  0.52485051  1
  O2-  O473  1  0.94168016  0.32967853  0.86955679  1
  O2-  O474  1  0.92894815  0.59444969  0.17473589  1
  O2-  O475  1  0.88348019  0.58062436  0.53739213  1
  O2-  O476  1  0.90041128  0.57301516  0.84636565  1
  O2-  O477  1  0.91591624  0.83769283  0.18238240  1
  O2-  O478  1  0.91344328  0.83156705  0.53589937  1
  O2-  O479  1  0.91941924  0.83479861  0.84752287  1
  O2-  O480  1  0.06345256  0.02549009  0.29404056  1
  O2-  O481  1  0.14705958  0.07767770  0.65550375  1
  O2-  O482  1  0.17130635  0.08846191  0.96962596  1
  O2-  O483  1  0.16028569  0.33850998  0.31111349  1
  O2-  O484  1  0.22106156  0.39576445  0.64323806  1
  O2-  O485  1  0.18892412  0.41589691  0.96445650  1
  O2-  O486  1  0.15096729  0.58350155  0.34004737  1
  O2-  O487  1  0.18523196  0.61814176  0.63710594  1
  O2-  O488  1  0.16767212  0.58909246  0.97951696  1
  O2-  O489  1  0.16696189  0.84575190  0.32264649  1
  O2-  O490  1  0.19062537  0.79273842  0.64188982  1
  O2-  O491  1  0.16284481  0.84045415  0.96691653  1
  O2-  O492  1  0.43416703  0.08730433  0.32842191  1
  O2-  O493  1  0.41486672  0.06175828  0.60628438  1
  O2-  O494  1  0.41285350  0.07238361  0.98946628  1
  O2-  O495  1  0.42897227  0.37681373  0.31072298  1
  O2-  O496  1  0.39736399  0.38365231  0.65332508  1
  O2-  O497  1  0.41350360  0.33697557  0.96425336  1
  O2-  O498  1  0.42762866  0.57554290  0.29204877  1
  O2-  O499  1  0.42653301  0.57448242  0.65054932  1
  O2-  O500  1  0.42860863  0.58521977  0.96178420  1
  O2-  O501  1  0.41324189  0.84837231  0.32355184  1
  O2-  O502  1  0.42159178  0.82716975  0.64477990  1
  O2-  O503  1  0.41977101  0.83670371  0.97075365  1
  O2-  O504  1  0.67027733  0.08185082  0.30803279  1
  O2-  O505  1  0.66225904  0.09096098  0.64848708  1
  O2-  O506  1  0.65287065  0.09080065  0.98545355  1
  O2-  O507  1  0.67418463  0.33860053  0.31067519  1
  O2-  O508  1  0.65178560  0.33537815  0.64974751  1
  O2-  O509  1  0.66659548  0.34028679  0.98526484  1
  O2-  O510  1  0.66639495  0.57945913  0.30653716  1
  O2-  O511  1  0.65955933  0.58739536  0.62731144  1
  O2-  O512  1  0.66381180  0.57882362  0.97797833  1
  O2-  O513  1  0.65575416  0.82563351  0.31171669  1
  O2-  O514  1  0.67908266  0.84929659  0.65182867  1
  O2-  O515  1  0.66540266  0.83893064  0.97989418  1
  O2-  O516  1  0.89779697  0.07178375  0.31182168  1
  O2-  O517  1  0.91036397  0.09809249  0.68002307  1
  O2-  O518  1  0.89182174  0.07763576  0.97289362  1
  O2-  O519  1  0.91388175  0.33117083  0.32087143  1
  O2-  O520  1  0.91611245  0.33818482  0.64909054  1
  O2-  O521  1  0.92653830  0.33824107  0.99952698  1
  O2-  O522  1  0.92557898  0.57533450  0.30507667  1
  O2-  O523  1  0.89135796  0.57103044  0.66154107  1
  O2-  O524  1  0.91920043  0.59032412  0.96850200  1
  O2-  O525  1  0.92225940  0.79109689  0.30997293  1
  O2-  O526  1  0.90615708  0.83240608  0.66215864  1
  O2-  O527  1  0.91245734  0.83608651  0.97092727  1
  O2-  O528  1  0.07122387  0.16615149  0.01362520  1
  O2-  O529  1  0.10935333  0.17836565  0.36779623  1
  O2-  O530  1  0.08617272  0.17227171  0.69885386  1
  O2-  O531  1  0.11775567  0.38838966  0.00782163  1
  O2-  O532  1  0.07690915  0.41193001  0.36718534  1
  O2-  O533  1  0.09117118  0.42751038  0.68554917  1
  O2-  O534  1  0.08225213  0.67826520  0.00752826  1
  O2-  O535  1  0.07131879  0.67911553  0.36170896  1
  O2-  O536  1  0.05947021  0.64545333  0.69452239  1
  O2-  O537  1  0.07591787  0.92155191  0.01084557  1
  O2-  O538  1  0.06268779  0.90349405  0.36224582  1
  O2-  O539  1  0.07639062  0.91928205  0.68962874  1
  O2-  O540  1  0.30262068  0.12380677  0.03567985  1
  O2-  O541  1  0.40997725  0.22061013  0.31328499  1
  O2-  O542  1  0.31891147  0.16700089  0.67629741  1
  O2-  O543  1  0.29086275  0.37285716  0.01722783  1
  O2-  O544  1  0.31382044  0.43591804  0.35233765  1
  O2-  O545  1  0.23193196  0.33329125  0.67959107  1
  O2-  O546  1  0.33598653  0.66672500  0.00245850  1
  O2-  O547  1  0.31753013  0.68325810  0.37392347  1
  O2-  O548  1  0.34305336  0.66088563  0.68957570  1
  O2-  O549  1  0.31003477  0.92225243  0.03799581  1
  O2-  O550  1  0.33341453  0.92702458  0.36814766  1
  O2-  O551  1  0.34201064  0.91402023  0.68443247  1
  O2-  O552  1  0.57224963  0.17155588  0.03192674  1
  O2-  O553  1  0.60376780  0.17808834  0.35292110  1
  O2-  O554  1  0.56516598  0.16375244  0.67758623  1
  O2-  O555  1  0.57460943  0.42145708  0.01398517  1
  O2-  O556  1  0.59180788  0.41825655  0.35857032  1
  O2-  O557  1  0.57689857  0.42961550  0.68630633  1
  O2-  O558  1  0.58908462  0.67175339  0.01616612  1
  O2-  O559  1  0.58192829  0.65348732  0.35271756  1
  O2-  O560  1  0.59675757  0.67905468  0.68222532  1
  O2-  O561  1  0.58062554  0.92409907  0.02091680  1
  O2-  O562  1  0.58380849  0.92007878  0.35827641  1
  O2-  O563  1  0.58525378  0.92179679  0.68712020  1
  O2-  O564  1  0.81951733  0.15618418  0.02243686  1
  O2-  O565  1  0.82856087  0.16402205  0.35168562  1
  O2-  O566  1  0.82215614  0.17507360  0.69627078  1
  O2-  O567  1  0.82520438  0.42855151  0.01699970  1
  O2-  O568  1  0.83464561  0.41427675  0.36212569  1
  O2-  O569  1  0.81631081  0.40479368  0.69131463  1
  O2-  O570  1  0.83735808  0.67273453  0.01522481  1
  O2-  O571  1  0.80762517  0.65799962  0.37953755  1
  O2-  O572  1  0.85433218  0.68007188  0.71591963  1
  O2-  O573  1  0.82907404  0.91548901  0.02030748  1
  O2-  O574  1  0.82247457  0.90636666  0.35268442  1
  O2-  O575  1  0.83321085  0.92483722  0.69750396  1
