# generated using pymatgen
data_H2O
_symmetry_space_group_name_H-M   'P 1'
_cell_length_a   17.99223879
_cell_length_b   17.99641802
_cell_length_c   22.01757424
_cell_angle_alpha   89.97079472
_cell_angle_beta   90.04240544
_cell_angle_gamma   120.01712839
_symmetry_Int_Tables_number   1
_chemical_formula_structural   H2O
_chemical_formula_sum   'H384 O192'
_cell_volume   6172.99992120
_cell_formula_units_Z   192
loop_
 _symmetry_equiv_pos_site_id
 _symmetry_equiv_pos_as_xyz
  1  'x, y, z'
loop_
 _atom_type_symbol
 _atom_type_oxidation_number
  H+  1.0
  O2-  -2.0
loop_
 _atom_site_type_symbol
 _atom_site_label
 _atom_site_symmetry_multiplicity
 _atom_site_fract_x
 _atom_site_fract_y
 _atom_site_fract_z
 _atom_site_occupancy
  H+  H0  1  0.64746019  0.10955162  0.49354536  1
  H+  H1  1  0.21134529  0.33606328  0.83412744  1
  H+  H2  1  0.89733712  0.27933269  1.00300622  1
  H+  H3  1  0.98311032  0.61445560  0.99247983  1
  H+  H4  1  0.65053535  0.27919919  0.18137645  1
  H+  H5  1  0.90062661  0.87832689  0.70038652  1
  H+  H6  1  0.13298598  0.74318785  0.83970752  1
  H+  H7  1  0.87603749  0.37251620  0.68512321  1
  H+  H8  1  0.85515192  0.46451229  0.46050200  1
  H+  H9  1  0.09991277  0.95994255  0.84049039  1
  H+  H10  1  0.23293585  0.89173317  0.15628335  1
  H+  H11  1  0.37219180  0.23290284  0.49481411  1
  H+  H12  1  0.85424680  0.72220571  0.83302226  1
  H+  H13  1  0.61542500  0.12079084  0.18460165  1
  H+  H14  1  0.32430099  0.86903815  -0.00082144  1
  H+  H15  1  0.13861001  0.85882673  0.86389516  1
  H+  H16  1  0.03261463  0.72289577  0.21933086  1
  H+  H17  1  0.62524739  0.89029177  0.99872113  1
  H+  H18  1  0.60759741  0.63111902  0.49054827  1
  H+  H19  1  0.59088301  0.84172086  0.65031956  1
  H+  H20  1  0.62476007  0.51810618  0.17474644  1
  H+  H21  1  0.77819530  0.13414313  0.48789094  1
  H+  H22  1  0.65239183  0.23034291  0.65887432  1
  H+  H23  1  -0.04032812  0.10361756  0.83772882  1
  H+  H24  1  0.25912737  0.64657062  0.83621167  1
  H+  H25  1  0.25130657  0.16404660  0.19634042  1
  H+  H26  1  0.87040074  0.22836222  0.16404254  1
  H+  H27  1  0.88890082  0.26996936  0.50012017  1
  H+  H28  1  0.51171093  0.89445732  0.66934947  1
  H+  H29  1  0.97663117  0.85682444  0.31710483  1
  H+  H30  1  0.81031520  0.65888802  0.42316492  1
  H+  H31  1  0.63593158  0.12017261  0.84259568  1
  H+  H32  1  0.69585657  0.41857224  0.62698646  1
  H+  H33  1  0.39085879  0.62027368  0.49623997  1
  H+  H34  1  0.11590298  0.97472903  0.32770360  1
  H+  H35  1  0.84260720  0.88340773  0.84472878  1
  H+  H36  1  0.67028078  0.64722026  0.65954658  1
  H+  H37  1  0.90346389  0.51948820  0.69649077  1
  H+  H38  1  0.12086458  0.14506663  0.49565000  1
  H+  H39  1  0.73409956  0.37264578  0.16824428  1
  H+  H40  1  0.09785499  0.63017517  0.48481785  1
  H+  H41  1  0.88939586  0.11503872  0.50012892  1
  H+  H42  1  0.47392855  0.61196030  0.17297561  1
  H+  H43  1  0.18051063  0.55426228  0.82839673  1
  H+  H44  1  0.42661041  0.08661293  0.59669800  1
  H+  H45  1  0.33580864  0.15891424  0.11147941  1
  H+  H46  1  0.72692019  0.25787394  0.35379995  1
  H+  H47  1  0.63108831  0.52507450  0.33060156  1
  H+  H48  1  0.14038186  0.87538896  0.67033417  1
  H+  H49  1  0.21217934  0.86440689  0.12887772  1
  H+  H50  1  0.38633745  0.61396900  0.17001329  1
  H+  H51  1  -0.01056896  0.85648601  0.14996534  1
  H+  H52  1  0.85069060  0.71791566  0.48110330  1
  H+  H53  1  0.52386788  0.64410732  0.33631926  1
  H+  H54  1  0.22964781  0.36186368  0.49027983  1
  H+  H55  1  0.48205249  0.86554061  0.17407334  1
  H+  H56  1  0.61297401  0.61713336  0.81555356  1
  H+  H57  1  0.95350639  0.85464429  0.85083135  1
  H+  H58  1  0.36585932  0.51800185  0.98996877  1
  H+  H59  1  0.15580577  0.83115097  0.61228488  1
  H+  H60  1  0.50720311  0.90646353  0.01218474  1
  H+  H61  1  0.39308214  0.11857087  0.65420112  1
  H+  H62  1  0.43932094  0.46153694  0.94508044  1
  H+  H63  1  0.38689976  0.24119418  0.83946938  1
  H+  H64  1  0.72742863  0.37332674  0.31888714  1
  H+  H65  1  1.01135327  0.63363726  0.69438041  1
  H+  H66  1  0.11974405  0.47680447  0.16381701  1
  H+  H67  1  0.78644857  0.91133029  0.68252020  1
  H+  H68  1  0.86716546  0.02046788  0.84375967  1
  H+  H69  1  0.70295742  0.87032821  0.84690145  1
  H+  H70  1  0.62678831  0.60961854  0.17406157  1
  H+  H71  1  0.77924393  0.13592514  0.33771970  1
  H+  H72  1  0.35220550  0.74701723  0.47551727  1
  H+  H73  1  0.12431932  0.09471282  0.83880608  1
  H+  H74  1  0.63838161  0.10265127  0.64705062  1
  H+  H75  1  0.39762655  0.87428808  0.32904424  1
  H+  H76  1  0.47922137  0.34817904  0.33269607  1
  H+  H77  1  0.78424642  0.36070680  0.68676602  1
  H+  H78  1  0.72594646  0.12170998  0.83885435  1
  H+  H79  1  0.61190451  0.23104245  0.83474700  1
  H+  H80  1  0.53236110  0.63216179  0.81363770  1
  H+  H81  1  0.12789490  0.37614214  0.32889071  1
  H+  H82  1  0.52549815  0.65465268  1.00355079  1
  H+  H83  1  0.60278118  0.89572037  0.82909738  1
  H+  H84  1  0.86121020  0.97343731  0.49033572  1
  H+  H85  1  0.13293794  0.25916203  0.48931476  1
  H+  H86  1  0.78060883  0.13589084  0.65844174  1
  H+  H87  1  0.61302515  0.38591612  0.16182701  1
  H+  H88  1  0.13058910  0.51378138  0.49873514  1
  H+  H89  1  0.38133467  0.61859707  0.64722618  1
  H+  H90  1  0.37107805  0.73134790  0.16031410  1
  H+  H91  1  0.13417628  0.36701018  0.18149333  1
  H+  H92  1  0.87060175  0.60038654  0.46128140  1
  H+  H93  1  0.13851256  1.01336404  -0.00916238  1
  H+  H94  1  0.04074682  0.63814002  0.31383615  1
  H+  H95  1  0.38878430  0.36032349  0.18308117  1
  H+  H96  1  0.62091435  0.21949571  0.48054392  1
  H+  H97  1  0.62943607  0.41164600  0.33388368  1
  H+  H98  1  0.14621095  0.03364421  0.51299188  1
  H+  H99  1  0.19229806  1.01568469  0.18289211  1
  H+  H100  1  0.09658260  0.20327752  0.82851431  1
  H+  H101  1  0.63596217  0.54624700  0.66388886  1
  H+  H102  1  0.78319610  0.62859885  0.67362206  1
  H+  H103  1  0.71913832  0.86108402  0.50226434  1
  H+  H104  1  0.75154762  0.62042749  0.16177498  1
  H+  H105  1  -0.01543538  0.43290926  0.79075007  1
  H+  H106  1  0.35208844  0.11559246  0.01630480  1
  H+  H107  1  0.63725223  0.26987055  0.99369195  1
  H+  H108  1  0.46650912  0.89090274  0.49766445  1
  H+  H109  1  0.61089722  0.46737555  0.01683780  1
  H+  H110  1  0.39713624  0.90650676  0.14845916  1
  H+  H111  1  0.10223908  0.70145236  0.15781958  1
  H+  H112  1  0.15708903  0.14972874  0.18940405  1
  H+  H113  1  0.12679626  0.34322715  0.83253014  1
  H+  H114  1  0.85915336  0.14277663  0.83148964  1
  H+  H115  1  0.91177436  0.03766284  0.64899241  1
  H+  H116  1  0.48007405  0.36936078  0.50081258  1
  H+  H117  1  0.17874275  0.10841508  0.27812750  1
  H+  H118  1  0.10611793  0.73893486  0.68580275  1
  H+  H119  1  0.36031476  0.47359693  0.16688867  1
  H+  H120  1  0.64527902  0.64400156  0.98566705  1
  H+  H121  1  0.37872823  0.87030496  0.65850392  1
  H+  H122  1  0.37876904  0.09141063  0.33918563  1
  H+  H123  1  0.61425629  0.38417326  0.49497197  1
  H+  H124  1  0.97260022  0.10679165  0.99279728  1
  H+  H125  1  0.37725866  0.74273845  0.33056169  1
  H+  H126  1  0.74920328  0.81507833  0.70385317  1
  H+  H127  1  0.88383203  1.02245402  0.17711097  1
  H+  H128  1  0.39583110  0.69086853  0.81578333  1
  H+  H129  1  0.37670741  0.78734115  -0.01158883  1
  H+  H130  1  0.39346220  0.27332060  0.17717607  1
  H+  H131  1  0.77879573  0.14289245  0.01043312  1
  H+  H132  1  0.01899172  0.10795902  0.16048983  1
  H+  H133  1  0.14987053  0.60832812  0.17212359  1
  H+  H134  1  0.28269249  0.64030648  0.16002922  1
  H+  H135  1  0.07096235  0.80879639  0.17881267  1
  H+  H136  1  0.90141991  0.77355500  0.00040056  1
  H+  H137  1  0.10743677  0.48166172  0.33916618  1
  H+  H138  1  0.47999413  0.34690205  0.00408649  1
  H+  H139  1  0.37497704  0.55856394  0.82812211  1
  H+  H140  1  0.37107139  0.90355193  0.78220123  1
  H+  H141  1  0.16102888  0.00462207  0.20886338  1
  H+  H142  1  0.27982801  0.64558566  0.00639305  1
  H+  H143  1  0.98197279  0.36171558  0.65289866  1
  H+  H144  1  0.86397197  0.12729589  0.33601838  1
  H+  H145  1  0.58180309  0.66538546  0.43036172  1
  H+  H146  1  0.66000686  0.82584040  0.00488704  1
  H+  H147  1  0.78345781  0.65074980  1.00281254  1
  H+  H148  1  0.60995016  0.98922471  0.82408264  1
  H+  H149  1  -0.06937344  0.28972673  0.83305918  1
  H+  H150  1  0.04483746  0.43465043  0.84088623  1
  H+  H151  1  0.36328007  0.73789594  0.65616558  1
  H+  H152  1  0.36148953  0.97793859  0.67665736  1
  H+  H153  1  0.23636781  0.61897875  0.32745600  1
  H+  H154  1  0.40480357  0.43799932  -0.07832893  1
  H+  H155  1  0.13219836  0.37357060  0.66641697  1
  H+  H156  1  0.81113836  0.90505958  0.78354807  1
  H+  H157  1  0.08464802  0.66856060  0.42368913  1
  H+  H158  1  0.76111209  0.35183613  0.83866690  1
  H+  H159  1  0.37343842  0.13867147  0.17169394  1
  H+  H160  1  0.91814194  0.33115106  0.55903504  1
  H+  H161  1  0.13300452  0.35821092  0.48922702  1
  H+  H162  1  0.72733512  0.35790688  0.49998132  1
  H+  H163  1  0.63587796  0.86895638  0.17131168  1
  H+  H164  1  0.86350695  0.75496880  0.17143785  1
  H+  H165  1  0.48651246  0.11855180  0.19876335  1
  H+  H166  1  0.36568222  0.00355697  1.00070810  1
  H+  H167  1  0.10665458  0.21418856  1.00316219  1
  H+  H168  1  -0.10319838  0.36752792  0.00434690  1
  H+  H169  1  0.05726822  0.97906599  0.44676753  1
  H+  H170  1  0.37694710  0.76772893  0.81400803  1
  H+  H171  1  0.12305949  0.63314937  1.00248921  1
  H+  H172  1  0.86627848  0.39931031  0.16668916  1
  H+  H173  1  0.33996166  0.68369911  0.06590090  1
  H+  H174  1  0.75751798  0.62938715  0.33107296  1
  H+  H175  1  0.61293699  0.64400388  0.33699358  1
  H+  H176  1  0.60923155  0.72902323  0.15982207  1
  H+  H177  1  0.10874386  0.11950656  0.34914985  1
  H+  H178  1  0.64581545  0.85401006  0.90466975  1
  H+  H179  1  0.22919630  0.37625541  0.65780291  1
  H+  H180  1  0.62072666  0.16248789  0.24789007  1
  H+  H181  1  0.35359952  0.48935683  0.33690830  1
  H+  H182  1  0.86360227  0.38373752  0.48525334  1
  H+  H183  1  0.73140354  0.46310055  0.63478973  1
  H+  H184  1  0.17121781  0.87208181  1.00524463  1
  H+  H185  1  0.96089680  0.60489234  0.45373686  1
  H+  H186  1  0.02564173  0.39016146  1.01123101  1
  H+  H187  1  0.52338188  0.13651997  0.00958839  1
  H+  H188  1  0.40856194  0.03410420  0.17228747  1
  H+  H189  1  0.88568417  0.76805498  0.32060740  1
  H+  H190  1  0.88645188  1.01681231  0.32653609  1
  H+  H191  1  0.02266905  0.37823272  0.49037210  1
  H+  H192  1  0.41021666  0.85809631  0.59365908  1
  H+  H193  1  0.86846433  0.47904199  0.00770012  1
  H+  H194  1  0.63546022  0.03540533  0.99685973  1
  H+  H195  1  0.36108574  0.20793455  0.01550734  1
  H+  H196  1  0.50612965  0.11443829  0.67496243  1
  H+  H197  1  0.39364827  0.62726100  0.32283340  1
  H+  H198  1  0.87200143  0.14223257  0.65945213  1
  H+  H199  1  0.83300761  0.31416351  0.83489307  1
  H+  H200  1  0.61480215  0.14297787  0.00509603  1
  H+  H201  1  0.40385749  0.12154483  0.50992176  1
  H+  H202  1  0.87870910  0.85542399  0.49586558  1
  H+  H203  1  0.21636437  0.34053211  0.99580252  1
  H+  H204  1  0.43531459  0.16401369  0.88746179  1
  H+  H205  1  0.35188876  0.52462763  0.02070399  1
  H+  H206  1  0.60850995  0.41391840  0.67428978  1
  H+  H207  1  0.86178623  0.87947816  0.33704568  1
  H+  H208  1  0.65127857  0.36739542  0.84433607  1
  H+  H209  1  0.28511706  0.14342861  0.50052341  1
  H+  H210  1  0.13646003  0.27778529  0.66724278  1
  H+  H211  1  0.73092202  0.60423087  0.83581485  1
  H+  H212  1  0.58533514  0.85003988  0.48871073  1
  H+  H213  1  0.76861604  0.88713833  0.15771585  1
  H+  H214  1  0.34703234  0.92564330  0.09726593  1
  H+  H215  1  0.03546167  0.15241704  0.66681629  1
  H+  H216  1  0.35920121  0.49857650  0.65131199  1
  H+  H217  1  0.91897469  0.55091785  0.23282694  1
  H+  H218  1  0.36126049  0.41350101  0.80673651  1
  H+  H219  1  0.61699568  0.46969699  0.83243372  1
  H+  H220  1  0.97599757  0.36834545  0.17546142  1
  H+  H221  1  0.64703509  0.87515406  0.32407305  1
  H+  H222  1  0.86383921  0.13626902  1.00925057  1
  H+  H223  1  0.41974330  0.56485306  0.88940843  1
  H+  H224  1  0.87404292  0.59605746  0.36787036  1
  H+  H225  1  0.83386725  0.65870466  0.73682918  1
  H+  H226  1  0.13499652  0.85986211  0.51287894  1
  H+  H227  1  0.22276954  0.36455718  0.18732394  1
  H+  H228  1  0.63831898  0.01599901  0.65240169  1
  H+  H229  1  0.36271178  0.38916765  0.48799350  1
  H+  H230  1  0.24079381  0.13917937  0.65666520  1
  H+  H231  1  0.71692744  0.60917517  0.50213376  1
  H+  H232  1  0.61395332  0.47390173  0.49631256  1
  H+  H233  1  0.47461251  0.12092717  0.84883280  1
  H+  H234  1  0.38313079  0.37736306  0.65147272  1
  H+  H235  1  0.22641152  0.10491073  0.33794353  1
  H+  H236  1  0.22708325  0.38545406  0.33047723  1
  H+  H237  1  0.47517694  0.61247218  0.49770724  1
  H+  H238  1  0.63188042  0.74882955  0.66888155  1
  H+  H239  1  1.01844385  0.12018691  0.34680007  1
  H+  H240  1  0.13252712  0.72534065  0.01057216  1
  H+  H241  1  0.00744779  0.59725014  0.19896151  1
  H+  H242  1  0.08357588  0.15985744  0.42977128  1
  H+  H243  1  0.48773480  0.89485750  0.83033556  1
  H+  H244  1  0.37109789  0.24112390  0.66789386  1
  H+  H245  1  0.13416142  0.65444332  0.83188324  1
  H+  H246  1  1.04417980  0.92411764  0.69697338  1
  H+  H247  1  0.42317051  0.68950148  0.98920063  1
  H+  H248  1  0.47271714  0.38032575  0.66064217  1
  H+  H249  1  0.22451049  0.10301479  -0.00593767  1
  H+  H250  1  0.63420071  0.77977147  0.32636752  1
  H+  H251  1  0.12498701  0.48441909  0.66525073  1
  H+  H252  1  0.35769723  0.47639875  0.48915868  1
  H+  H253  1  0.01449146  0.39127560  0.33809483  1
  H+  H254  1  0.87542030  -0.02937108  1.00675002  1
  H+  H255  1  0.26393073  0.28203051  0.06028740  1
  H+  H256  1  0.77389030  0.88200099  0.33671103  1
  H+  H257  1  0.03891125  0.87655624  -0.00231630  1
  H+  H258  1  0.90639278  0.86610427  1.00145136  1
  H+  H259  1  0.36556736  0.96676557  0.35289325  1
  H+  H260  1  0.27313140  0.89002275  0.68297182  1
  H+  H261  1  0.10966103  0.12623275  0.00039315  1
  H+  H262  1  0.89197936  0.27023661  0.65282669  1
  H+  H263  1  0.01088921  0.89045092  0.47974192  1
  H+  H264  1  0.90383629  0.81968873  0.22836926  1
  H+  H265  1  0.89021263  0.60266278  0.68521565  1
  H+  H266  1  0.89404093  0.61402714  -0.00594686  1
  H+  H267  1  0.48795567  0.11345940  0.50484665  1
  H+  H268  1  0.73125898  0.25212534  0.61777406  1
  H+  H269  1  -0.02061017  0.11554385  0.49978288  1
  H+  H270  1  0.14729892  0.61900869  0.32501115  1
  H+  H271  1  0.85331240  0.88059694  0.16202621  1
  H+  H272  1  0.93335845  0.83642991  0.64884162  1
  H+  H273  1  0.64157728  0.36074311  0.99779624  1
  H+  H274  1  0.21476503  0.60506966  0.49697094  1
  H+  H275  1  0.72360318  0.71331467  0.94766771  1
  H+  H276  1  0.89515371  0.26740702  0.32345074  1
  H+  H277  1  0.14369060  0.51997922  0.99405240  1
  H+  H278  1  0.63450582  0.76753724  0.50037374  1
  H+  H279  1  0.11947255  0.76591365  0.51251701  1
  H+  H280  1  0.86594300  0.33505386  0.32733531  1
  H+  H281  1  0.25905718  0.11864190  0.81796843  1
  H+  H282  1  0.36540502  0.20974275  0.34418383  1
  H+  H283  1  0.78058664  0.38942861  1.01082129  1
  H+  H284  1  0.51498983  0.56665153  0.02767699  1
  H+  H285  1  0.63330013  0.70072189  0.73172170  1
  H+  H286  1  -0.01241970  0.62802181  0.84095755  1
  H+  H287  1  0.28100877  0.87458058  0.34847756  1
  H+  H288  1  0.17513563  0.09775921  0.57006669  1
  H+  H289  1  0.53252902  0.37413848  0.83261648  1
  H+  H290  1  0.56858763  0.93656358  0.07132447  1
  H+  H291  1  0.07970486  0.42254278  0.72589526  1
  H+  H292  1  0.67045706  0.09126742  0.93657297  1
  H+  H293  1  0.62117006  0.81358798  0.59047460  1
  H+  H294  1  0.12711837  0.15770436  0.67194752  1
  H+  H295  1  0.34723342  0.87129793  0.44160047  1
  H+  H296  1  0.78906900  0.34772643  0.39444944  1
  H+  H297  1  0.16684752  0.57340252  0.59491789  1
  H+  H298  1  0.82954003  0.91276415  0.43158141  1
  H+  H299  1  0.58213354  0.41078294  0.07758271  1
  H+  H300  1  0.84062581  0.16587654  0.42974315  1
  H+  H301  1  0.91935466  0.07908278  0.26804826  1
  H+  H302  1  0.66322081  0.83541324  0.22915739  1
  H+  H303  1  0.11363447  0.38734680  0.00981383  1
  H+  H304  1  0.93121644  0.09237811  0.58814176  1
  H+  H305  1  0.08504282  0.93392264  0.15423338  1
  H+  H306  1  0.06434443  0.87959232  0.79457367  1
  H+  H307  1  0.91563207  0.33617195  0.23400559  1
  H+  H308  1  0.57685501  0.66270484  0.10322196  1
  H+  H309  1  0.14405685  0.86307541  0.32474594  1
  H+  H310  1  0.67276820  0.59067104  0.89352577  1
  H+  H311  1  0.09199346  0.68453154  0.75088114  1
  H+  H312  1  0.35461998  0.68901233  0.39162096  1
  H+  H313  1  0.13100315  0.97744585  0.73776882  1
  H+  H314  1  0.40827179  0.06133098  0.28105707  1
  H+  H315  1  0.07306978  0.15330449  0.76644020  1
  H+  H316  1  0.19313603  0.83915408  0.91127694  1
  H+  H317  1  0.55339353  0.87452552  0.42919443  1
  H+  H318  1  0.84181945  0.43274327  0.10814471  1
  H+  H319  1  0.33544421  0.15643430  0.40592310  1
  H+  H320  1  0.61873143  1.00702199  0.36715331  1
  H+  H321  1  0.07860786  0.41278113  0.42906978  1
  H+  H322  1  0.57892133  0.42544935  0.73918986  1
  H+  H323  1  0.68328788  0.37588768  0.25713415  1
  H+  H324  1  0.33727045  0.17285601  0.72382803  1
  H+  H325  1  0.34769753  0.11836913  0.81837402  1
  H+  H326  1  0.64890026  0.01337217  0.25561004  1
  H+  H327  1  0.16242463  0.34604560  0.26427318  1
  H+  H328  1  0.38882899  0.32562272  0.85405177  1
  H+  H329  1  0.42043478  0.83967022  0.23087849  1
  H+  H330  1  0.41806541  0.58922878  0.26529751  1
  H+  H331  1  0.41950312  0.31593524  0.27525660  1
  H+  H332  1  0.23110132  0.61003510  0.65190987  1
  H+  H333  1  0.43965960  0.75351621  0.46814978  1
  H+  H334  1  0.40914344  0.58564661  0.58728123  1
  H+  H335  1  0.42352217  0.30616168  0.94369437  1
  H+  H336  1  0.08238129  0.91174117  0.38437150  1
  H+  H337  1  0.82731068  0.65681605  0.06707652  1
  H+  H338  1  0.15701208  0.81912904  0.26794518  1
  H+  H339  1  0.08832482  0.64847245  0.09626853  1
  H+  H340  1  0.48098618  0.70611579  0.92930480  1
  H+  H341  1  0.18071120  0.58201091  0.93457856  1
  H+  H342  1  0.18027694  0.58369861  0.23422780  1
  H+  H343  1  0.07509175  0.13419078  0.10033588  1
  H+  H344  1  0.84274141  0.16796058  0.10650025  1
  H+  H345  1  0.91453431  0.81671852  0.55058220  1
  H+  H346  1  0.86877028  0.64028652  0.83017567  1
  H+  H347  1  0.32372682  0.42491342  0.39412533  1
  H+  H348  1  0.33168160  0.44206942  0.71421433  1
  H+  H349  1  0.91787518  0.80875998  0.60133619  1
  H+  H350  1  0.90158807  0.82440174  0.91050314  1
  H+  H351  1  0.15128768  0.05123388  0.66164083  1
  H+  H352  1  0.16065276  0.32523622  0.93492852  1
  H+  H353  1  0.55214106  0.07540969  0.71487556  1
  H+  H354  1  0.34301856  0.68708890  0.71817331  1
  H+  H355  1  0.61014905  0.16086111  0.42255046  1
  H+  H356  1  0.84824722  0.91594541  0.06759071  1
  H+  H357  1  0.92407903  0.64965070  0.56904828  1
  H+  H358  1  0.34516917  0.33412516  0.01992097  1
  H+  H359  1  0.40623708  0.85104688  0.93038832  1
  H+  H360  1  0.67164441  0.31710067  0.55947187  1
  H+  H361  1  0.31408642  0.32650890  0.77088199  1
  H+  H362  1  0.89297538  0.11603792  0.17735459  1
  H+  H363  1  0.42026023  0.34464380  0.55963360  1
  H+  H364  1  0.66428651  0.58683875  0.56473874  1
  H+  H365  1  0.90246642  0.60179686  0.56569812  1
  H+  H366  1  0.57209239  0.92061114  0.72937940  1
  H+  H367  1  0.67446029  0.07495809  0.55107514  1
  H+  H368  1  0.83759534  0.61578819  0.16281465  1
  H+  H369  1  0.52090939  0.38296007  0.16501107  1
  H+  H370  1  0.40371655  0.06529781  0.94371023  1
  H+  H371  1  0.67368082  0.33499090  0.90832244  1
  H+  H372  1  0.90906778  0.07990983  0.93577993  1
  H+  H373  1  0.59085471  0.42324167  0.39799896  1
  H+  H374  1  0.57522962  0.16972209  0.77570437  1
  H+  H375  1  0.49254694  0.88995378  0.31642623  1
  H+  H376  1  0.92448829  0.59014825  0.89666280  1
  H+  H377  1  0.12015531  0.72860131  0.33241698  1
  H+  H378  1  0.08447021  0.89966499  0.06030961  1
  H+  H379  1  0.08655038  0.41749744  0.10456339  1
  H+  H380  1  0.82560088  0.37102160  0.77446135  1
  H+  H381  1  0.65804436  0.58122732  0.26863203  1
  H+  H382  1  0.32403976  0.40011497  0.11516471  1
  H+  H383  1  0.16345880  0.07240960  0.89766870  1
  O2-  O384  1  0.07188173  0.11302782  0.14209969  1
  O2-  O385  1  0.08915784  0.17260758  0.47819431  1
  O2-  O386  1  0.06843410  0.14445253  0.81125316  1
  O2-  O387  1  0.08483347  0.41584897  0.14995998  1
  O2-  O388  1  0.08369517  0.40872745  0.47455150  1
  O2-  O389  1  0.02048453  0.40836117  0.80163863  1
  O2-  O390  1  0.09040586  0.64493053  0.14155290  1
  O2-  O391  1  0.07235189  0.66351399  0.46808803  1
  O2-  O392  1  0.10209104  0.68358947  0.81995214  1
  O2-  O393  1  0.05048122  0.87729373  0.13568826  1
  O2-  O394  1  0.06914977  0.93612372  0.46400563  1
  O2-  O395  1  0.06632164  0.89543245  0.83710429  1
  O2-  O396  1  0.34535692  0.17089810  0.15562707  1
  O2-  O397  1  0.34463918  0.17068845  0.48461416  1
  O2-  O398  1  0.31901217  0.14905550  0.80130716  1
  O2-  O399  1  0.32893224  0.41012781  0.15940364  1
  O2-  O400  1  0.32731830  0.41545014  0.47475585  1
  O2-  O401  1  0.31412043  0.35419866  0.80912222  1
  O2-  O402  1  0.34222559  0.67193645  0.14244914  1
  O2-  O403  1  0.37731369  0.70918166  0.46731620  1
  O2-  O404  1  0.35346215  0.70565182  0.80117159  1
  O2-  O405  1  0.39484633  0.95317349  0.12595216  1
  O2-  O406  1  0.34374489  0.83859678  0.47969940  1
  O2-  O407  1  0.38844213  0.91918357  0.82502475  1
  O2-  O408  1  0.60521707  0.16347073  0.20506620  1
  O2-  O409  1  0.59363445  0.15895221  0.46700874  1
  O2-  O410  1  0.57721902  0.17001935  0.82066609  1
  O2-  O411  1  0.58135990  0.41597342  0.14771647  1
  O2-  O412  1  0.58381703  0.41407947  0.47978672  1
  O2-  O413  1  0.59057672  0.40966202  0.81497017  1
  O2-  O414  1  0.57957731  0.66661476  0.14815015  1
  O2-  O415  1  0.57849209  0.66312777  0.47584149  1
  O2-  O416  1  0.58431519  0.64280818  0.79211394  1
  O2-  O417  1  0.58993786  0.93750575  0.15251039  1
  O2-  O418  1  0.53495108  0.85220415  0.47004770  1
  O2-  O419  1  0.57502560  0.92849375  0.80914216  1
  O2-  O420  1  0.84704016  0.16785826  0.15147304  1
  O2-  O421  1  0.84156294  0.16686484  0.47532402  1
  O2-  O422  1  0.83283535  0.17734208  0.81466386  1
  O2-  O423  1  0.83861598  0.43288417  0.15329163  1
  O2-  O424  1  0.82370903  0.40128175  0.46793049  1
  O2-  O425  1  0.81993639  0.36138571  0.82167341  1
  O2-  O426  1  0.81303659  0.64886660  0.14589400  1
  O2-  O427  1  0.81421522  0.65667377  0.46848742  1
  O2-  O428  1  0.83071669  0.66338460  0.81567423  1
  O2-  O429  1  0.83032506  0.91686282  0.14616781  1
  O2-  O430  1  0.82872884  0.91225320  0.47727583  1
  O2-  O431  1  0.81494442  0.91548583  0.82817758  1
  O2-  O432  1  0.20539056  0.16673347  0.21887854  1
  O2-  O433  1  0.17553207  0.09482071  0.52444918  1
  O2-  O434  1  0.15824024  0.06723962  0.85191850  1
  O2-  O435  1  0.16339259  0.33971027  0.20346496  1
  O2-  O436  1  0.16558741  0.32733663  0.50191077  1
  O2-  O437  1  0.15289465  0.31267350  0.85129397  1
  O2-  O438  1  0.18255352  0.58105715  0.18889333  1
  O2-  O439  1  0.15688819  0.57449348  0.51385440  1
  O2-  O440  1  0.19938771  0.60651379  0.85189771  1
  O2-  O441  1  0.08605578  0.77166884  0.20368689  1
  O2-  O442  1  0.14564190  0.82009103  0.53612402  1
  O2-  O443  1  0.17787498  0.83564255  0.86778773  1
  O2-  O444  1  0.42293668  0.08514426  0.19862162  1
  O2-  O445  1  0.43364157  0.09270765  0.52764134  1
  O2-  O446  1  0.41926810  0.10914228  0.86825304  1
  O2-  O447  1  0.42459883  0.33402994  0.19279487  1
  O2-  O448  1  0.41844492  0.34223709  0.51458884  1
  O2-  O449  1  0.42248249  0.29719265  0.86147876  1
  O2-  O450  1  0.41294900  0.58078970  0.18705605  1
  O2-  O451  1  0.41319244  0.58338299  0.51123622  1
  O2-  O452  1  0.42397490  0.59780337  0.85288293  1
  O2-  O453  1  0.42028837  0.83342069  0.18570474  1
  O2-  O454  1  0.41987137  0.89887208  0.51526802  1
  O2-  O455  1  0.42173880  0.86252095  0.84440028  1
  O2-  O456  1  0.62004407  0.01182971  0.18276121  1
  O2-  O457  1  0.68017464  0.08064154  0.50656187  1
  O2-  O458  1  0.66590768  0.08855834  0.85450188  1
  O2-  O459  1  0.67111004  0.34136302  0.17958443  1
  O2-  O460  1  0.66682043  0.32714274  0.51618028  1
  O2-  O461  1  0.67649560  0.33321644  0.86154357  1
  O2-  O462  1  0.65682153  0.57914889  0.18945872  1
  O2-  O463  1  0.65736688  0.57958355  0.51955930  1
  O2-  O464  1  0.66918824  0.57172798  0.85086322  1
  O2-  O465  1  0.66063061  0.83269996  0.18385072  1
  O2-  O466  1  0.65762378  0.82810282  0.51460038  1
  O2-  O467  1  0.64231393  0.84740263  0.85933559  1
  O2-  O468  1  0.91915050  0.08140680  0.19384520  1
  O2-  O469  1  0.91979661  0.08415924  0.51625232  1
  O2-  O470  1  0.90134410  0.08342535  0.85428441  1
  O2-  O471  1  0.91499274  0.33998196  0.18866624  1
  O2-  O472  1  0.92079984  0.33180546  0.51388797  1
  O2-  O473  1  0.87316516  0.25604954  0.85163142  1
  O2-  O474  1  0.97728191  0.59989334  0.23587749  1
  O2-  O475  1  0.89950041  0.57232402  0.44060754  1
  O2-  O476  1  0.92598755  0.59604152  0.85168121  1
  O2-  O477  1  0.89728431  0.81671704  0.18294596  1
  O2-  O478  1  0.91145868  0.82420906  0.50280253  1
  O2-  O479  1  0.89313471  0.82489032  0.86511487  1
  O2-  O480  1  0.16713699  0.07918543  0.31982323  1
  O2-  O481  1  0.17812686  0.11094476  0.64479950  1
  O2-  O482  1  0.16613561  0.07339189  0.97474682  1
  O2-  O483  1  0.16293892  0.34973191  0.31429203  1
  O2-  O484  1  0.16374026  0.34022594  0.65101834  1
  O2-  O485  1  0.15841574  0.32390647  0.97973407  1
  O2-  O486  1  0.17570163  0.58533517  0.31298354  1
  O2-  O487  1  0.17047232  0.56966731  0.63975053  1
  O2-  O488  1  0.17655831  0.58162564  0.97931375  1
  O2-  O489  1  0.17339195  0.83091994  0.31149562  1
  O2-  O490  1  0.16099233  0.83588282  0.65790304  1
  O2-  O491  1  0.20369608  0.84201638  0.99246322  1
  O2-  O492  1  0.40607591  0.05755951  0.32596328  1
  O2-  O493  1  0.41974535  0.08353143  0.64368708  1
  O2-  O494  1  0.40262505  0.06440164  0.98870004  1
  O2-  O495  1  0.41941796  0.30830962  0.31969619  1
  O2-  O496  1  0.41433900  0.34603787  0.64228960  1
  O2-  O497  1  0.41996093  0.31155625  0.98825450  1
  O2-  O498  1  0.42105064  0.59276681  0.31071678  1
  O2-  O499  1  0.40333636  0.58050528  0.63265304  1
  O2-  O500  1  0.47817969  0.69556165  0.97279497  1
  O2-  O501  1  0.43132322  0.85005468  0.30798659  1
  O2-  O502  1  0.40981905  0.84392491  0.63733716  1
  O2-  O503  1  0.39964436  0.84826678  0.97511045  1
  O2-  O504  1  0.67969024  0.01833991  0.29509897  1
  O2-  O505  1  0.67208916  0.07580986  0.63503036  1
  O2-  O506  1  0.67161824  0.09524509  0.98157237  1
  O2-  O507  1  0.69876698  0.40182205  0.29815120  1
  O2-  O508  1  0.70126327  0.27814041  0.63760439  1
  O2-  O509  1  0.67135330  0.33253706  0.97931980  1
  O2-  O510  1  0.66213137  0.58668973  0.31379877  1
  O2-  O511  1  0.67738469  0.59904830  0.64244522  1
  O2-  O512  1  0.69727264  0.65412081  0.96199440  1
  O2-  O513  1  0.66968738  0.83905188  0.30900403  1
  O2-  O514  1  0.59191099  0.79299095  0.63015015  1
  O2-  O515  1  0.66199556  0.87036080  0.97892060  1
  O2-  O516  1  0.91813985  0.07822384  0.31419647  1
  O2-  O517  1  0.93766083  0.09662410  0.63452946  1
  O2-  O518  1  0.91073508  0.07714233  0.98076678  1
  O2-  O519  1  0.91599479  0.32854930  0.31217368  1
  O2-  O520  1  0.92054128  0.33387916  0.64127153  1
  O2-  O521  1  0.92987644  0.34050074  0.98949111  1
  O2-  O522  1  0.85873455  0.61197353  0.32787951  1
  O2-  O523  1  0.93079828  0.57801345  0.68000595  1
  O2-  O524  1  0.92293994  0.58347392  0.97751503  1
  O2-  O525  1  0.91476759  0.82802922  0.30477502  1
  O2-  O526  1  0.94789077  0.86645777  0.69194677  1
  O2-  O527  1  0.93251250  0.83212094  0.98246916  1
  O2-  O528  1  0.07781414  0.15362470  0.01718843  1
  O2-  O529  1  0.07565277  0.14544622  0.36725253  1
  O2-  O530  1  0.09274269  0.18422993  0.68786631  1
  O2-  O531  1  0.08910200  0.42261511  0.02449591  1
  O2-  O532  1  0.07537090  0.42122450  0.35453594  1
  O2-  O533  1  0.09015337  0.42029256  0.68220309  1
  O2-  O534  1  0.09364263  0.66367858  0.01898937  1
  O2-  O535  1  0.08878977  0.66553615  0.34303851  1
  O2-  O536  1  0.08063391  0.67955075  0.70474658  1
  O2-  O537  1  0.09821645  0.90686239  0.01604632  1
  O2-  O538  1  0.08413825  0.91133385  0.33943794  1
  O2-  O539  1  0.11074344  0.95521956  0.69708037  1
  O2-  O540  1  0.32311581  0.14809050  0.02995798  1
  O2-  O541  1  0.32973514  0.14946281  0.36100387  1
  O2-  O542  1  0.34082268  0.17875293  0.67874367  1
  O2-  O543  1  0.29788650  0.33802092  0.04095078  1
  O2-  O544  1  0.31454538  0.42897306  0.35015630  1
  O2-  O545  1  0.32655403  0.43182476  0.67053256  1
  O2-  O546  1  0.33910289  0.68815300  0.02031305  1
  O2-  O547  1  0.34566946  0.68269503  0.34660137  1
  O2-  O548  1  0.33739127  0.67843194  0.67364648  1
  O2-  O549  1  0.28985297  0.89318056  0.01921752  1
  O2-  O550  1  0.33912703  0.90342574  0.36659145  1
  O2-  O551  1  0.33481688  0.91925322  0.69459445  1
  O2-  O552  1  0.58494465  0.17499958  0.01712995  1
  O2-  O553  1  0.66051620  0.16916742  0.35514154  1
  O2-  O554  1  0.56347264  0.12977304  0.69685207  1
  O2-  O555  1  0.58232402  0.40805747  0.03069722  1
  O2-  O556  1  0.58831325  0.42872370  0.35329484  1
  O2-  O557  1  0.57330037  0.43378182  0.69461953  1
  O2-  O558  1  0.55723282  0.62762714  0.02480881  1
  O2-  O559  1  0.58440517  0.67599493  0.35225570  1
  O2-  O560  1  0.66601701  0.72752149  0.69337443  1
  O2-  O561  1  0.56755344  0.93427303  0.02624732  1
  O2-  O562  1  0.61037289  0.96228901  0.33778168  1
  O2-  O563  1  0.57247185  0.92079367  0.68399324  1
  O2-  O564  1  0.83916183  0.17118014  0.02522087  1
  O2-  O565  1  0.83904992  0.16264264  0.35187496  1
  O2-  O566  1  0.84130081  0.17262295  0.67126461  1
  O2-  O567  1  0.83991041  0.42122696  0.02719336  1
  O2-  O568  1  0.77679986  0.32463810  0.35254061  1
  O2-  O569  1  0.83993909  0.39212433  0.70872064  1
  O2-  O570  1  0.83836593  0.66443399  0.02251832  1
  O2-  O571  1  0.82033285  0.66363026  0.34728476  1
  O2-  O572  1  0.84025906  0.65043460  0.69282965  1
  O2-  O573  1  0.85814822  0.91287049  0.02347368  1
  O2-  O574  1  0.83296742  0.90978855  0.35433167  1
  O2-  O575  1  0.80120620  0.87645508  0.70807049  1
