# generated using pymatgen
data_H2O
_symmetry_space_group_name_H-M   'P 1'
_cell_length_a   18.00209854
_cell_length_b   17.99486738
_cell_length_c   22.01775870
_cell_angle_alpha   89.98128985
_cell_angle_beta   89.99567287
_cell_angle_gamma   120.01931519
_symmetry_Int_Tables_number   1
_chemical_formula_structural   H2O
_chemical_formula_sum   'H384 O192'
_cell_volume   6175.76730192
_cell_formula_units_Z   192
loop_
 _symmetry_equiv_pos_site_id
 _symmetry_equiv_pos_as_xyz
  1  'x, y, z'
loop_
 _atom_type_symbol
 _atom_type_oxidation_number
  H+  1.0
  O2-  -2.0
loop_
 _atom_site_type_symbol
 _atom_site_label
 _atom_site_symmetry_multiplicity
 _atom_site_fract_x
 _atom_site_fract_y
 _atom_site_fract_z
 _atom_site_occupancy
  H+  H0  1  0.89017132  0.61518346  0.16752700  1
  H+  H1  1  0.53874477  0.12086193  0.82607469  1
  H+  H2  1  0.13717139  0.58857479  0.66463656  1
  H+  H3  1  -0.02807453  0.11198593  0.00880719  1
  H+  H4  1  0.88186616  0.02279916  0.48986116  1
  H+  H5  1  0.71234406  0.35818934  0.98633510  1
  H+  H6  1  0.85965666  0.47979463  0.66634170  1
  H+  H7  1  0.51937470  0.88106391  0.33759770  1
  H+  H8  1  0.89289721  0.44942281  0.83957125  1
  H+  H9  1  0.36886588  0.28729707  0.03211762  1
  H+  H10  1  0.31801473  0.08594162  1.02074931  1
  H+  H11  1  0.15507771  0.59558693  0.51203803  1
  H+  H12  1  0.51156861  0.88546145  1.01026015  1
  H+  H13  1  0.13288954  0.85462619  0.83665489  1
  H+  H14  1  0.10143610  0.37811195  0.81828418  1
  H+  H15  1  1.02419523  0.14385221  0.33374122  1
  H+  H16  1  0.37927159  0.77126183  0.16997470  1
  H+  H17  1  0.89280624  0.37246571  0.31874003  1
  H+  H18  1  0.07964879  0.01128293  0.53562263  1
  H+  H19  1  0.77617091  0.63370201  0.15971966  1
  H+  H20  1  0.40113782  0.62175948  0.65699191  1
  H+  H21  1  0.41577995  0.09369099  0.82807008  1
  H+  H22  1  0.14266909  0.76025040  0.33489127  1
  H+  H23  1  0.86265677  0.47994971  0.15595877  1
  H+  H24  1  0.10832453  0.47630446  0.14304770  1
  H+  H25  1  0.37688397  0.35192410  0.32924584  1
  H+  H26  1  0.11055090  0.01945867  0.16917592  1
  H+  H27  1  0.52509210  0.13676799  0.15229850  1
  H+  H28  1  0.62425562  -0.01695976  0.51640472  1
  H+  H29  1  0.12923585  0.61507242  0.14898543  1
  H+  H30  1  0.09922144  0.14054021  0.16565926  1
  H+  H31  1  0.63540349  0.39869878  0.33216791  1
  H+  H32  1  0.79057797  0.91026916  0.80413977  1
  H+  H33  1  0.24283943  0.37390522  0.66095826  1
  H+  H34  1  0.62658525  0.48738436  -0.07494355  1
  H+  H35  1  0.38647896  0.52991700  0.83070662  1
  H+  H36  1  0.40096081  0.37037291  0.66420340  1
  H+  H37  1  0.96492794  0.09752616  0.17981847  1
  H+  H38  1  0.74038922  0.12738131  0.66473306  1
  H+  H39  1  0.38784061  0.23895739  0.63981156  1
  H+  H40  1  0.78070083  0.89623569  1.00333916  1
  H+  H41  1  0.16892823  0.34204899  0.26982481  1
  H+  H42  1  0.63354029  0.28137789  0.31937704  1
  H+  H43  1  0.88270698  0.12000791  0.32874120  1
  H+  H44  1  0.37423222  0.08188405  0.66078554  1
  H+  H45  1  0.19898784  0.62710905  0.29324717  1
  H+  H46  1  0.49386502  0.62199082  0.50521059  1
  H+  H47  1  0.11160226  0.47959611  0.33201609  1
  H+  H48  1  0.86296887  0.72335978  0.15700739  1
  H+  H49  1  0.11219478  0.89962740  0.67437828  1
  H+  H50  1  0.13113240  0.01519757  0.32566842  1
  H+  H51  1  0.21499317  0.07002545  0.98858436  1
  H+  H52  1  0.87376592  0.02475799  0.64838748  1
  H+  H53  1  0.11707141  0.46488576  0.49386656  1
  H+  H54  1  0.96601582  0.85955057  0.16589225  1
  H+  H55  1  0.78470199  0.39619404  0.32694771  1
  H+  H56  1  0.85136656  0.47399701  0.49682080  1
  H+  H57  1  0.36360786  -0.01412974  0.67261184  1
  H+  H58  1  0.23046221  0.11396185  0.85590191  1
  H+  H59  1  0.38485272  0.02048797  0.16570132  1
  H+  H60  1  0.13383459  0.28182376  0.17541661  1
  H+  H61  1  0.65124593  0.12222456  0.51993730  1
  H+  H62  1  0.52777888  0.89201069  0.65374906  1
  H+  H63  1  0.86279435  0.74041394  0.67741429  1
  H+  H64  1  0.19524101  0.10386245  0.18899104  1
  H+  H65  1  0.35704157  0.13068887  0.02183633  1
  H+  H66  1  0.14420273  0.67380161  0.38258079  1
  H+  H67  1  0.40399710  0.35678900  0.42612507  1
  H+  H68  1  0.97140490  0.85764850  0.31394129  1
  H+  H69  1  0.62969579  0.10623698  0.16704052  1
  H+  H70  1  0.63358213  0.59832317  0.84765747  1
  H+  H71  1  0.88501692  0.03133591  0.33335259  1
  H+  H72  1  0.61929061  -0.01669878  0.65624739  1
  H+  H73  1  0.64125758  0.27446849  0.16866940  1
  H+  H74  1  0.53651083  0.13085107  0.99318592  1
  H+  H75  1  0.28762783  0.38668659  0.52125602  1
  H+  H76  1  0.97294335  0.87286284  0.66185437  1
  H+  H77  1  0.22672889  0.86102920  0.83650765  1
  H+  H78  1  0.54783478  0.15182693  0.67811504  1
  H+  H79  1  0.11146751  0.38946110  0.15253482  1
  H+  H80  1  0.61455420  0.22797650  -0.00059671  1
  H+  H81  1  0.66105069  0.65694343  0.02500927  1
  H+  H82  1  0.37231184  0.73072634  0.49494803  1
  H+  H83  1  0.27059026  0.14875699  0.48686553  1
  H+  H84  1  0.52583531  0.63941515  0.82340322  1
  H+  H85  1  0.61382416  0.26108687  0.83784012  1
  H+  H86  1  0.07898462  0.65575077  0.49276607  1
  H+  H87  1  0.37943810  0.96885159  0.82704720  1
  H+  H88  1  0.92728069  0.59209509  0.22616297  1
  H+  H89  1  0.85509424  0.38692866  0.50027988  1
  H+  H90  1  -0.02069157  0.36651747  0.32286186  1
  H+  H91  1  0.13906640  0.27984294  0.32720415  1
  H+  H92  1  0.87515252  0.38599332  0.65851550  1
  H+  H93  1  0.22731576  0.86883542  -0.01284961  1
  H+  H94  1  0.86470109  0.61526881  0.66087424  1
  H+  H95  1  0.62754221  0.73230794  0.33939720  1
  H+  H96  1  0.63292591  0.02689308  0.32601666  1
  H+  H97  1  0.72174401  0.61235164  0.50974380  1
  H+  H98  1  0.60778512  0.43077009  0.39881757  1
  H+  H99  1  0.61969422  0.88929906  0.82149757  1
  H+  H100  1  0.43860770  0.59852251  0.59694325  1
  H+  H101  1  0.06564071  0.68606512  0.42839956  1
  H+  H102  1  0.47963828  0.86639355  0.51406097  1
  H+  H103  1  0.58519774  0.64070238  -0.01631284  1
  H+  H104  1  0.62097675  0.74085427  0.67514467  1
  H+  H105  1  0.61332347  0.72766081  0.15992022  1
  H+  H106  1  0.11023882  0.63938683  -0.00255230  1
  H+  H107  1  0.28936936  0.63486560  0.49733925  1
  H+  H108  1  0.07518224  0.89690731  0.37860991  1
  H+  H109  1  0.86506039  0.13492475  1.00420193  1
  H+  H110  1  0.11977306  0.39441925  0.33727059  1
  H+  H111  1  0.89760936  0.82357562  0.93287638  1
  H+  H112  1  0.76872889  0.13252395  1.00292388  1
  H+  H113  1  0.86890614  0.90748802  0.66991342  1
  H+  H114  1  0.62870127  0.41431388  -0.03279133  1
  H+  H115  1  0.53270673  0.13423056  0.51552131  1
  H+  H116  1  0.26908784  0.07832724  0.12158862  1
  H+  H117  1  0.36615146  0.40180337  0.81192760  1
  H+  H118  1  0.38846561  0.18405913  0.88002885  1
  H+  H119  1  0.34831762  0.63231415  1.00500404  1
  H+  H120  1  0.66925150  0.33936239  0.25995059  1
  H+  H121  1  0.12116808  0.76227153  0.15480092  1
  H+  H122  1  0.47952816  0.62348942  0.17587335  1
  H+  H123  1  0.11886535  0.78644136  0.70177411  1
  H+  H124  1  0.77830835  0.90099577  0.67310235  1
  H+  H125  1  0.11408550  -0.01484930  0.68394991  1
  H+  H126  1  0.21531191  0.60605985  0.99138001  1
  H+  H127  1  0.54041935  0.64121988  0.34220091  1
  H+  H128  1  0.88491617  0.77632519  0.50578500  1
  H+  H129  1  0.28001184  0.38911376  0.34383865  1
  H+  H130  1  0.96964570  0.35384861  0.98899994  1
  H+  H131  1  0.63455148  0.52219526  0.50371614  1
  H+  H132  1  0.61298773  0.39048558  0.49166066  1
  H+  H133  1  0.35926150  0.23481952  0.47712738  1
  H+  H134  1  0.64020432  0.52619983  0.19047652  1
  H+  H135  1  0.29318606  0.61989666  0.34957285  1
  H+  H136  1  0.87304196  0.48486264  0.32646772  1
  H+  H137  1  0.33286297  0.89349393  0.74859728  1
  H+  H138  1  0.62674146  0.11249812  0.32117384  1
  H+  H139  1  0.31299629  0.17621733  0.10799220  1
  H+  H140  1  0.62771206  0.48756819  0.81476400  1
  H+  H141  1  0.37333541  0.51803220  -0.01503274  1
  H+  H142  1  0.86632133  0.73210340  0.33840700  1
  H+  H143  1  0.14532854  0.77383015  0.68240199  1
  H+  H144  1  0.52462871  0.64483466  0.67042226  1
  H+  H145  1  0.63380378  0.86080037  0.17068197  1
  H+  H146  1  0.88983945  0.28941660  0.65804790  1
  H+  H147  1  -0.02877305  0.37183997  0.83317289  1
  H+  H148  1  0.86533624  0.23232179  -0.00696684  1
  H+  H149  1  0.39029710  0.86490806  0.50069304  1
  H+  H150  1  0.45382976  0.39723107  0.87381181  1
  H+  H151  1  0.87002246  0.30960252  0.82941594  1
  H+  H152  1  0.60695984  0.98095406  1.01279237  1
  H+  H153  1  0.63992722  0.86298394  0.32379255  1
  H+  H154  1  0.62156392  0.63927887  0.49715823  1
  H+  H155  1  0.63895968  0.49800635  0.33550393  1
  H+  H156  1  0.06789874  0.91344191  0.09106582  1
  H+  H157  1  0.51377961  0.88310370  0.15858487  1
  H+  H158  1  0.72550554  0.09434176  0.84870654  1
  H+  H159  1  0.05691177  0.13917915  0.68432424  1
  H+  H160  1  0.27980472  0.88564414  0.33845618  1
  H+  H161  1  0.86955142  0.15129258  0.66416337  1
  H+  H162  1  0.77775280  0.88607372  0.49349093  1
  H+  H163  1  0.52514521  0.39119412  0.47272237  1
  H+  H164  1  0.07317915  0.62590760  0.74117911  1
  H+  H165  1  0.77778648  0.89106472  0.33638800  1
  H+  H166  1  0.64909955  0.28913094  0.66470675  1
  H+  H167  1  0.35879313  0.63875650  0.16316520  1
  H+  H168  1  0.84822427  0.87367121  0.15433007  1
  H+  H169  1  0.40961365  0.61858210  0.33589488  1
  H+  H170  1  0.38513448  0.76949902  -0.00207628  1
  H+  H171  1  0.69271589  0.55628947  1.00731295  1
  H+  H172  1  0.14579612  0.36099905  0.49246284  1
  H+  H173  1  0.38541261  0.28165151  0.18115115  1
  H+  H174  1  0.36868641  0.39010605  0.97785902  1
  H+  H175  1  0.72614958  0.37153093  0.51485198  1
  H+  H176  1  0.28949025  0.20277372  0.01491314  1
  H+  H177  1  0.64105664  0.61523913  0.17572449  1
  H+  H178  1  0.52722457  0.39274192  0.19576288  1
  H+  H179  1  0.77288122  0.79680572  0.84550016  1
  H+  H180  1  0.09291573  -0.04676202  0.83519757  1
  H+  H181  1  0.50855717  0.13572733  0.32014493  1
  H+  H182  1  0.72355071  0.86159418  0.16902744  1
  H+  H183  1  0.85948002  0.22335469  0.16157058  1
  H+  H184  1  0.82644151  0.67486955  0.43388287  1
  H+  H185  1  0.26791127  0.97103330  0.61928315  1
  H+  H186  1  0.38622231  0.10959247  0.16543797  1
  H+  H187  1  0.58898261  0.91743084  0.56896214  1
  H+  H188  1  0.11701553  0.73184357  0.99819840  1
  H+  H189  1  -0.08825094  0.80270160  0.83637838  1
  H+  H190  1  0.15664124  0.28114800  0.67230440  1
  H+  H191  1  0.36696230  0.39220151  0.18023168  1
  H+  H192  1  0.87787150  0.58543210  0.85512219  1
  H+  H193  1  0.37537433  -0.02860813  0.99406639  1
  H+  H194  1  0.13592666  0.79324022  0.49835777  1
  H+  H195  1  0.21760064  0.60050000  0.83409943  1
  H+  H196  1  0.63621844  0.28323653  0.52303914  1
  H+  H197  1  0.37317491  0.47202327  0.34370302  1
  H+  H198  1  0.40733202  0.32874472  0.24699599  1
  H+  H199  1  0.49392342  0.39155751  0.81197599  1
  H+  H200  1  0.50326375  0.39146448  0.96961337  1
  H+  H201  1  0.60041479  0.67335427  0.43514989  1
  H+  H202  1  0.02500498  0.60717800  0.67707537  1
  H+  H203  1  0.95851148  0.11242873  0.62759465  1
  H+  H204  1  0.63594267  0.15194888  0.67216279  1
  H+  H205  1  0.70274772  0.83292975  0.92787398  1
  H+  H206  1  0.77944818  0.65232760  0.69317728  1
  H+  H207  1  0.88353719  0.02017058  1.00278362  1
  H+  H208  1  0.12081966  0.12894547  0.83486442  1
  H+  H209  1  0.38109151  0.26295881  0.85784203  1
  H+  H210  1  0.97417877  0.36654584  0.16552749  1
  H+  H211  1  0.58632606  0.16709673  0.09380210  1
  H+  H212  1  0.66443570  0.78335639  -0.01108168  1
  H+  H213  1  0.82009586  0.40611026  0.06530839  1
  H+  H214  1  0.37485808  0.26001241  0.32706741  1
  H+  H215  1  0.88484949  0.27621434  0.50239561  1
  H+  H216  1  0.83553279  0.91679320  0.39648809  1
  H+  H217  1  0.64816349  0.61948911  0.32938707  1
  H+  H218  1  0.10934434  0.61142431  0.31122448  1
  H+  H219  1  0.28443580  0.89511197  0.48217769  1
  H+  H220  1  0.95422181  0.62398587  0.50457441  1
  H+  H221  1  0.33425853  0.15534756  0.39657200  1
  H+  H222  1  0.47512953  0.84986205  0.84219903  1
  H+  H223  1  0.96823616  0.19323020  0.88007837  1
  H+  H224  1  0.86194963  0.14175015  0.47873255  1
  H+  H225  1  0.36193089  0.17749897  0.58207741  1
  H+  H226  1  0.63824153  0.41291493  0.66038735  1
  H+  H227  1  0.97648154  0.86172604  0.49903753  1
  H+  H228  1  0.12773709  0.13137204  1.00678028  1
  H+  H229  1  0.77088770  0.14809507  0.33198672  1
  H+  H230  1  0.14795769  0.27482281  0.49112506  1
  H+  H231  1  0.11932526  0.89398733  0.47369231  1
  H+  H232  1  0.14078567  0.27125689  0.82668249  1
  H+  H233  1  0.16842526  0.12826411  0.66830061  1
  H+  H234  1  0.45561055  0.60884372  0.99492223  1
  H+  H235  1  0.10120885  0.37869885  0.99513912  1
  H+  H236  1  0.68573204  0.09841692  0.60348616  1
  H+  H237  1  0.26669054  0.84874844  0.69311836  1
  H+  H238  1  0.73923032  0.12251996  0.50521607  1
  H+  H239  1  0.62685083  0.71466736  0.82470856  1
  H+  H240  1  0.85078844  0.37527161  1.00661732  1
  H+  H241  1  0.33669900  0.66391896  0.72771229  1
  H+  H242  1  0.38518419  0.85870304  0.99342613  1
  H+  H243  1  0.64647558  0.32484327  0.92815170  1
  H+  H244  1  0.89487133  0.88512866  -0.01529377  1
  H+  H245  1  0.85653973  0.96485258  0.16397707  1
  H+  H246  1  0.38544724  0.85105222  0.66354208  1
  H+  H247  1  0.02089207  0.63701120  0.14586605  1
  H+  H248  1  0.89996444  0.62607653  0.32660054  1
  H+  H249  1  0.13892413  0.37717465  0.67343364  1
  H+  H250  1  0.60415380  0.97487590  0.15930453  1
  H+  H251  1  0.22493012  0.37012707  0.17742638  1
  H+  H252  1  0.78186439  0.64067957  0.33957473  1
  H+  H253  1  0.77649822  0.13389931  0.16194522  1
  H+  H254  1  0.64368118  0.11617891  0.99927230  1
  H+  H255  1  0.61514933  0.39063727  0.19062170  1
  H+  H256  1  0.86054163  0.11113833  0.82511225  1
  H+  H257  1  0.36868524  0.72307930  0.66753713  1
  H+  H258  1  0.73035426  0.36535201  0.16944407  1
  H+  H259  1  0.84864515  0.63960283  0.49333308  1
  H+  H260  1  0.11178543  0.71741115  0.82269070  1
  H+  H261  1  0.37574254  0.48533049  0.66207986  1
  H+  H262  1  0.86328539  0.39143655  0.15837611  1
  H+  H263  1  0.37629164  0.47502218  0.52490551  1
  H+  H264  1  0.08914687  0.41193202  0.73087285  1
  H+  H265  1  0.77628573  0.38729040  0.67011865  1
  H+  H266  1  0.88636154  0.86595986  0.32120213  1
  H+  H267  1  0.97462200  0.36398294  0.50353465  1
  H+  H268  1  0.21723161  0.35953124  0.97004765  1
  H+  H269  1  0.10524993  0.46914551  0.82093425  1
  H+  H270  1  0.37795633  0.10662680  0.31975936  1
  H+  H271  1  0.12612396  0.51677807  0.98878657  1
  H+  H272  1  0.10262441  0.13146639  0.49019456  1
  H+  H273  1  0.11126750  0.87089970  0.32196018  1
  H+  H274  1  0.26551766  0.88365766  0.15367648  1
  H+  H275  1  0.61466276  0.35100836  0.82859883  1
  H+  H276  1  0.26731451  0.12352127  0.34175560  1
  H+  H277  1  0.38854168  0.86237802  0.32468058  1
  H+  H278  1  0.10255731  0.87713064  -0.00099838  1
  H+  H279  1  0.13226234  0.47353397  0.67013931  1
  H+  H280  1  0.10237667  0.88644363  0.14797821  1
  H+  H281  1  -0.01260664  0.62438471  0.32851123  1
  H+  H282  1  0.11231531  0.97608771  0.45741501  1
  H+  H283  1  0.82901760  0.17721171  0.42439261  1
  H+  H284  1  0.25280286  0.12691122  0.64346288  1
  H+  H285  1  0.64555198  0.11022127  0.84839230  1
  H+  H286  1  0.40790700  0.02170813  0.50515193  1
  H+  H287  1  0.01816165  0.13776692  0.48304851  1
  H+  H288  1  0.60648681  0.18152225  0.46407099  1
  H+  H289  1  0.11781256  -0.00467393  0.99406605  1
  H+  H290  1  0.07274736  0.17346693  0.10725095  1
  H+  H291  1  0.60531012  0.44783536  0.74725926  1
  H+  H292  1  0.38948724  0.77302667  0.32639212  1
  H+  H293  1  0.84514387  0.17133628  0.72923211  1
  H+  H294  1  0.16775676  0.83651252  0.92775858  1
  H+  H295  1  0.36334064  0.87185780  0.83262769  1
  H+  H296  1  0.36037310  0.17921904  0.75821181  1
  H+  H297  1  0.64669634  0.77494498  0.50829200  1
  H+  H298  1  0.65780898  0.46468171  0.08464817  1
  H+  H299  1  0.41172914  0.83128051  0.22906796  1
  H+  H300  1  0.33602394  0.91954119  0.05743134  1
  H+  H301  1  0.35468711  0.71942353  0.82250212  1
  H+  H302  1  0.93190449  0.10534452  0.91374170  1
  H+  H303  1  0.86200213  0.23690608  0.33142752  1
  H+  H304  1  0.72890302  0.61525103  0.85997025  1
  H+  H305  1  0.57983553  0.91135010  0.39589550  1
  H+  H306  1  0.08544377  0.16993642  0.39092697  1
  H+  H307  1  0.66845469  0.07698744  0.94203678  1
  H+  H308  1  0.60892857  0.96822480  0.83889381  1
  H+  H309  1  0.43390363  0.59291019  0.27341420  1
  H+  H310  1  0.34847531  0.66986409  0.40675903  1
  H+  H311  1  0.10622019  0.62694663  0.82971287  1
  H+  H312  1  0.18317045  0.87489440  0.54534984  1
  H+  H313  1  0.08153577  0.41674687  0.43042656  1
  H+  H314  1  0.26681257  0.63480840  0.15576898  1
  H+  H315  1  0.40417000  0.62113400  0.50603034  1
  H+  H316  1  0.67580893  0.82772897  0.60347036  1
  H+  H317  1  0.49383143  0.38254371  0.65626814  1
  H+  H318  1  0.83367396  0.92183112  0.06755307  1
  H+  H319  1  0.08071198  0.67001262  0.08348871  1
  H+  H320  1  0.35602053  0.43922553  0.12308751  1
  H+  H321  1  0.90701825  0.82831819  0.22582086  1
  H+  H322  1  0.79116125  0.53745747  0.63049744  1
  H+  H323  1  0.18182229  0.56883418  0.57291664  1
  H+  H324  1  0.03506489  0.13788496  0.83382080  1
  H+  H325  1  0.34842045  0.92330705  0.42610376  1
  H+  H326  1  0.40842446  0.07917925  0.25749860  1
  H+  H327  1  0.32432211  0.66335748  0.06640036  1
  H+  H328  1  0.44146624  0.06453518  0.90757981  1
  H+  H329  1  0.16025918  0.56979189  0.89512357  1
  H+  H330  1  0.36707246  0.97690724  0.33120183  1
  H+  H331  1  0.82390691  0.66214482  0.06637283  1
  H+  H332  1  0.13388553  0.10652527  0.33081609  1
  H+  H333  1  0.39180434  0.53558870  0.18681805  1
  H+  H334  1  0.01299521  0.88257798  -0.00699580  1
  H+  H335  1  0.66973708  0.83442562  0.26410628  1
  H+  H336  1  0.33628878  0.13083335  0.75774281  1
  H+  H337  1  0.19217047  0.81470817  0.27272584  1
  H+  H338  1  0.42327304  0.06114281  0.57125196  1
  H+  H339  1  0.41463534  0.81948923  0.90071366  1
  H+  H340  1  0.67738808  0.59213936  0.26741729  1
  H+  H341  1  0.90935947  0.33069385  0.92930167  1
  H+  H342  1  0.55755565  0.16831279  0.38094226  1
  H+  H343  1  0.88953964  0.58388410  0.56244125  1
  H+  H344  1  0.41407843  0.58784226  0.89080011  1
  H+  H345  1  0.31333796  0.38253954  0.03377935  1
  H+  H346  1  0.65485802  0.07526113  0.22814377  1
  H+  H347  1  0.15438731  0.08109153  0.57524655  1
  H+  H348  1  0.62262958  0.41885386  0.08107344  1
  H+  H349  1  0.14327609  0.57741463  0.20993643  1
  H+  H350  1  0.12127111  0.81568434  0.21273831  1
  H+  H351  1  0.78448606  0.04986152  0.78131124  1
  H+  H352  1  0.07421440  0.40675936  0.05723476  1
  H+  H353  1  0.58495437  0.67104679  0.73660702  1
  H+  H354  1  0.15853431  0.06733509  0.90434287  1
  H+  H355  1  0.89851285  0.08205462  0.54722531  1
  H+  H356  1  0.19320448  0.98326946  0.59624249  1
  H+  H357  1  0.41259623  0.09716389  0.96886778  1
  H+  H358  1  0.92084776  0.34153460  0.22784597  1
  H+  H359  1  0.23599488  0.60572652  0.66036358  1
  H+  H360  1  0.35397700  0.88274337  0.15723675  1
  H+  H361  1  0.91745435  0.84255016  0.60085513  1
  H+  H362  1  0.86842809  0.88963222  0.49175532  1
  H+  H363  1  0.60828494  0.16683407  0.77201404  1
  H+  H364  1  0.67516740  0.34670042  0.60319086  1
  H+  H365  1  0.58589258  0.66716189  0.10177434  1
  H+  H366  1  0.64041076  0.86381147  0.65454787  1
  H+  H367  1  0.17750560  0.21220819  0.04663137  1
  H+  H368  1  0.27195792  0.39316478  0.81490344  1
  H+  H369  1  0.66392680  0.54298202  0.60037406  1
  H+  H370  1  0.06541527  0.90159019  0.77463123  1
  H+  H371  1  0.57142328  0.91789754  0.07876142  1
  H+  H372  1  0.86719557  0.52019466  0.95740391  1
  H+  H373  1  0.13515235  0.26886428  0.97893137  1
  H+  H374  1  0.16109939  0.33171359  0.88324176  1
  H+  H375  1  0.42068696  0.30252842  0.94402991  1
  H+  H376  1  0.64619756  0.86420334  0.51797072  1
  H+  H377  1  0.10709156  0.16911976  0.74575168  1
  H+  H378  1  0.34147383  0.43213641  0.72364131  1
  H+  H379  1  0.39131760  0.37266039  0.49511059  1
  H+  H380  1  0.91220222  0.34098228  0.59342232  1
  H+  H381  1  0.41087223  0.82829292  0.59837260  1
  H+  H382  1  0.91188171  0.06473850  0.24070071  1
  H+  H383  1  0.35754590  0.63334761  0.81928531  1
  O2-  O384  1  0.07610062  0.17882718  0.15152816  1
  O2-  O385  1  0.07913226  0.16410667  0.46970819  1
  O2-  O386  1  0.09367457  0.16134297  0.81661747  1
  O2-  O387  1  0.07906762  0.41411306  0.13191028  1
  O2-  O388  1  0.07734828  0.40851180  0.47548349  1
  O2-  O389  1  0.07128515  0.40870561  0.80377546  1
  O2-  O390  1  0.08177758  0.66977524  0.13084497  1
  O2-  O391  1  0.05742740  0.69058380  0.47456128  1
  O2-  O392  1  0.07979212  0.65692412  0.80909815  1
  O2-  O393  1  0.07140453  0.91709475  0.13651210  1
  O2-  O394  1  0.07918634  0.91329693  0.45714168  1
  O2-  O395  1  0.06343873  0.89429557  0.81930252  1
  O2-  O396  1  0.30587839  0.13430373  0.14021596  1
  O2-  O397  1  0.33154212  0.17074593  0.47969075  1
  O2-  O398  1  0.35531384  0.21283636  0.88646185  1
  O2-  O399  1  0.33974262  0.42730048  0.16560829  1
  O2-  O400  1  0.34954655  0.41286101  0.53258604  1
  O2-  O401  1  0.33251233  0.43040073  0.80103924  1
  O2-  O402  1  0.32916081  0.66757778  0.14436092  1
  O2-  O403  1  0.34765733  0.67031026  0.47921070  1
  O2-  O404  1  0.32436752  0.66044823  0.80417224  1
  O2-  O405  1  0.32649187  0.91509865  0.14081102  1
  O2-  O406  1  0.34632571  0.92067853  0.47163995  1
  O2-  O407  1  0.33704841  0.90534925  0.81597920  1
  O2-  O408  1  0.58616850  0.16636226  0.13926894  1
  O2-  O409  1  0.59839374  0.17605617  0.50779422  1
  O2-  O410  1  0.60293006  0.16076989  0.81667151  1
  O2-  O411  1  0.58962358  0.42601794  0.20300481  1
  O2-  O412  1  0.58975451  0.42264728  0.46861328  1
  O2-  O413  1  0.59315413  0.43298446  0.79087133  1
  O2-  O414  1  0.58113223  0.66594842  0.14647875  1
  O2-  O415  1  0.59690375  0.67425655  0.48058418  1
  O2-  O416  1  0.58408074  0.65911046  0.80581104  1
  O2-  O417  1  0.57382480  0.91361058  0.14181352  1
  O2-  O418  1  0.59004969  0.91937151  0.52324647  1
  O2-  O419  1  0.57908119  0.91034092  0.81989187  1
  O2-  O420  1  0.83640069  0.16344175  0.14836154  1
  O2-  O421  1  0.83192394  0.17476630  0.47011384  1
  O2-  O422  1  0.81337060  0.10739075  0.79887758  1
  O2-  O423  1  0.83008785  0.41875999  0.14271113  1
  O2-  O424  1  0.81788259  0.41127222  0.49017236  1
  O2-  O425  1  0.88076867  0.49026411  0.81773033  1
  O2-  O426  1  0.83552807  0.66236362  0.14248954  1
  O2-  O427  1  0.82227814  0.67470478  0.47940898  1
  O2-  O428  1  0.83027379  0.68398100  0.85419436  1
  O2-  O429  1  0.82049631  0.90748828  0.14177121  1
  O2-  O430  1  0.83654122  0.91736819  0.47503970  1
  O2-  O431  1  0.72907100  0.86745054  0.80379276  1
  O2-  O432  1  0.13281819  0.07703521  0.18793511  1
  O2-  O433  1  0.13470144  0.06418676  0.53192083  1
  O2-  O434  1  0.16789916  0.07697926  0.85940451  1
  O2-  O435  1  0.16379138  0.34327110  0.18934124  1
  O2-  O436  1  0.18226070  0.33608981  0.50215283  1
  O2-  O437  1  0.16424562  0.33274139  0.83786765  1
  O2-  O438  1  0.15717756  0.58245313  0.16601183  1
  O2-  O439  1  0.18722159  0.56897682  0.52659593  1
  O2-  O440  1  0.15776490  0.56605495  0.84958987  1
  O2-  O441  1  0.14885315  0.82364534  0.17326403  1
  O2-  O442  1  0.17730562  0.85599219  0.50198182  1
  O2-  O443  1  0.16666068  0.82804972  0.85176604  1
  O2-  O444  1  0.41771843  0.08126799  0.18061836  1
  O2-  O445  1  0.44028898  0.07622618  0.52830671  1
  O2-  O446  1  0.44242718  0.06304090  0.84543052  1
  O2-  O447  1  0.41081345  0.33844273  0.19934985  1
  O2-  O448  1  0.41744506  0.34505960  0.46688683  1
  O2-  O449  1  0.43657901  0.36932259  0.83410273  1
  O2-  O450  1  0.42143396  0.59826701  0.19554247  1
  O2-  O451  1  0.43523644  0.59365002  0.52394547  1
  O2-  O452  1  0.41959377  0.59067731  0.84601381  1
  O2-  O453  1  0.41007648  0.83276579  0.18374974  1
  O2-  O454  1  0.41598394  0.83198908  0.51972153  1
  O2-  O455  1  0.41343120  0.81827211  0.85555811  1
  O2-  O456  1  0.65258954  0.06954357  0.18307010  1
  O2-  O457  1  0.68327220  0.09116551  0.52841146  1
  O2-  O458  1  0.66918717  0.07507052  0.86806944  1
  O2-  O459  1  0.67039610  0.33289413  0.18680978  1
  O2-  O460  1  0.66433527  0.34593701  0.53136144  1
  O2-  O461  1  0.61083983  0.30850099  0.85843566  1
  O2-  O462  1  0.67550543  0.59143810  0.19338085  1
  O2-  O463  1  0.66216576  0.57752090  0.52678062  1
  O2-  O464  1  0.66476837  0.56984203  0.86226895  1
  O2-  O465  1  0.66295008  0.83037992  0.18631357  1
  O2-  O466  1  0.67887683  0.83394070  0.52682491  1
  O2-  O467  1  0.72137423  0.80512648  0.85050713  1
  O2-  O468  1  0.91851598  0.04632798  0.19954307  1
  O2-  O469  1  0.90882542  0.08463353  0.50274652  1
  O2-  O470  1  0.94541308  0.13224329  0.87186699  1
  O2-  O471  1  0.91545048  0.34156642  0.18259048  1
  O2-  O472  1  0.91477278  0.33530605  0.52023351  1
  O2-  O473  1  0.91497155  0.35526107  0.85359136  1
  O2-  O474  1  0.92378733  0.58730064  0.18117897  1
  O2-  O475  1  0.89389141  0.58504078  0.51705248  1
  O2-  O476  1  0.85343284  0.52514851  0.86740391  1
  O2-  O477  1  0.90550928  0.82552054  0.18032056  1
  O2-  O478  1  0.92050997  0.83753378  0.52023091  1
  O2-  O479  1  0.85514832  0.77397938  0.85674045  1
  O2-  O480  1  0.16855291  0.07760396  0.33097960  1
  O2-  O481  1  0.18791214  0.09228200  0.64678437  1
  O2-  O482  1  0.15731451  0.06006452  0.98017750  1
  O2-  O483  1  0.17075531  0.34214322  0.31510322  1
  O2-  O484  1  0.17810171  0.33933767  0.65511870  1
  O2-  O485  1  0.15511971  0.32623127  0.96039042  1
  O2-  O486  1  0.13862363  0.58309603  0.29027110  1
  O2-  O487  1  0.17592608  0.56903550  0.64456254  1
  O2-  O488  1  0.15764622  0.57613586  0.97203043  1
  O2-  O489  1  0.17707249  0.82382785  0.31348356  1
  O2-  O490  1  0.20554559  0.93816576  0.60803308  1
  O2-  O491  1  0.16660073  0.84015014  0.97336494  1
  O2-  O492  1  0.41034982  0.07821273  0.30297666  1
  O2-  O493  1  0.37357553  0.03182716  0.64246069  1
  O2-  O494  1  0.44120375  0.06509819  0.95815255  1
  O2-  O495  1  0.40597037  0.32073413  0.31276017  1
  O2-  O496  1  0.43350095  0.33928265  0.66322782  1
  O2-  O497  1  0.43775269  0.35294785  0.97057603  1
  O2-  O498  1  0.43724009  0.58757388  0.31848407  1
  O2-  O499  1  0.43746922  0.59685327  0.64320386  1
  O2-  O500  1  0.40056482  0.57993890  0.97384782  1
  O2-  O501  1  0.41887759  0.83185885  0.30901000  1
  O2-  O502  1  0.41846602  0.82677592  0.64333832  1
  O2-  O503  1  0.41925347  0.82999432  0.98234133  1
  O2-  O504  1  0.66036232  0.08521876  0.30812196  1
  O2-  O505  1  0.68013266  0.09687065  0.64914743  1
  O2-  O506  1  0.66962965  0.07908850  0.98812198  1
  O2-  O507  1  0.66787641  0.34208533  0.30610364  1
  O2-  O508  1  0.68017347  0.34951091  0.64949197  1
  O2-  O509  1  0.65108383  0.33171104  0.97362378  1
  O2-  O510  1  0.67754827  0.58820023  0.31351727  1
  O2-  O511  1  0.68447667  0.53434140  0.64109785  1
  O2-  O512  1  0.71086229  0.60596825  1.03506393  1
  O2-  O513  1  0.67205672  0.83466432  0.30971563  1
  O2-  O514  1  0.67139170  0.83075210  0.64902691  1
  O2-  O515  1  0.69136234  0.84125532  0.97039109  1
  O2-  O516  1  0.91579831  0.09120835  0.31743207  1
  O2-  O517  1  0.89623598  0.08415060  0.62702098  1
  O2-  O518  1  0.91640379  0.08520198  0.98821450  1
  O2-  O519  1  0.92043587  0.33750910  0.30555997  1
  O2-  O520  1  0.91215849  0.34725479  0.63932379  1
  O2-  O521  1  0.90825764  0.32024109  0.97406528  1
  O2-  O522  1  0.93076420  0.59790485  0.30879041  1
  O2-  O523  1  0.85399334  0.56326339  0.63590175  1
  O2-  O524  1  0.87394805  0.53509896  1.00103277  1
  O2-  O525  1  0.90893444  0.82965054  0.30379273  1
  O2-  O526  1  0.91342084  0.84563366  0.64587252  1
  O2-  O527  1  0.93305502  0.87125481  0.96061977  1
  O2-  O528  1  0.12346332  0.18072203  0.02410479  1
  O2-  O529  1  0.08617276  0.17248294  0.34564715  1
  O2-  O530  1  0.11470201  0.17548257  0.69983294  1
  O2-  O531  1  0.07042338  0.40713687  0.01139268  1
  O2-  O532  1  0.08696952  0.42301095  0.35185813  1
  O2-  O533  1  0.10172153  0.41191205  0.68591532  1
  O2-  O534  1  0.08638104  0.67321788  0.01570007  1
  O2-  O535  1  0.09891056  0.67967996  0.36274447  1
  O2-  O536  1  0.06719085  0.59924334  0.69920182  1
  O2-  O537  1  0.07117505  0.90641714  0.01460257  1
  O2-  O538  1  0.07620539  0.89739486  0.33340548  1
  O2-  O539  1  0.07920722  0.92325602  0.69370590  1
  O2-  O540  1  0.31212811  0.24340573  0.04869784  1
  O2-  O541  1  0.33142460  0.15410208  0.35144952  1
  O2-  O542  1  0.35656737  0.17665577  0.62646909  1
  O2-  O543  1  0.32685263  0.40763515  -0.00685815  1
  O2-  O544  1  0.34026555  0.41166554  0.35734509  1
  O2-  O545  1  0.34282356  0.42601066  0.67863164  1
  O2-  O546  1  0.32165882  0.66506919  0.02093252  1
  O2-  O547  1  0.34912593  0.66804717  0.36040076  1
  O2-  O548  1  0.33984950  0.66195684  0.68209528  1
  O2-  O549  1  0.33632714  0.91332182  0.01260400  1
  O2-  O550  1  0.34234680  0.91803417  0.34948502  1
  O2-  O551  1  0.32761020  0.88740297  0.70138805  1
  O2-  O552  1  0.59244026  0.16762431  0.01470119  1
  O2-  O553  1  0.56930066  0.16894399  0.33778143  1
  O2-  O554  1  0.60816964  0.18449117  0.68961072  1
  O2-  O555  1  0.60616389  0.45541880  -0.03616911  1
  O2-  O556  1  0.61204680  0.43532186  0.35220999  1
  O2-  O557  1  0.61463687  0.45325580  0.66569889  1
  O2-  O558  1  0.61668861  0.67585827  0.01846972  1
  O2-  O559  1  0.60147798  0.67300282  0.35693129  1
  O2-  O560  1  0.58625461  0.67734927  0.68973674  1
  O2-  O561  1  0.57169431  0.92018447  0.02947365  1
  O2-  O562  1  0.58100821  0.91296659  0.35160084  1
  O2-  O563  1  0.59099289  0.92101782  0.64619593  1
  O2-  O564  1  0.83367457  0.16828257  0.01017606  1
  O2-  O565  1  0.83002716  0.17690767  0.34876658  1
  O2-  O566  1  0.84718161  0.18529260  0.68550339  1
  O2-  O567  1  0.80786529  0.38978988  0.02131074  1
  O2-  O568  1  0.84567561  0.42366945  0.33844020  1
  O2-  O569  1  0.84028407  0.41951199  0.68042949  1
  O2-  O570  1  0.80275470  0.66054544  0.02354723  1
  O2-  O571  1  0.84116438  0.67315916  0.35666975  1
  O2-  O572  1  0.84202600  0.68270513  0.69548749  1
  O2-  O573  1  0.84052386  0.93012942  0.02197975  1
  O2-  O574  1  0.83830839  0.92123542  0.35124219  1
  O2-  O575  1  0.84008218  0.94031532  0.68230433  1
