# generated using pymatgen
data_H2O
_symmetry_space_group_name_H-M   'P 1'
_cell_length_a   17.99810754
_cell_length_b   17.99684472
_cell_length_c   22.01821215
_cell_angle_alpha   89.97445511
_cell_angle_beta   90.00438087
_cell_angle_gamma   119.99433121
_symmetry_Int_Tables_number   1
_chemical_formula_structural   H2O
_chemical_formula_sum   'H384 O192'
_cell_volume   6176.75892348
_cell_formula_units_Z   192
loop_
 _symmetry_equiv_pos_site_id
 _symmetry_equiv_pos_as_xyz
  1  'x, y, z'
loop_
 _atom_type_symbol
 _atom_type_oxidation_number
  H+  1.0
  O2-  -2.0
loop_
 _atom_site_type_symbol
 _atom_site_label
 _atom_site_symmetry_multiplicity
 _atom_site_fract_x
 _atom_site_fract_y
 _atom_site_fract_z
 _atom_site_occupancy
  H+  H0  1  0.85522787  0.63603002  0.84042593  1
  H+  H1  1  -0.01121955  0.36918052  0.49676263  1
  H+  H2  1  0.26786128  0.37955261  0.68247109  1
  H+  H3  1  0.48417344  0.10967539  0.86889370  1
  H+  H4  1  0.34812600  0.40056803  0.56760007  1
  H+  H5  1  0.39142160  0.01179223  0.50696590  1
  H+  H6  1  0.88857727  0.35768159  0.83036984  1
  H+  H7  1  0.38339779  0.02727675  0.66350776  1
  H+  H8  1  0.00565493  0.85957897  0.14772586  1
  H+  H9  1  0.38452517  0.63381355  0.35150325  1
  H+  H10  1  0.63703798  0.62472170  0.99772666  1
  H+  H11  1  -0.03321773  0.11195625  0.31292951  1
  H+  H12  1  0.74417262  0.64412179  0.51291564  1
  H+  H13  1  0.22439592  0.10543293  0.51227399  1
  H+  H14  1  0.60428691  0.66669918  0.35865416  1
  H+  H15  1  0.27431803  0.13786343  0.67763884  1
  H+  H16  1  0.89079144  0.52121526  0.66077880  1
  H+  H17  1  0.61237897  0.39910843  0.66618078  1
  H+  H18  1  0.78942884  0.14799512  0.49591036  1
  H+  H19  1  0.65102298  0.05033686  0.64640020  1
  H+  H20  1  0.25546897  0.87390734  0.17166341  1
  H+  H21  1  -0.11944507  0.13821587  0.50331005  1
  H+  H22  1  0.11061305  0.22030372  0.69250911  1
  H+  H23  1  0.53078094  0.63822126  0.16756927  1
  H+  H24  1  0.85455701  0.12703382  0.32742809  1
  H+  H25  1  0.12297518  0.51043606  0.84669653  1
  H+  H26  1  0.76537469  0.14284584  0.15836311  1
  H+  H27  1  0.63621106  0.78231919  0.17895025  1
  H+  H28  1  0.31030733  0.90648350  0.07521305  1
  H+  H29  1  0.34807041  0.39243657  0.83664195  1
  H+  H30  1  0.28253321  0.87724637  0.49720985  1
  H+  H31  1  0.46126402  0.19439351  0.28449462  1
  H+  H32  1  0.60800541  0.64084609  0.67834388  1
  H+  H33  1  0.89254643  0.11417697  0.65983824  1
  H+  H34  1  0.76772474  0.89847904  0.33828871  1
  H+  H35  1  0.11306100  0.63635939  0.49134837  1
  H+  H36  1  0.52613286  0.89347608  0.15683457  1
  H+  H37  1  0.64276484  0.13407496  0.64137060  1
  H+  H38  1  0.80669019  0.86374363  0.21343150  1
  H+  H39  1  0.38552992  0.54617792  0.33600428  1
  H+  H40  1  0.39150661  0.84732551  0.50670416  1
  H+  H41  1  0.86906302  0.89853228  0.82587617  1
  H+  H42  1  0.74480336  0.62930122  0.15811384  1
  H+  H43  1  0.24543804  0.63651922  0.16866262  1
  H+  H44  1  0.72824445  0.11831815  0.32885875  1
  H+  H45  1  0.58390217  0.19660828  0.59689919  1
  H+  H46  1  0.61782774  0.66407561  0.50563255  1
  H+  H47  1  0.13614348  0.10736597  0.67064149  1
  H+  H48  1  0.46731685  0.09848507  0.17111253  1
  H+  H49  1  1.01702370  0.37679938  0.82270514  1
  H+  H50  1  0.10122804  0.12825288  0.32909439  1
  H+  H51  1  0.88016349  1.02223785  0.31906181  1
  H+  H52  1  0.61801740  0.77605799  0.83532668  1
  H+  H53  1  0.78384170  0.41550625  0.67155586  1
  H+  H54  1  0.11282455  -0.03914989  0.82481787  1
  H+  H55  1  0.06888917  0.40915943  0.06599133  1
  H+  H56  1  0.10029418  0.88142503  0.15677938  1
  H+  H57  1  0.38584583  0.36509385  0.66584057  1
  H+  H58  1  0.10950646  0.46652280  0.32327826  1
  H+  H59  1  0.13565989  0.01439758  0.98644777  1
  H+  H60  1  0.37717461  0.24304342  -0.00167146  1
  H+  H61  1  0.51169167  0.87617437  0.68457844  1
  H+  H62  1  0.61156651  0.45217895  0.47476744  1
  H+  H63  1  0.35041698  0.13639173  0.33538614  1
  H+  H64  1  -0.02408696  0.85889985  0.65978088  1
  H+  H65  1  0.76603923  0.38708748  0.16408907  1
  H+  H66  1  0.02075817  0.14212638  0.01642790  1
  H+  H67  1  0.46533107  0.34020685  0.48762093  1
  H+  H68  1  0.98242916  0.61452429  0.50118673  1
  H+  H69  1  0.11367871  0.37998763  0.33838687  1
  H+  H70  1  0.88284979  0.77924034  0.85024251  1
  H+  H71  1  0.13063363  0.01407495  0.32737539  1
  H+  H72  1  0.46702821  0.35286616  0.31494886  1
  H+  H73  1  0.42385612  0.10327375  0.25556563  1
  H+  H74  1  0.38553166  0.35273349  0.48890684  1
  H+  H75  1  0.36513434  0.10097834  0.00051592  1
  H+  H76  1  0.62614455  0.05625754  0.82702345  1
  H+  H77  1  0.36391409  0.71608495  0.42961591  1
  H+  H78  1  0.72887709  0.37121253  0.32463558  1
  H+  H79  1  0.88222024  0.26508277  0.83207756  1
  H+  H80  1  0.21893762  0.37725142  0.17266644  1
  H+  H81  1  0.66682514  0.62176812  0.29683666  1
  H+  H82  1  0.77052386  0.64519288  0.69162185  1
  H+  H83  1  0.91470519  0.85069127  0.90291669  1
  H+  H84  1  0.11283381  0.73024856  0.98970635  1
  H+  H85  1  0.88380322  0.61381442  0.17154494  1
  H+  H86  1  0.84281957  0.88726312  0.31693859  1
  H+  H87  1  0.62485938  0.90588842  0.34034077  1
  H+  H88  1  0.34567064  0.96967488  0.01793417  1
  H+  H89  1  0.10846395  0.64219692  0.13836931  1
  H+  H90  1  0.04084500  0.39293992  0.67259541  1
  H+  H91  1  0.22858722  0.36207303  0.32218816  1
  H+  H92  1  0.13714586  0.10791403  0.50997353  1
  H+  H93  1  0.12095700  -0.02560829  0.50154123  1
  H+  H94  1  0.21280701  0.10611516  0.32474851  1
  H+  H95  1  0.24141269  0.10404402  0.82966781  1
  H+  H96  1  0.18796931  0.34131323  0.42285718  1
  H+  H97  1  0.47431559  0.62909453  0.52431803  1
  H+  H98  1  0.74503191  0.61187947  0.31902520  1
  H+  H99  1  0.11574003  0.63721391  0.33436058  1
  H+  H100  1  0.51567429  0.63539300  0.68028233  1
  H+  H101  1  0.40188608  0.32444124  0.91069355  1
  H+  H102  1  0.37652723  0.60193560  0.67914420  1
  H+  H103  1  0.39257377  0.79137177  0.32975409  1
  H+  H104  1  0.62176503  0.64293909  0.15948525  1
  H+  H105  1  0.36303276  0.38994722  0.30037578  1
  H+  H106  1  0.13794977  0.88783873  0.34636381  1
  H+  H107  1  0.51880863  0.39307014  0.66456756  1
  H+  H108  1  0.58362840  0.85796263  0.78202884  1
  H+  H109  1  0.14438123  0.77095001  0.50909597  1
  H+  H110  1  0.37415054  0.22844872  0.83206886  1
  H+  H111  1  0.13067306  0.36904587  0.99396801  1
  H+  H112  1  0.65422043  0.37294218  0.82386266  1
  H+  H113  1  0.12257967  0.01486520  0.16831673  1
  H+  H114  1  0.36953834  0.48033400  0.52619422  1
  H+  H115  1  0.35548287  0.20880763  0.48120733  1
  H+  H116  1  0.33370473  0.93072527  0.77043361  1
  H+  H117  1  0.10110550  0.47359839  0.00910975  1
  H+  H118  1  0.36309972  0.38865957  0.15720364  1
  H+  H119  1  0.89067270  0.02565149  0.50518999  1
  H+  H120  1  0.14918160  0.86156715  0.51211484  1
  H+  H121  1  0.53323334  0.65936114  0.00781507  1
  H+  H122  1  0.86930530  0.13474109  0.82198897  1
  H+  H123  1  0.88675431  0.23959442  0.49916775  1
  H+  H124  1  0.90519362  -0.04027749  0.99355667  1
  H+  H125  1  0.39419803  0.69718738  0.52100423  1
  H+  H126  1  0.63250319  0.77272485  0.66164095  1
  H+  H127  1  0.85807617  0.22425154  0.00007275  1
  H+  H128  1  0.61959009  0.23729935  0.34287376  1
  H+  H129  1  0.11263320  0.96900562  0.67917079  1
  H+  H130  1  0.91896449  0.85226221  0.38974623  1
  H+  H131  1  0.57640920  0.90418706  0.00465586  1
  H+  H132  1  0.52979437  0.37474947  0.81243641  1
  H+  H133  1  0.27257577  0.89154942  0.68018662  1
  H+  H134  1  0.11959648  0.22355069  0.47629607  1
  H+  H135  1  0.25577628  0.12297987  1.00452296  1
  H+  H136  1  0.08065627  0.67387113  0.04986920  1
  H+  H137  1  0.86217748  0.97251794  0.66861536  1
  H+  H138  1  0.77311185  0.88390622  0.67171699  1
  H+  H139  1  0.59136168  0.95336069  0.71734465  1
  H+  H140  1  0.62247978  0.47872181  0.15524491  1
  H+  H141  1  0.79113756  0.39898990  0.81514920  1
  H+  H142  1  0.13700438  0.36372463  0.67599662  1
  H+  H143  1  0.34539125  -0.03957616  0.17129213  1
  H+  H144  1  0.26746351  0.89289369  0.83454624  1
  H+  H145  1  0.37091685  0.48199587  0.16038574  1
  H+  H146  1  0.11461193  0.72293307  0.83379155  1
  H+  H147  1  0.86182980  0.72774817  0.68695115  1
  H+  H148  1  0.37666857  0.51292093  0.67399520  1
  H+  H149  1  0.14333242  0.86076238  0.84053272  1
  H+  H150  1  0.36837700  0.99204961  0.34670928  1
  H+  H151  1  0.35275530  0.21146932  0.15777075  1
  H+  H152  1  0.66662427  0.41825376  0.44558779  1
  H+  H153  1  0.23748613  0.36588834  0.48743640  1
  H+  H154  1  0.47266778  0.35630906  0.16392631  1
  H+  H155  1  0.66337148  0.08492566  0.23743727  1
  H+  H156  1  0.88331806  0.48269010  0.81617002  1
  H+  H157  1  0.62006420  0.36662830  0.98511829  1
  H+  H158  1  0.14274794  0.52653404  0.66571746  1
  H+  H159  1  0.61548827  0.79247973  0.99457821  1
  H+  H160  1  0.28480964  0.89836039  0.33871862  1
  H+  H161  1  -0.01401116  0.62217575  0.32365175  1
  H+  H162  1  0.61206827  0.64448959  0.82933430  1
  H+  H163  1  0.64956130  0.56723145  0.52338586  1
  H+  H164  1  0.15631531  0.81927499  0.24422407  1
  H+  H165  1  0.38212211  0.14342839  0.83468618  1
  H+  H166  1  0.11783101  0.72766067  0.68077953  1
  H+  H167  1  0.15462005  0.31781481  0.62044327  1
  H+  H168  1  0.40611787  0.07457500  0.91385014  1
  H+  H169  1  0.86738008  0.72164018  0.35267346  1
  H+  H170  1  0.67951579  0.84938965  0.57066181  1
  H+  H171  1  0.62822522  0.33942222  0.51746265  1
  H+  H172  1  0.38059139  0.85103043  0.16694612  1
  H+  H173  1  0.22068950  0.36874073  -0.00592062  1
  H+  H174  1  0.42021743  0.60572491  0.89532215  1
  H+  H175  1  0.01920914  0.89283013  0.00095041  1
  H+  H176  1  0.10297071  0.47459545  0.15800747  1
  H+  H177  1  0.78398391  0.89369115  0.49297684  1
  H+  H178  1  0.02215413  0.63818725  0.83840355  1
  H+  H179  1  0.63503460  0.86156838  0.66524559  1
  H+  H180  1  0.77609835  0.12258675  0.81511026  1
  H+  H181  1  0.39091209  0.77075461  0.84240730  1
  H+  H182  1  -0.00579483  0.85368020  0.35309683  1
  H+  H183  1  0.61515590  0.49263466  0.00690567  1
  H+  H184  1  0.39490882  0.64446342  0.98978419  1
  H+  H185  1  0.62301597  0.14967269  0.91566475  1
  H+  H186  1  0.48409296  0.83977009  0.86117984  1
  H+  H187  1  0.72698040  0.12236507  0.97951025  1
  H+  H188  1  0.43420654  0.85371620  0.00432880  1
  H+  H189  1  0.64123798  0.90718929  0.49396181  1
  H+  H190  1  0.53001292  0.15190478  0.33917943  1
  H+  H191  1  0.89938967  0.31455549  0.37839085  1
  H+  H192  1  0.15420655  0.10607838  0.82989771  1
  H+  H193  1  0.09174021  0.14714890  0.88283603  1
  H+  H194  1  0.07855589  0.91150439  0.05935403  1
  H+  H195  1  0.13492463  0.61239526  0.66706901  1
  H+  H196  1  0.38370655  0.11663684  0.65873620  1
  H+  H197  1  0.17364704  0.83018036  0.60639913  1
  H+  H198  1  0.39229036  0.87802351  0.32021933  1
  H+  H199  1  0.33915385  0.44083194  0.25392086  1
  H+  H200  1  0.77882943  0.38446178  0.50089376  1
  H+  H201  1  0.85630458  0.21613006  0.32586682  1
  H+  H202  1  0.13886796  0.85996249  0.66381788  1
  H+  H203  1  0.26404190  0.64199935  0.66352371  1
  H+  H204  1  0.63916523  0.12239178  0.33353470  1
  H+  H205  1  0.85804071  0.49113908  0.97614996  1
  H+  H206  1  0.85415879  0.08332362  0.15691761  1
  H+  H207  1  0.58280051  0.93940853  0.09925746  1
  H+  H208  1  0.24381307  0.80861834  0.28526209  1
  H+  H209  1  0.25717009  0.61939423  1.01359055  1
  H+  H210  1  0.10727554  0.38724934  0.16475327  1
  H+  H211  1  0.34781910  0.37514593  0.00997062  1
  H+  H212  1  0.89631205  0.86646504  0.50508861  1
  H+  H213  1  0.51423618  0.66197567  0.35522169  1
  H+  H214  1  0.88871914  0.02546434  0.83526959  1
  H+  H215  1  0.96750861  0.36312671  0.98929862  1
  H+  H216  1  0.03439223  0.88459892  0.49716631  1
  H+  H217  1  0.78135786  0.67607856  1.01202025  1
  H+  H218  1  0.97231827  0.36926944  0.17596819  1
  H+  H219  1  0.63373031  0.52874362  0.83952238  1
  H+  H220  1  0.89175730  0.52532937  0.89170446  1
  H+  H221  1  0.38039708  0.78686329  0.66385800  1
  H+  H222  1  0.22073249  0.59009776  0.31078976  1
  H+  H223  1  0.89289979  0.61390400  0.50731784  1
  H+  H224  1  0.63642018  0.25720004  0.51091919  1
  H+  H225  1  0.42030133  0.84297607  0.60571579  1
  H+  H226  1  0.13280739  0.86314190  0.98634874  1
  H+  H227  1  0.10299747  0.72627835  0.14559526  1
  H+  H228  1  0.37738329  0.09875164  0.16947111  1
  H+  H229  1  0.02951625  0.13868434  0.49056256  1
  H+  H230  1  0.12618321  0.60735873  -0.00661919  1
  H+  H231  1  0.65650305  0.12841206  0.49704178  1
  H+  H232  1  0.37477738  0.26609530  0.32338256  1
  H+  H233  1  0.16612972  0.58457761  0.25438396  1
  H+  H234  1  0.86245981  0.39754045  0.34349291  1
  H+  H235  1  0.63460446  0.53420804  0.66211747  1
  H+  H236  1  0.83027630  0.67079657  0.78097148  1
  H+  H237  1  0.13468353  0.52680898  0.50434615  1
  H+  H238  1  0.64352915  0.79078740  0.51247021  1
  H+  H239  1  0.22064947  0.36900537  0.84393581  1
  H+  H240  1  0.15437708  0.56919133  0.93876495  1
  H+  H241  1  0.12627631  0.60027235  0.84890441  1
  H+  H242  1  0.16216131  0.33922542  0.90510255  1
  H+  H243  1  0.91312250  0.28269185  0.65849709  1
  H+  H244  1  0.87217753  0.73067887  0.49398207  1
  H+  H245  1  0.36814698  0.64338839  0.81598772  1
  H+  H246  1  0.61342472  0.47704838  0.31892670  1
  H+  H247  1  0.58498799  0.42372975  0.75520841  1
  H+  H248  1  0.02062389  0.87627905  0.83211183  1
  H+  H249  1  0.64706754  0.29397139  0.66608982  1
  H+  H250  1  0.47528522  0.61587669  0.83686549  1
  H+  H251  1  0.35628188  0.48519331  0.83175523  1
  H+  H252  1  0.36484269  0.89861670  0.68034041  1
  H+  H253  1  0.36902730  0.72192668  0.15589043  1
  H+  H254  1  0.65988090  0.28989708  0.84236573  1
  H+  H255  1  0.13378368  0.73361222  0.33141174  1
  H+  H256  1  0.92211818  0.61425731  0.91329662  1
  H+  H257  1  0.51688706  0.14038946  0.64629735  1
  H+  H258  1  0.14102021  0.27102210  0.33683482  1
  H+  H259  1  0.36852057  -0.01029345  0.83597639  1
  H+  H260  1  0.88107785  0.09555277  0.99542337  1
  H+  H261  1  0.10390689  0.23445203  1.01454024  1
  H+  H262  1  0.35771556  0.12080622  0.49088784  1
  H+  H263  1  0.63064701  0.79791086  0.33048880  1
  H+  H264  1  0.60422890  0.21679717  0.16408212  1
  H+  H265  1  0.28672182  0.67655744  0.38583193  1
  H+  H266  1  0.79121029  0.15490608  0.66832874  1
  H+  H267  1  0.63612723  0.36138044  0.16879057  1
  H+  H268  1  0.90688478  0.58046216  0.23475662  1
  H+  H269  1  0.86607014  0.47637213  0.49740491  1
  H+  H270  1  0.89574913  0.53285853  0.32879630  1
  H+  H271  1  0.97980834  0.36595838  0.33690999  1
  H+  H272  1  0.72259398  0.61654241  0.84483447  1
  H+  H273  1  0.62399929  0.99941016  0.34625126  1
  H+  H274  1  0.60600835  0.12862558  0.16637438  1
  H+  H275  1  0.59167361  0.21527427  0.92100750  1
  H+  H276  1  0.85992398  0.49501731  0.17182402  1
  H+  H277  1  0.10734557  0.38012429  0.82822682  1
  H+  H278  1  0.20432407  0.68698304  0.19896023  1
  H+  H279  1  0.12197033  0.39288916  0.47589285  1
  H+  H280  1  -0.02683405  0.64130921  -0.00189125  1
  H+  H281  1  0.97708600  0.10693225  0.66500053  1
  H+  H282  1  0.64531206  -0.02011391  0.83400332  1
  H+  H283  1  0.26309697  0.12135205  0.16291403  1
  H+  H284  1  0.35098571  0.67363678  0.62835780  1
  H+  H285  1  0.63780213  0.36731435  0.31651730  1
  H+  H286  1  -0.02315945  0.11650391  0.84203979  1
  H+  H287  1  0.46021118  0.40014231  0.86842539  1
  H+  H288  1  0.32833182  0.41511049  0.74091943  1
  H+  H289  1  0.86982233  0.77046262  1.00664472  1
  H+  H290  1  0.85962681  0.70870809  0.10075507  1
  H+  H291  1  0.52337304  0.12611664  0.49479930  1
  H+  H292  1  0.12057859  0.15362251  0.16763940  1
  H+  H293  1  0.84521207  0.17111420  0.72953498  1
  H+  H294  1  0.82271943  0.16531777  0.05859839  1
  H+  H295  1  0.66004396  0.84940862  0.26586087  1
  H+  H296  1  0.08902536  0.67172328  0.43113877  1
  H+  H297  1  0.93494374  0.58952671  0.59505132  1
  H+  H298  1  0.38810545  0.61361992  0.17919611  1
  H+  H299  1  0.31716912  0.15247716  0.39836222  1
  H+  H300  1  0.88959041  0.65459924  0.00282447  1
  H+  H301  1  0.07892786  0.15360209  0.74706071  1
  H+  H302  1  0.12474657  0.23408125  0.84681737  1
  H+  H303  1  0.91437197  0.32870164  0.92762959  1
  H+  H304  1  0.41369766  0.07455955  0.56424727  1
  H+  H305  1  0.08545651  0.18327580  0.11263092  1
  H+  H306  1  0.60145328  0.20073971  0.76050703  1
  H+  H307  1  0.58732679  0.67762550  0.06956964  1
  H+  H308  1  0.15875515  0.58298989  0.56463179  1
  H+  H309  1  0.42032182  0.59829856  0.24251924  1
  H+  H310  1  0.48012802  0.71911910  0.96137106  1
  H+  H311  1  0.91558426  0.07821274  0.93477782  1
  H+  H312  1  0.13476095  0.28609880  0.17829126  1
  H+  H313  1  0.38837951  0.27934450  0.65725277  1
  H+  H314  1  0.67922679  0.34690146  0.60749983  1
  H+  H315  1  0.91042129  0.33560579  0.23381298  1
  H+  H316  1  0.99245199  0.62047415  0.65971143  1
  H+  H317  1  0.34168135  0.17096308  0.73284399  1
  H+  H318  1  0.34308191  0.71256294  0.01367748  1
  H+  H319  1  0.92171658  0.08184340  0.56760020  1
  H+  H320  1  0.34140178  0.91241993  0.43762989  1
  H+  H321  1  0.58853960  0.41919685  0.09802539  1
  H+  H322  1  0.06286644  0.77941802  0.21286698  1
  H+  H323  1  0.60754023  0.93761044  0.41163937  1
  H+  H324  1  0.22314538  0.86472296  0.99611327  1
  H+  H325  1  0.62577895  0.83842877  0.93120650  1
  H+  H326  1  0.89641272  0.36465307  0.50252080  1
  H+  H327  1  0.40209160  0.45997759  0.39625311  1
  H+  H328  1  0.83030721  0.42489209  0.40137426  1
  H+  H329  1  0.64419404  0.20467967  0.75339268  1
  H+  H330  1  0.05794666  0.29920707  0.56156819  1
  H+  H331  1  0.83308602  0.66343279  0.43796378  1
  H+  H332  1  0.86777415  0.63406632  0.34236291  1
  H+  H333  1  0.58129043  0.67186439  0.76864905  1
  H+  H334  1  0.32878568  0.65396929  0.09974286  1
  H+  H335  1  0.45734251  0.10702290  1.00405801  1
  H+  H336  1  0.69083097  0.58600965  0.21644371  1
  H+  H337  1  0.41095408  0.32182944  0.22148143  1
  H+  H338  1  0.57987634  0.41524599  0.37671218  1
  H+  H339  1  0.58271491  0.16768472  0.43521393  1
  H+  H340  1  0.63607089  0.02567086  0.17717226  1
  H+  H341  1  0.86730973  0.40983345  -0.03929351  1
  H+  H342  1  0.66624623  0.33197538  0.22879883  1
  H+  H343  1  0.08042060  0.66570142  0.73960602  1
  H+  H344  1  0.04515846  0.25257273  0.56167824  1
  H+  H345  1  0.56540634  0.16250357  0.07293229  1
  H+  H346  1  0.94312564  0.34182843  0.59966819  1
  H+  H347  1  0.59291666  -0.00139203  1.00292771  1
  H+  H348  1  0.86122014  0.39416085  0.16782042  1
  H+  H349  1  0.08538075  0.42451930  0.42365356  1
  H+  H350  1  0.92108582  0.83312575  0.56529201  1
  H+  H351  1  0.15482720  0.06791944  0.23016515  1
  H+  H352  1  0.07199990  0.15502495  0.38878857  1
  H+  H353  1  0.09244638  0.42029543  0.73651871  1
  H+  H354  1  0.85515374  0.22910570  0.15534572  1
  H+  H355  1  0.46675082  0.28234711  0.96573939  1
  H+  H356  1  0.66543319  0.59250079  0.93893935  1
  H+  H357  1  0.85482860  0.81037675  0.21841222  1
  H+  H358  1  0.10853294  0.91541351  0.40699405  1
  H+  H359  1  0.68000741  0.07066889  0.92002175  1
  H+  H360  1  0.41460623  0.82765587  0.22519076  1
  H+  H361  1  0.40080790  0.81037715  0.93957226  1
  H+  H362  1  0.16517199  0.08019431  0.60956836  1
  H+  H363  1  0.88809865  0.86140282  0.65803038  1
  H+  H364  1  0.52548309  0.40206596  0.01029272  1
  H+  H365  1  0.17915450  0.84040378  0.90235970  1
  H+  H366  1  0.41455249  0.59483905  0.58323621  1
  H+  H367  1  0.88165784  0.05587246  0.21483186  1
  H+  H368  1  0.07862468  0.90275623  0.73508068  1
  H+  H369  1  0.68172386  0.35180458  0.94164741  1
  H+  H370  1  0.35014623  0.68268767  0.75712398  1
  H+  H371  1  0.85174850  0.43963204  0.72671805  1
  H+  H372  1  0.63965007  0.87259828  0.17292855  1
  H+  H373  1  0.32742937  0.41694097  0.06475791  1
  H+  H374  1  0.57612576  0.68783271  0.44943257  1
  H+  H375  1  0.64390603  -0.00194655  0.49082942  1
  H+  H376  1  0.17604046  0.06807118  0.92578385  1
  H+  H377  1  0.67850716  0.61049479  0.61277578  1
  H+  H378  1  0.58782789  0.22631270  1.01640375  1
  H+  H379  1  0.31171596  0.15042126  0.06925760  1
  H+  H380  1  0.83803420  0.92014744  0.43083307  1
  H+  H381  1  0.69038325  0.10780897  0.55833219  1
  H+  H382  1  0.84069680  0.92563630  0.76530946  1
  H+  H383  1  0.43891744  0.48806261  0.41675070  1
  O2-  O384  1  0.09496967  0.18919541  0.15765927  1
  O2-  O385  1  0.08664111  0.15983683  0.47164044  1
  O2-  O386  1  0.09767942  0.16880775  0.84132465  1
  O2-  O387  1  0.07064933  0.41356267  0.14866553  1
  O2-  O388  1  0.08722735  0.42141238  0.46889705  1
  O2-  O389  1  0.07872377  0.41013277  0.80972641  1
  O2-  O390  1  0.07875417  0.67160960  0.12308438  1
  O2-  O391  1  0.08402877  0.66903222  0.47622973  1
  O2-  O392  1  0.07897878  0.66413758  0.81752713  1
  O2-  O393  1  0.06630442  0.90473328  0.13788741  1
  O2-  O394  1  0.09604213  0.91482038  0.48481805  1
  O2-  O395  1  0.07957939  0.89884558  0.81402851  1
  O2-  O396  1  0.32363180  0.14973732  0.14634610  1
  O2-  O397  1  0.32185871  0.14500215  0.47601893  1
  O2-  O398  1  0.35135322  0.17064645  0.81489885  1
  O2-  O399  1  0.33392423  0.42183556  0.14701707  1
  O2-  O400  1  0.34334407  0.41672559  0.52600006  1
  O2-  O401  1  0.32248653  0.42380877  0.81676425  1
  O2-  O402  1  0.33442457  0.65884196  0.14625775  1
  O2-  O403  1  0.36571674  0.72891411  0.50567672  1
  O2-  O404  1  0.34555434  0.68043471  0.80124753  1
  O2-  O405  1  0.31455059  0.89943462  0.15721454  1
  O2-  O406  1  0.34345598  0.90634909  0.48261304  1
  O2-  O407  1  0.33202156  0.93016274  0.81673838  1
  O2-  O408  1  0.57153355  0.15553804  0.15180958  1
  O2-  O409  1  0.58478729  0.16207194  0.48061979  1
  O2-  O410  1  0.59528496  0.17625521  0.89141668  1
  O2-  O411  1  0.58825707  0.41700379  0.14355373  1
  O2-  O412  1  0.60737941  0.40122550  0.45590856  1
  O2-  O413  1  0.58767115  0.41869805  0.80092422  1
  O2-  O414  1  0.58868210  0.67208446  0.14941406  1
  O2-  O415  1  0.57880321  0.68615488  0.49464646  1
  O2-  O416  1  0.58070603  0.67372035  0.81423657  1
  O2-  O417  1  0.58685695  0.92981652  0.14390089  1
  O2-  O418  1  0.61411239  0.93858830  0.47499036  1
  O2-  O419  1  0.59077274  0.87011940  0.82629919  1
  O2-  O420  1  0.82203041  0.17147477  0.13738755  1
  O2-  O421  1  0.85418349  0.17509152  0.48742798  1
  O2-  O422  1  0.83677298  0.16210157  0.80376035  1
  O2-  O423  1  0.82941354  0.42417484  0.15363801  1
  O2-  O424  1  0.83576357  0.41598436  0.48115052  1
  O2-  O425  1  0.85192924  0.42472821  0.79909777  1
  O2-  O426  1  0.85881317  0.69069357  0.14479028  1
  O2-  O427  1  0.83603784  0.66795943  0.48344571  1
  O2-  O428  1  0.82647829  0.66784071  0.82722083  1
  O2-  O429  1  0.82292330  0.83303814  0.24232196  1
  O2-  O430  1  0.84375850  0.92272126  0.47597834  1
  O2-  O431  1  0.84401698  0.93294777  0.81002627  1
  O2-  O432  1  0.16093645  0.07301611  0.18513596  1
  O2-  O433  1  0.16505397  0.07816275  0.52964259  1
  O2-  O434  1  0.17929852  0.06981398  0.83996223  1
  O2-  O435  1  0.16031325  0.34945460  0.18932646  1
  O2-  O436  1  0.18003991  0.33752362  0.46816318  1
  O2-  O437  1  0.16042343  0.33253436  0.85884906  1
  O2-  O438  1  0.18860407  0.62874672  0.18678682  1
  O2-  O439  1  0.15872027  0.58605804  0.51976936  1
  O2-  O440  1  0.15034681  0.56694397  0.86735508  1
  O2-  O441  1  0.12376719  0.81042413  0.20211593  1
  O2-  O442  1  0.17825347  0.82996797  0.52680987  1
  O2-  O443  1  0.18278338  0.84017056  0.85546848  1
  O2-  O444  1  0.40710781  0.06946219  0.18801669  1
  O2-  O445  1  0.41987392  0.07391596  0.51914835  1
  O2-  O446  1  0.42004970  0.08068565  0.86827455  1
  O2-  O447  1  0.41122325  0.32513207  0.17621226  1
  O2-  O448  1  0.40781616  0.31713236  0.47114832  1
  O2-  O449  1  0.40675101  0.34511915  0.86728168  1
  O2-  O450  1  0.41920258  0.58637924  0.19865231  1
  O2-  O451  1  0.41347514  0.60097734  0.53825836  1
  O2-  O452  1  0.41468881  0.58700898  0.85192190  1
  O2-  O453  1  0.41555056  0.82504619  0.17964863  1
  O2-  O454  1  0.42085708  0.81824366  0.52673863  1
  O2-  O455  1  0.42411004  0.82439098  0.86698105  1
  O2-  O456  1  0.66362112  0.08670085  0.19226802  1
  O2-  O457  1  0.69424629  0.10650283  0.51293516  1
  O2-  O458  1  0.67127707  0.04359342  0.83738278  1
  O2-  O459  1  0.66629350  0.33032616  0.18348148  1
  O2-  O460  1  0.66413189  0.31569065  0.53123840  1
  O2-  O461  1  0.69275565  0.35282517  0.83946500  1
  O2-  O462  1  0.68465247  0.59073935  0.17204989  1
  O2-  O463  1  0.68652724  0.62768255  0.53257558  1
  O2-  O464  1  0.65993784  0.58708687  0.85677102  1
  O2-  O465  1  0.66177555  0.84065683  0.19637765  1
  O2-  O466  1  0.68355176  0.85151908  0.52520084  1
  O2-  O467  1  0.64669581  0.83832798  0.84866562  1
  O2-  O468  1  0.85773147  0.03494705  0.17425371  1
  O2-  O469  1  0.91973839  0.08575929  0.52197182  1
  O2-  O470  1  0.91550644  0.08673959  0.85277844  1
  O2-  O471  1  0.91038943  0.34198700  0.18978543  1
  O2-  O472  1  0.92863777  0.33498268  0.51388330  1
  O2-  O473  1  0.91498885  0.32522880  0.84767021  1
  O2-  O474  1  0.89697682  0.57076578  0.18988747  1
  O2-  O475  1  0.92303768  0.58254785  0.51989788  1
  O2-  O476  1  0.91801445  0.58427745  0.87309627  1
  O2-  O477  1  0.91139888  0.77065369  0.17924866  1
  O2-  O478  1  0.92429185  0.83382820  0.51944974  1
  O2-  O479  1  0.91818559  0.84205791  0.85785582  1
  O2-  O480  1  0.15271857  0.07209075  0.30939617  1
  O2-  O481  1  0.16767260  0.07900690  0.65496068  1
  O2-  O482  1  0.17090247  0.07393317  0.96979432  1
  O2-  O483  1  0.17380177  0.33431268  0.34543895  1
  O2-  O484  1  0.16195322  0.32465785  0.66436930  1
  O2-  O485  1  0.16128571  0.33995832  0.97690705  1
  O2-  O486  1  0.16156245  0.57058695  0.29918525  1
  O2-  O487  1  0.16718257  0.58606350  0.64874060  1
  O2-  O488  1  0.15471489  0.57281821  0.98512933  1
  O2-  O489  1  0.20285137  0.82444941  0.30103575  1
  O2-  O490  1  0.17290472  0.83180356  0.65193179  1
  O2-  O491  1  0.16694972  0.83644968  0.97169116  1
  O2-  O492  1  0.43797001  0.13457257  0.29666423  1
  O2-  O493  1  0.41221578  0.08453044  0.64295802  1
  O2-  O494  1  0.39773721  0.07263121  0.98592096  1
  O2-  O495  1  0.40677699  0.32113065  0.30029725  1
  O2-  O496  1  0.41628636  0.34003825  0.64354528  1
  O2-  O497  1  0.42417172  0.29838230  0.97728360  1
  O2-  O498  1  0.41595185  0.60890958  0.33001366  1
  O2-  O499  1  0.40804752  0.57543978  0.66147298  1
  O2-  O500  1  0.44724201  0.65607134  0.96580261  1
  O2-  O501  1  0.40484962  0.83661806  0.29981986  1
  O2-  O502  1  0.41784257  0.84785067  0.65082472  1
  O2-  O503  1  0.38908346  0.80201253  0.98452047  1
  O2-  O504  1  0.66415392  0.08770208  0.31795193  1
  O2-  O505  1  0.68285065  0.11053931  0.63454130  1
  O2-  O506  1  0.67030606  0.09454355  0.95747055  1
  O2-  O507  1  0.66932109  0.33576436  0.30816369  1
  O2-  O508  1  0.67770988  0.35431425  0.65216769  1
  O2-  O509  1  0.62897543  0.32153966  0.96584943  1
  O2-  O510  1  0.68790842  0.58140618  0.29600491  1
  O2-  O511  1  0.66681928  0.59799218  0.65666864  1
  O2-  O512  1  0.66707172  0.59309645  0.98412717  1
  O2-  O513  1  0.66241960  0.85613551  0.31270674  1
  O2-  O514  1  0.66573572  0.83391846  0.64750028  1
  O2-  O515  1  0.59840718  0.82865449  0.97158448  1
  O2-  O516  1  0.90510791  0.08117480  0.30170243  1
  O2-  O517  1  0.92027455  0.08117484  0.64453852  1
  O2-  O518  1  0.91698915  0.07247261  0.97954523  1
  O2-  O519  1  0.91459087  0.33858883  0.33747599  1
  O2-  O520  1  0.94737630  0.34295472  0.64424398  1
  O2-  O521  1  0.90811422  0.33404768  0.97211762  1
  O2-  O522  1  0.92414942  0.59155241  0.31074904  1
  O2-  O523  1  0.93283404  0.58947015  0.64088261  1
  O2-  O524  1  0.91140606  0.61697947  0.98708462  1
  O2-  O525  1  0.93058395  0.82454771  0.35612965  1
  O2-  O526  1  0.91686559  0.82984632  0.64231800  1
  O2-  O527  1  0.92108370  0.85986352  0.97861769  1
  O2-  O528  1  0.07695780  0.17887688  0.03601980  1
  O2-  O529  1  0.07484087  0.16237140  0.34393203  1
  O2-  O530  1  0.08085214  0.15767318  0.70260925  1
  O2-  O531  1  0.07048278  0.41077595  0.02094734  1
  O2-  O532  1  0.07980390  0.41024785  0.34472719  1
  O2-  O533  1  0.10102827  0.42336081  0.69087418  1
  O2-  O534  1  0.07816437  0.66953489  0.00423535  1
  O2-  O535  1  0.09223961  0.67341015  0.34834336  1
  O2-  O536  1  0.08421613  0.66623619  0.69399167  1
  O2-  O537  1  0.08067436  0.91319319  0.01403974  1
  O2-  O538  1  0.10509422  0.91394025  0.36143153  1
  O2-  O539  1  0.08192751  0.90675257  0.68962670  1
  O2-  O540  1  0.31606351  0.15489794  0.02392851  1
  O2-  O541  1  0.31679973  0.16088073  0.35327713  1
  O2-  O542  1  0.33699251  0.17023374  0.68788425  1
  O2-  O543  1  0.32465960  0.41227616  0.01976614  1
  O2-  O544  1  0.33690520  0.42749102  0.29715544  1
  O2-  O545  1  0.32949229  0.41252920  0.69529780  1
  O2-  O546  1  0.31755710  0.65079878  0.02944779  1
  O2-  O547  1  0.34840081  0.69842744  0.38586581  1
  O2-  O548  1  0.32985757  0.67652619  0.66863755  1
  O2-  O549  1  0.31002925  0.90881729  0.03046562  1
  O2-  O550  1  0.34294480  0.93268673  0.36000922  1
  O2-  O551  1  0.33283715  0.92633573  0.69684977  1
  O2-  O552  1  0.55473942  0.16586006  0.02903744  1
  O2-  O553  1  0.58697160  0.17731499  0.35937686  1
  O2-  O554  1  0.58090526  0.17747648  0.63879832  1
  O2-  O555  1  0.58656671  0.43060803  0.02136945  1
  O2-  O556  1  0.57804894  0.41574308  0.33198969  1
  O2-  O557  1  0.57989897  0.42735319  0.68022414  1
  O2-  O558  1  0.59205428  0.68127281  0.02442183  1
  O2-  O559  1  0.57503417  0.69732713  0.37112559  1
  O2-  O560  1  0.57717254  0.67161304  0.69202818  1
  O2-  O561  1  0.55934486  0.94302899  0.02459213  1
  O2-  O562  1  0.59846275  0.93773006  0.36331929  1
  O2-  O563  1  0.56881248  0.89414684  0.70456377  1
  O2-  O564  1  0.82583836  0.16312302  0.01335685  1
  O2-  O565  1  0.82516299  0.15858017  0.34369471  1
  O2-  O566  1  0.84974421  0.17484505  0.68363332  1
  O2-  O567  1  0.84167089  0.44452688  -0.05357059  1
  O2-  O568  1  0.83095733  0.42764662  0.35600576  1
  O2-  O569  1  0.84624559  0.44623532  0.68153548  1
  O2-  O570  1  0.84113985  0.70987341  0.02658609  1
  O2-  O571  1  0.83128831  0.65726604  0.35867185  1
  O2-  O572  1  0.82944629  0.67211276  0.70827636  1
  O2-  O573  1  0.88192348  0.90228853  0.01228273  1
  O2-  O574  1  0.82887490  0.91814113  0.34864920  1
  O2-  O575  1  0.83456514  0.91268984  0.68427830  1
