# generated using pymatgen
data_H2O
_symmetry_space_group_name_H-M   'P 1'
_cell_length_a   17.99668630
_cell_length_b   17.99118047
_cell_length_c   22.00733536
_cell_angle_alpha   89.99645769
_cell_angle_beta   90.00731364
_cell_angle_gamma   119.99447484
_symmetry_Int_Tables_number   1
_chemical_formula_structural   H2O
_chemical_formula_sum   'H384 O192'
_cell_volume   6171.26893773
_cell_formula_units_Z   192
loop_
 _symmetry_equiv_pos_site_id
 _symmetry_equiv_pos_as_xyz
  1  'x, y, z'
loop_
 _atom_type_symbol
 _atom_type_oxidation_number
  H+  1.0
  O2-  -2.0
loop_
 _atom_site_type_symbol
 _atom_site_label
 _atom_site_symmetry_multiplicity
 _atom_site_fract_x
 _atom_site_fract_y
 _atom_site_fract_z
 _atom_site_occupancy
  H+  H0  1  0.22507845  0.89132450  0.34576726  1
  H+  H1  1  0.50856941  0.87086964  0.82056197  1
  H+  H2  1  0.77587016  0.64424413  0.82285265  1
  H+  H3  1  0.44206374  0.77776420  0.30390741  1
  H+  H4  1  0.85562552  0.72377675  0.01242533  1
  H+  H5  1  0.85776887  0.73134311  0.16382932  1
  H+  H6  1  0.41457555  0.84032566  0.93438161  1
  H+  H7  1  0.37520856  0.01252252  0.66886294  1
  H+  H8  1  0.72406961  0.86442214  0.83016741  1
  H+  H9  1  0.77556251  0.38738392  0.50012821  1
  H+  H10  1  0.35502455  0.69793243  0.19775541  1
  H+  H11  1  0.11304888  0.13115928  0.82218878  1
  H+  H12  1  0.60340676  0.14013975  0.67581875  1
  H+  H13  1  0.21523159  0.60033415  0.33000186  1
  H+  H14  1  0.00641673  0.61135243  0.34537525  1
  H+  H15  1  0.72743896  0.37184965  0.31828826  1
  H+  H16  1  0.08656038  0.72911949  0.31390200  1
  H+  H17  1  0.62516962  0.90785364  0.16067902  1
  H+  H18  1  0.86238890  0.38896033  0.16367725  1
  H+  H19  1  0.12137458  0.86258758  0.82083334  1
  H+  H20  1  0.85310490  0.11949233  0.15928342  1
  H+  H21  1  0.25747711  0.87626446  0.15203467  1
  H+  H22  1  0.90006439  0.06447167  0.26457703  1
  H+  H23  1  0.12201222  0.54951509  0.98434255  1
  H+  H24  1  0.02086923  0.75085631  0.28427040  1
  H+  H25  1  0.96758568  0.61339376  0.17584338  1
  H+  H26  1  0.11654911  0.47902032  0.50250727  1
  H+  H27  1  0.10376102  0.37626129  0.34573774  1
  H+  H28  1  0.87700701  0.60663254  0.33325744  1
  H+  H29  1  0.63519447  0.52430992  0.32469990  1
  H+  H30  1  0.61050498  0.63494186  0.67480012  1
  H+  H31  1  0.23817467  0.37250831  0.50992105  1
  H+  H32  1  0.13125954  0.52742427  0.83487545  1
  H+  H33  1  0.53868295  0.14780425  0.16014995  1
  H+  H34  1  0.59745154  0.74518814  0.02224512  1
  H+  H35  1  0.27126207  0.64150630  0.68263281  1
  H+  H36  1  0.37622920  0.38945842  0.51117028  1
  H+  H37  1  0.52095918  0.63341261  0.67329643  1
  H+  H38  1  0.51693609  0.14424726  0.67728469  1
  H+  H39  1  0.86775235  0.23114651  0.49621422  1
  H+  H40  1  0.62523258  0.14425217  0.50170532  1
  H+  H41  1  0.64546274  0.03966061  0.66892259  1
  H+  H42  1  0.33307474  0.40408481  0.77583237  1
  H+  H43  1  0.64089636  0.27751511  0.84442103  1
  H+  H44  1  0.86937167  0.14358785  0.82549113  1
  H+  H45  1  0.61277608  0.39542556  0.14983521  1
  H+  H46  1  0.38395081  0.03436658  0.99090479  1
  H+  H47  1  0.01521989  0.61822187  0.08255454  1
  H+  H48  1  0.48752603  0.60684267  0.50494413  1
  H+  H49  1  0.08324233  0.41738990  0.44396330  1
  H+  H50  1  0.36441770  0.89566440  -0.00062844  1
  H+  H51  1  0.10533073  0.48418387  0.67977809  1
  H+  H52  1  0.63828208  0.77586132  0.66700135  1
  H+  H53  1  0.53070263  0.13081402  0.30100808  1
  H+  H54  1  0.71911750  0.13615650  0.66542343  1
  H+  H55  1  0.10649328  0.87658269  0.15011924  1
  H+  H56  1  0.87028043  0.83655880  0.95165534  1
  H+  H57  1  0.22517718  0.61278758  0.83824029  1
  H+  H58  1  0.11815702  0.73397281  0.67838175  1
  H+  H59  1  0.64096268  0.36450865  0.51593977  1
  H+  H60  1  -0.02192133  0.11461141  0.83211633  1
  H+  H61  1  0.24953250  0.13706820  0.50984427  1
  H+  H62  1  0.86524200  0.22628040  0.33585377  1
  H+  H63  1  0.11121318  0.75606052  0.15161515  1
  H+  H64  1  0.33892625  0.92111993  0.73848905  1
  H+  H65  1  0.87331277  0.96226432  0.66124763  1
  H+  H66  1  0.95366130  0.07762915  0.16669401  1
  H+  H67  1  0.35687779  0.15060091  0.31555359  1
  H+  H68  1  0.12384353  -0.02306990  0.66996855  1
  H+  H69  1  0.31754975  0.71956181  0.36641682  1
  H+  H70  1  0.73758957  0.12403196  0.17554206  1
  H+  H71  1  0.12891564  0.18849708  0.02688560  1
  H+  H72  1  0.89263058  0.76714390  0.66627551  1
  H+  H73  1  0.03460438  0.88559992  0.67239122  1
  H+  H74  1  0.96165973  0.10501580  0.32363734  1
  H+  H75  1  0.83125783  0.41520620  0.43896365  1
  H+  H76  1  0.48149102  0.36205319  0.67585752  1
  H+  H77  1  0.70936475  0.84907125  1.00339115  1
  H+  H78  1  0.21946265  0.38641138  0.28200139  1
  H+  H79  1  0.15636269  0.57159520  0.26883187  1
  H+  H80  1  0.13782410  0.04306181  0.32554628  1
  H+  H81  1  0.68925799  0.64111330  1.04490218  1
  H+  H82  1  0.63693443  0.27917803  0.66708363  1
  H+  H83  1  0.64295000  0.78075098  0.32798665  1
  H+  H84  1  0.53304788  0.13621065  0.50229822  1
  H+  H85  1  0.08474658  0.22245333  0.33859252  1
  H+  H86  1  0.77236539  0.39481028  0.68045062  1
  H+  H87  1  0.87652304  0.87312909  0.84779013  1
  H+  H88  1  0.11242173  0.10003068  0.00353027  1
  H+  H89  1  0.52610002  0.39053227  0.51926966  1
  H+  H90  1  0.92362627  0.52405974  0.85700127  1
  H+  H91  1  0.59631169  0.86492134  0.82092937  1
  H+  H92  1  0.36996726  0.72067137  0.50140764  1
  H+  H93  1  0.23126254  0.11372441  0.67434436  1
  H+  H94  1  0.34824241  0.38672889  0.14030335  1
  H+  H95  1  -0.02679980  0.86089475  0.32677394  1
  H+  H96  1  0.75335338  0.12213104  0.32668265  1
  H+  H97  1  0.63634343  0.27399990  0.99716422  1
  H+  H98  1  0.64617618  0.38360179  0.30884292  1
  H+  H99  1  0.36269688  0.63439990  0.83120799  1
  H+  H100  1  0.64950265  0.52979459  0.52506838  1
  H+  H101  1  0.42926791  0.08761723  0.20251673  1
  H+  H102  1  0.91749102  0.62008161  1.01807707  1
  H+  H103  1  -0.03065828  0.35653974  0.32885025  1
  H+  H104  1  0.86025537  0.72434115  0.34342434  1
  H+  H105  1  0.38017840  0.48149969  0.51029752  1
  H+  H106  1  -0.00799484  0.12556514  0.50230437  1
  H+  H107  1  0.39861888  0.55192584  0.34629142  1
  H+  H108  1  0.61352795  -0.01127035  0.49953435  1
  H+  H109  1  0.77740485  0.63727586  0.50359900  1
  H+  H110  1  0.07449394  0.42270037  0.76744209  1
  H+  H111  1  0.46159075  0.62802324  0.99700910  1
  H+  H112  1  0.72162404  0.61703715  0.16950024  1
  H+  H113  1  0.22702865  0.11043383  0.82555516  1
  H+  H114  1  0.24495895  0.89747356  0.31436655  1
  H+  H115  1  0.11290537  0.42108009  0.99866897  1
  H+  H116  1  0.39714150  0.59340315  0.18694970  1
  H+  H117  1  0.63810778  0.61016342  0.83825430  1
  H+  H118  1  0.28179959  0.88653722  0.67793702  1
  H+  H119  1  0.36649753  0.32087968  0.31006263  1
  H+  H120  1  0.12696359  0.87513595  1.00858150  1
  H+  H121  1  0.32050743  0.65473343  0.41134096  1
  H+  H122  1  0.12753435  0.30853881  0.98992281  1
  H+  H123  1  0.09806505  0.91681050  0.07464083  1
  H+  H124  1  0.59875528  0.37438759  0.00205798  1
  H+  H125  1  0.59204013  0.16653500  0.40520106  1
  H+  H126  1  0.39257934  0.36308812  0.67827343  1
  H+  H127  1  0.02087841  0.62528809  0.49707686  1
  H+  H128  1  0.10891211  0.68796633  0.08132898  1
  H+  H129  1  0.64104584  0.27497260  0.51270945  1
  H+  H130  1  0.73579547  0.12937213  0.84942044  1
  H+  H131  1  0.52496497  0.63754061  0.17415826  1
  H+  H132  1  0.86426546  0.38566929  0.83464777  1
  H+  H133  1  0.12102322  0.60105164  0.16230402  1
  H+  H134  1  0.60392582  0.92877403  0.74059887  1
  H+  H135  1  -0.02119909  0.85611196  0.51198875  1
  H+  H136  1  0.67311166  0.35034629  0.22026362  1
  H+  H137  1  0.42283748  0.82449884  0.61263629  1
  H+  H138  1  0.61762174  0.38699591  0.82475062  1
  H+  H139  1  0.73926586  0.51365901  0.94046333  1
  H+  H140  1  0.37322271  0.85803880  0.84372886  1
  H+  H141  1  0.12454202  0.91308532  0.76055459  1
  H+  H142  1  0.39317738  0.11877090  0.83316092  1
  H+  H143  1  0.09611122  0.68575065  0.74093238  1
  H+  H144  1  0.64647859  0.12772203  0.84810576  1
  H+  H145  1  0.49828543  0.89466504  0.16606949  1
  H+  H146  1  0.97962405  0.36918360  0.84549286  1
  H+  H147  1  0.88736666  0.75663516  0.51479747  1
  H+  H148  1  0.85808689  0.64187365  0.16773752  1
  H+  H149  1  0.15505241  0.26773177  0.65976630  1
  H+  H150  1  0.64388773  0.28619946  0.16338513  1
  H+  H151  1  0.62760476  -0.00124794  0.16328874  1
  H+  H152  1  0.21012999  0.60418078  0.17331415  1
  H+  H153  1  0.78022217  0.87736310  0.66959180  1
  H+  H154  1  0.65591765  0.87305701  0.67154502  1
  H+  H155  1  0.13842749  0.62256317  0.66784986  1
  H+  H156  1  0.76194072  0.59182824  0.98363533  1
  H+  H157  1  0.35427365  0.48700719  0.99543218  1
  H+  H158  1  0.15662738  0.01347357  0.82913075  1
  H+  H159  1  0.23309814  0.85832930  -0.01527589  1
  H+  H160  1  0.61550557  0.39224888  0.67375441  1
  H+  H161  1  0.72836531  0.61809473  0.67244681  1
  H+  H162  1  0.50875561  0.39426667  0.32809222  1
  H+  H163  1  0.38157609  0.78223005  -0.00666464  1
  H+  H164  1  0.40144938  1.02843635  0.36128556  1
  H+  H165  1  0.63478557  0.90098463  0.34210184  1
  H+  H166  1  0.47298051  0.37545783  0.15882768  1
  H+  H167  1  0.85539364  0.25441379  0.67616400  1
  H+  H168  1  0.88386665  0.36394607  0.99760131  1
  H+  H169  1  0.25085855  0.64194492  -0.01670029  1
  H+  H170  1  0.63869813  0.14614368  0.35255759  1
  H+  H171  1  0.22912116  0.18793460  0.32712822  1
  H+  H172  1  0.10613646  0.46553673  0.34189069  1
  H+  H173  1  0.10992283  0.39148595  0.82302767  1
  H+  H174  1  0.23589872  0.11025354  0.98225570  1
  H+  H175  1  0.86750704  -0.01643053  0.81971817  1
  H+  H176  1  0.27325606  0.87794186  0.49973188  1
  H+  H177  1  0.90253424  0.08902644  0.65180328  1
  H+  H178  1  0.03483638  0.12717090  0.66551168  1
  H+  H179  1  0.61734027  0.63572340  0.16006110  1
  H+  H180  1  0.90440053  0.52628115  0.01890736  1
  H+  H181  1  0.15352424  0.69722261  -0.01287958  1
  H+  H182  1  0.52467160  0.14069284  0.00934126  1
  H+  H183  1  0.09754233  0.61384251  0.34113984  1
  H+  H184  1  0.48049368  0.86070371  0.51343409  1
  H+  H185  1  0.10238976  0.88512576  0.48243919  1
  H+  H186  1  0.86364500  0.13360164  0.33520290  1
  H+  H187  1  0.36109646  0.24308732  -0.00672444  1
  H+  H188  1  0.85790210  0.73632008  0.83000023  1
  H+  H189  1  0.86278717  0.96986414  0.33796297  1
  H+  H190  1  0.11672255  0.75389432  0.50438738  1
  H+  H191  1  0.39194617  0.63538438  0.33740526  1
  H+  H192  1  0.40195744  0.27605971  0.52684907  1
  H+  H193  1  0.36863360  0.61048482  0.67083275  1
  H+  H194  1  0.63080776  0.87086608  0.00659560  1
  H+  H195  1  0.84762088  0.89716440  0.04908915  1
  H+  H196  1  0.39140424  0.51878839  0.84269735  1
  H+  H197  1  0.88041217  0.37744893  0.66180749  1
  H+  H198  1  0.35937280  0.98258124  0.83055950  1
  H+  H199  1  0.61418701  0.62100979  0.49462209  1
  H+  H200  1  0.41084226  0.81723764  0.14487389  1
  H+  H201  1  0.64969753  0.59750773  0.04558309  1
  H+  H202  1  0.01818089  0.40592278  1.00431524  1
  H+  H203  1  0.38825331  0.85059554  0.51983878  1
  H+  H204  1  0.88480636  0.26893197  0.17410415  1
  H+  H205  1  -0.02061579  0.10995153  -0.01196759  1
  H+  H206  1  0.95762893  0.86763617  0.87084573  1
  H+  H207  1  0.70199306  0.98710575  0.72527966  1
  H+  H208  1  0.88833856  0.52166955  0.51253454  1
  H+  H209  1  0.77128314  0.63638607  0.34300885  1
  H+  H210  1  0.14369192  0.10982012  0.66238912  1
  H+  H211  1  0.58873790  0.93247399  0.43895066  1
  H+  H212  1  0.37121773  0.62069433  -0.01849720  1
  H+  H213  1  0.18637488  0.10638432  0.56562395  1
  H+  H214  1  0.01429263  0.39819475  0.67778070  1
  H+  H215  1  0.28546424  0.43096530  0.37318930  1
  H+  H216  1  0.53632995  0.65382042  0.34318509  1
  H+  H217  1  0.90508398  0.57662272  0.27259575  1
  H+  H218  1  0.89255096  0.27772906  0.84636649  1
  H+  H219  1  0.64077985  0.77263433  0.83453489  1
  H+  H220  1  0.77130734  0.38799102  0.00948395  1
  H+  H221  1  0.37921815  0.84512634  0.34882468  1
  H+  H222  1  0.73130824  0.36610035  0.84625553  1
  H+  H223  1  0.35405816  0.89508805  0.15628351  1
  H+  H224  1  0.37674881  0.01780320  0.39051245  1
  H+  H225  1  0.37927019  0.16552874  0.34589138  1
  H+  H226  1  0.38870271  0.12632131  0.99157814  1
  H+  H227  1  0.22406933  0.38639772  -0.01608966  1
  H+  H228  1  0.64896104  0.12868175  0.17801033  1
  H+  H229  1  0.22314479  0.10502897  0.17016673  1
  H+  H230  1  0.27819554  0.37645196  0.68172209  1
  H+  H231  1  0.90100085  0.12083290  0.50729422  1
  H+  H232  1  0.39517966  1.01326346  0.51259177  1
  H+  H233  1  0.38672090  0.13587554  0.50526611  1
  H+  H234  1  0.35443689  0.23484697  0.15678918  1
  H+  H235  1  0.86216039  0.48463337  0.68157905  1
  H+  H236  1  0.23160079  0.61279839  0.51374241  1
  H+  H237  1  0.09823613  0.92675807  0.28370207  1
  H+  H238  1  0.84958662  0.16483751  0.67139162  1
  H+  H239  1  0.89712467  0.12150450  0.98959683  1
  H+  H240  1  0.07450563  0.42028510  0.09325837  1
  H+  H241  1  0.64170719  1.03788601  -0.00448319  1
  H+  H242  1  0.85638022  0.46919711  0.34458124  1
  H+  H243  1  0.77483058  0.39331623  0.15911499  1
  H+  H244  1  0.73543851  0.11933908  0.51350880  1
  H+  H245  1  0.11283857  0.34039420  0.15583428  1
  H+  H246  1  0.22081297  0.35434708  0.83647765  1
  H+  H247  1  0.14198045  0.61275433  0.51017667  1
  H+  H248  1  0.85510387  0.37974397  0.34298622  1
  H+  H249  1  0.54978160  0.90555509  0.33519410  1
  H+  H250  1  0.12575701  0.24040214  0.48829132  1
  H+  H251  1  0.57984172  0.42210023  0.09044901  1
  H+  H252  1  0.62101773  0.64595190  0.33573998  1
  H+  H253  1  0.36214655  0.47004747  0.69136772  1
  H+  H254  1  0.88183361  0.52381895  0.17579132  1
  H+  H255  1  0.65633462  0.79801974  0.17067649  1
  H+  H256  1  0.32461353  0.91845788  0.05631249  1
  H+  H257  1  0.65487597  0.02373027  0.32573003  1
  H+  H258  1  0.12074270  0.89270058  0.33955585  1
  H+  H259  1  0.38792812  0.12965848  0.72684472  1
  H+  H260  1  0.14869198  0.86851204  0.66014441  1
  H+  H261  1  -0.02254651  0.36580984  0.51267621  1
  H+  H262  1  0.10659216  0.11211733  0.32130528  1
  H+  H263  1  0.14744163  0.37156896  0.51093381  1
  H+  H264  1  0.26541496  0.90616665  0.81828088  1
  H+  H265  1  0.35954639  0.23946541  0.70767488  1
  H+  H266  1  0.63235334  0.87063248  0.51385906  1
  H+  H267  1  0.13657120  0.97226477  0.00158700  1
  H+  H268  1  0.88801484  0.36591825  0.50753600  1
  H+  H269  1  0.74753858  0.84454476  0.48899417  1
  H+  H270  1  0.52672418  0.14131649  0.83234530  1
  H+  H271  1  0.97934247  0.61943047  0.67037656  1
  H+  H272  1  0.10383530  0.46626858  0.15733851  1
  H+  H273  1  0.37000864  0.63190187  0.49947258  1
  H+  H274  1  0.21447837  0.30318092  0.31023240  1
  H+  H275  1  0.86755954  0.23074124  0.01247260  1
  H+  H276  1  0.61790516  0.46717951  -0.00517011  1
  H+  H277  1  0.13325450  0.77321685  0.89427826  1
  H+  H278  1  0.46856404  0.37492717  0.97559163  1
  H+  H279  1  0.39557131  0.85918331  0.66976386  1
  H+  H280  1  0.87957908  0.92911699  0.17595344  1
  H+  H281  1  -0.10978483  0.61151034  0.51148273  1
  H+  H282  1  0.97266700  0.87188744  0.17030213  1
  H+  H283  1  0.38096543  0.37759357  -0.02028795  1
  H+  H284  1  0.36539345  0.72821246  0.68205057  1
  H+  H285  1  0.74000182  0.89127745  0.17752641  1
  H+  H286  1  0.86449539  0.64069094  0.68063860  1
  H+  H287  1  0.07251910  0.19221943  0.15115899  1
  H+  H288  1  0.57860051  0.42975461  0.45839277  1
  H+  H289  1  0.58273946  0.66096845  0.76841971  1
  H+  H290  1  0.44091571  0.59759716  0.24983976  1
  H+  H291  1  0.33278919  0.66722380  0.77419291  1
  H+  H292  1  0.67110491  0.84292549  0.26870876  1
  H+  H293  1  0.57401734  0.67163691  0.10256687  1
  H+  H294  1  0.28652602  0.83208264  0.35202108  1
  H+  H295  1  0.84394873  0.91900096  0.76233920  1
  H+  H296  1  0.11419742  0.22149078  0.82303641  1
  H+  H297  1  0.35571681  0.67172726  0.13089020  1
  H+  H298  1  0.83604813  0.18198136  0.77239274  1
  H+  H299  1  0.67621246  0.10206253  0.93820090  1
  H+  H300  1  0.58751655  0.41848968  0.73604620  1
  H+  H301  1  0.38176944  0.35748935  0.87961048  1
  H+  H302  1  0.92509288  0.81943178  0.58365612  1
  H+  H303  1  0.81274850  0.87739203  0.43475328  1
  H+  H304  1  0.61542752  0.14166411  0.00860490  1
  H+  H305  1  0.44703746  0.13171926  0.28910971  1
  H+  H306  1  0.83850390  0.67825287  0.73917586  1
  H+  H307  1  0.07953979  0.79490789  0.54812892  1
  H+  H308  1  0.15419113  0.59560140  0.91838672  1
  H+  H309  1  0.83657462  0.16931083  0.43799491  1
  H+  H310  1  0.12631118  0.79764535  0.21702104  1
  H+  H311  1  0.41852418  0.58485170  0.89761753  1
  H+  H312  1  0.67157643  0.33590736  0.60656620  1
  H+  H313  1  0.55474889  0.36050348  0.37207347  1
  H+  H314  1  0.92243566  0.58789474  0.60960361  1
  H+  H315  1  0.15382719  0.07406892  0.22451824  1
  H+  H316  1  0.29301908  0.64454568  0.04536304  1
  H+  H317  1  0.59410804  0.17187036  0.10084378  1
  H+  H318  1  0.67937750  0.57647929  0.89021377  1
  H+  H319  1  0.91855646  0.84257016  0.23256797  1
  H+  H320  1  0.15726789  0.33541140  0.89112593  1
  H+  H321  1  0.41464738  0.09341376  0.89940902  1
  H+  H322  1  0.06647586  0.92673712  0.43576453  1
  H+  H323  1  0.17444533  0.06797887  0.92380208  1
  H+  H324  1  0.33839697  0.53390848  0.62492038  1
  H+  H325  1  0.17939113  0.83328726  0.60419356  1
  H+  H326  1  0.35854203  0.14786515  0.15118224  1
  H+  H327  1  0.66191435  0.83755613  0.57045231  1
  H+  H328  1  0.35424365  0.44069073  0.42119963  1
  H+  H329  1  0.68308776  0.09168677  0.26238104  1
  H+  H330  1  0.18621673  0.33202408  0.60361771  1
  H+  H331  1  0.97162704  0.35840254  0.17040948  1
  H+  H332  1  0.33317634  0.88225890  0.44580211  1
  H+  H333  1  0.93356356  0.07577104  0.58637156  1
  H+  H334  1  0.37373467  0.18001127  0.44736283  1
  H+  H335  1  0.63158992  0.52668137  0.16347709  1
  H+  H336  1  0.13229116  0.66961153  0.83530202  1
  H+  H337  1  0.83646592  0.42060790  0.77707033  1
  H+  H338  1  0.07317689  0.17060279  0.40055618  1
  H+  H339  1  0.58318251  0.17206769  0.77235893  1
  H+  H340  1  0.40073206  0.41702003  0.31778711  1
  H+  H341  1  0.13090991  0.15436491  0.48838054  1
  H+  H342  1  0.90939498  0.34220300  0.60232969  1
  H+  H343  1  0.83247656  0.66656604  0.44110062  1
  H+  H344  1  0.67251740  0.09246104  0.57241824  1
  H+  H345  1  0.92003266  0.08851413  0.89212889  1
  H+  H346  1  0.58403616  0.93394041  0.06635280  1
  H+  H347  1  0.37573210  0.02927039  0.14763404  1
  H+  H348  1  0.37553975  0.76991435  0.84587560  1
  H+  H349  1  0.42213862  0.06954487  0.57340601  1
  H+  H350  1  0.07699465  0.65224265  0.43546765  1
  H+  H351  1  0.63927227  0.52687903  0.66951639  1
  H+  H352  1  0.66686893  0.33289505  0.93674508  1
  H+  H353  1  0.66441219  0.58124034  0.26461426  1
  H+  H354  1  0.58768369  0.65021547  0.01784628  1
  H+  H355  1  0.42007928  0.33050072  0.58881165  1
  H+  H356  1  0.67967966  0.59535561  0.58003117  1
  H+  H357  1  0.77818451  0.14278740  0.01049275  1
  H+  H358  1  0.41612681  0.36342621  0.21713658  1
  H+  H359  1  0.43810107  0.59850344  0.56903667  1
  H+  H360  1  0.25205528  0.36777018  0.13660940  1
  H+  H361  1  0.33274833  0.18799223  0.05561950  1
  H+  H362  1  0.83444784  0.66431521  0.06981075  1
  H+  H363  1  0.83045695  0.41411376  0.06946857  1
  H+  H364  1  0.58797172  0.65278602  0.43406164  1
  H+  H365  1  0.52573159  0.63220700  0.82834257  1
  H+  H366  1  0.26686551  0.24917388  0.38457133  1
  H+  H367  1  0.96293375  0.57636646  0.91637937  1
  H+  H368  1  0.83448066  0.16227514  0.10119622  1
  H+  H369  1  0.05251171  0.11785659  0.10354598  1
  H+  H370  1  0.91324357  0.32937275  0.26725693  1
  H+  H371  1  0.89323653  0.85723061  0.66012058  1
  H+  H372  1  0.08726144  0.16003380  0.72864457  1
  H+  H373  1  0.61750037  0.47506475  0.82126745  1
  H+  H374  1  0.44407909  0.84269610  0.25419879  1
  H+  H375  1  0.31994378  0.41996894  0.05178216  1
  H+  H376  1  0.14345051  0.30425683  0.21043858  1
  H+  H377  1  0.52305368  0.89861981  0.00737200  1
  H+  H378  1  0.16876452  0.59153736  0.60878269  1
  H+  H379  1  0.34876997  0.07970691  0.64197473  1
  H+  H380  1  0.11972775  -0.02508588  0.15324092  1
  H+  H381  1  0.88348973  0.85950858  0.32634986  1
  H+  H382  1  0.77546249  0.88152075  0.33547806  1
  H+  H383  1  0.91765126  0.33568966  0.93910959  1
  O2-  O384  1  0.04085553  0.12877190  0.14557908  1
  O2-  O385  1  0.09745661  0.18072254  0.47105422  1
  O2-  O386  1  0.08361495  0.16132206  0.80666874  1
  O2-  O387  1  0.07353595  0.40857025  0.13819698  1
  O2-  O388  1  0.08529733  0.41744986  0.48894467  1
  O2-  O389  1  0.07904540  0.42291080  0.81388280  1
  O2-  O390  1  0.06554223  0.64903761  0.11148742  1
  O2-  O391  1  0.08145461  0.65694816  0.48082291  1
  O2-  O392  1  0.14697552  0.72639466  0.81706951  1
  O2-  O393  1  0.08523897  0.91440617  0.13250208  1
  O2-  O394  1  0.06749176  0.91319665  0.47845759  1
  O2-  O395  1  0.14900979  0.92047085  0.80217320  1
  O2-  O396  1  0.32339256  0.17505428  0.14078583  1
  O2-  O397  1  0.36553420  0.17532017  0.49127103  1
  O2-  O398  1  0.37219806  0.15673957  0.75957773  1
  O2-  O399  1  0.31137196  0.40880776  0.12391944  1
  O2-  O400  1  0.34926998  0.42146747  0.49324905  1
  O2-  O401  1  0.33101939  0.40441755  0.82262801  1
  O2-  O402  1  0.32922603  0.64865971  0.17028905  1
  O2-  O403  1  0.33678157  0.66005608  0.48576927  1
  O2-  O404  1  0.33152460  0.66514086  0.81985803  1
  O2-  O405  1  0.31643643  0.91263273  0.13591818  1
  O2-  O406  1  0.33341172  0.90304878  0.48773045  1
  O2-  O407  1  0.32603143  0.92267468  0.81399962  1
  O2-  O408  1  0.59902437  0.17574328  0.14665034  1
  O2-  O409  1  0.59247302  0.17256609  0.48692781  1
  O2-  O410  1  0.58694226  0.17346779  0.81751214  1
  O2-  O411  1  0.58199569  0.42616810  0.13606296  1
  O2-  O412  1  0.58597931  0.42125587  0.50128954  1
  O2-  O413  1  0.58749155  0.41489694  0.80609701  1
  O2-  O414  1  0.58473397  0.66920747  0.15015406  1
  O2-  O415  1  0.56548135  0.61717750  0.47094381  1
  O2-  O416  1  0.58621278  0.66050944  0.81360205  1
  O2-  O417  1  0.59475315  0.93855695  0.14680683  1
  O2-  O418  1  0.57943880  0.92894659  0.48325679  1
  O2-  O419  1  0.56136489  0.88498014  0.79808125  1
  O2-  O420  1  0.83288132  0.15962214  0.14741136  1
  O2-  O421  1  0.83789063  0.16952765  0.48285738  1
  O2-  O422  1  0.84041863  0.17788573  0.81698750  1
  O2-  O423  1  0.83784675  0.42409168  0.14807248  1
  O2-  O424  1  0.83596338  0.41839739  0.48435141  1
  O2-  O425  1  0.83406453  0.41720758  0.82216745  1
  O2-  O426  1  0.82683095  0.67013423  0.15095388  1
  O2-  O427  1  0.83772379  0.66595876  0.48624341  1
  O2-  O428  1  0.83672072  0.68069874  0.80944948  1
  O2-  O429  1  0.84704041  0.95713888  0.16057855  1
  O2-  O430  1  0.79889200  0.84448922  0.47257295  1
  O2-  O431  1  0.83950520  0.92169972  0.80732676  1
  O2-  O432  1  0.16518059  0.05911535  0.18376477  1
  O2-  O433  1  0.18970963  0.11719514  0.52139412  1
  O2-  O434  1  0.17150659  0.07211209  0.84436693  1
  O2-  O435  1  0.13756415  0.30278562  0.16596616  1
  O2-  O436  1  0.17662700  0.33852361  0.52168039  1
  O2-  O437  1  0.15848008  0.32646389  0.84665468  1
  O2-  O438  1  0.14932967  0.57494626  0.18577355  1
  O2-  O439  1  0.17084798  0.58299670  0.52837641  1
  O2-  O440  1  0.16331216  0.58873269  0.84918454  1
  O2-  O441  1  0.14236593  0.81169867  0.17319620  1
  O2-  O442  1  0.13097532  0.81101537  0.52393382  1
  O2-  O443  1  0.10279040  0.76002602  0.85478505  1
  O2-  O444  1  0.41319715  0.09001754  0.15961859  1
  O2-  O445  1  0.42611802  0.07307056  0.52832484  1
  O2-  O446  1  0.41674697  0.08678818  0.85420577  1
  O2-  O447  1  0.41241588  0.34873335  0.17343562  1
  O2-  O448  1  0.42512611  0.33523736  0.54289667  1
  O2-  O449  1  0.36513837  0.34674346  0.83594478  1
  O2-  O450  1  0.44482445  0.58933291  0.20516391  1
  O2-  O451  1  0.42869985  0.58735911  0.52515896  1
  O2-  O452  1  0.41943597  0.58079768  0.85237107  1
  O2-  O453  1  0.43453281  0.85900053  0.17777596  1
  O2-  O454  1  0.42161033  0.82227286  0.53034249  1
  O2-  O455  1  0.40502955  0.83088730  0.86036972  1
  O2-  O456  1  0.67815266  0.09704918  0.19451311  1
  O2-  O457  1  0.67415779  0.09139130  0.52693502  1
  O2-  O458  1  0.67752294  0.10133966  0.86744367  1
  O2-  O459  1  0.67134488  0.34830293  0.17412203  1
  O2-  O460  1  0.67323630  0.33551178  0.52851331  1
  O2-  O461  1  0.67027880  0.33712610  0.86129661  1
  O2-  O462  1  0.65922965  0.58650313  0.18162886  1
  O2-  O463  1  0.68223004  0.59212511  0.53443647  1
  O2-  O464  1  0.67210002  0.58070877  0.84603755  1
  O2-  O465  1  0.67751398  0.85529371  0.18835510  1
  O2-  O466  1  0.65285747  0.83130275  0.52604674  1
  O2-  O467  1  0.66468495  0.83375437  0.84564523  1
  O2-  O468  1  0.89071073  0.04543934  0.18671991  1
  O2-  O469  1  0.93349188  0.09231993  0.51992263  1
  O2-  O470  1  0.91728669  0.08657492  0.84630290  1
  O2-  O471  1  0.91312342  0.32914415  0.18929125  1
  O2-  O472  1  0.91560905  0.33379888  0.52464781  1
  O2-  O473  1  0.92003813  0.33761941  0.86292821  1
  O2-  O474  1  0.90944331  0.58422212  0.19287572  1
  O2-  O475  1  0.92161410  0.58265664  0.52710616  1
  O2-  O476  1  0.97655603  0.57179504  0.87413722  1
  O2-  O477  1  0.91444725  0.84804723  0.18752778  1
  O2-  O478  1  0.92497675  0.81510755  0.53539457  1
  O2-  O479  1  0.89552155  0.83995754  0.87505127  1
  O2-  O480  1  0.14943678  0.09682565  0.30534363  1
  O2-  O481  1  0.17850131  0.08221630  0.64966672  1
  O2-  O482  1  0.17592033  0.06669237  0.96936530  1
  O2-  O483  1  0.17882638  0.32876147  0.29660796  1
  O2-  O484  1  0.19247899  0.32877583  0.64804445  1
  O2-  O485  1  0.16235012  0.36312834  0.96933829  1
  O2-  O486  1  0.15531637  0.56691089  0.31387581  1
  O2-  O487  1  0.16970805  0.59287009  0.65403176  1
  O2-  O488  1  0.15670449  0.60654074  0.96435714  1
  O2-  O489  1  0.08247811  0.77359035  0.28861176  1
  O2-  O490  1  0.18018122  0.83678242  0.64887348  1
  O2-  O491  1  0.16923380  0.81542859  0.97785390  1
  O2-  O492  1  0.48266251  0.11101006  0.27085614  1
  O2-  O493  1  0.39861650  0.07424718  0.65219290  1
  O2-  O494  1  0.41811469  0.09510993  0.97695565  1
  O2-  O495  1  0.41579403  0.37722956  0.29762973  1
  O2-  O496  1  0.41838157  0.32770309  0.66456843  1
  O2-  O497  1  0.40801548  0.34614072  0.96117723  1
  O2-  O498  1  0.42656726  0.60877033  0.32509413  1
  O2-  O499  1  0.38742050  0.57077171  0.65061998  1
  O2-  O500  1  0.40747911  0.59397705  0.97389027  1
  O2-  O501  1  0.45181375  0.83590791  0.29847617  1
  O2-  O502  1  0.41974180  0.82276738  0.65761277  1
  O2-  O503  1  0.41612977  0.84298323  0.98054633  1
  O2-  O504  1  0.68777839  0.08694678  0.30939188  1
  O2-  O505  1  0.66019189  0.09626892  0.64958219  1
  O2-  O506  1  0.67408407  0.09990568  0.98491821  1
  O2-  O507  1  0.67638753  0.35550478  0.29233760  1
  O2-  O508  1  0.67033427  0.33942526  0.65190340  1
  O2-  O509  1  0.66534606  0.33485678  0.98262381  1
  O2-  O510  1  0.66665093  0.58395440  0.30979365  1
  O2-  O511  1  0.66853151  0.58862542  0.65580443  1
  O2-  O512  1  0.71460253  0.54620156  0.95810798  1
  O2-  O513  1  0.67153865  0.84250419  0.31387909  1
  O2-  O514  1  0.67611707  0.83584395  0.65283298  1
  O2-  O515  1  0.64739730  0.82619384  0.99851944  1
  O2-  O516  1  0.90081767  0.07348729  0.30948408  1
  O2-  O517  1  0.93463171  0.06488764  0.63314710  1
  O2-  O518  1  0.92424190  0.09279353  0.96801344  1
  O2-  O519  1  0.90952434  0.32591798  0.31289663  1
  O2-  O520  1  0.90825549  0.34356768  0.64777786  1
  O2-  O521  1  0.91829848  0.33669299  0.98495525  1
  O2-  O522  1  0.90585394  0.57474214  0.31794226  1
  O2-  O523  1  0.91917251  0.58908774  0.65468217  1
  O2-  O524  1  0.94900263  0.58823356  1.02053776  1
  O2-  O525  1  0.91412317  0.82777865  0.31119984  1
  O2-  O526  1  0.92639272  0.82756186  0.64774460  1
  O2-  O527  1  0.87115264  0.82594186  0.99649981  1
  O2-  O528  1  0.08414303  0.12843306  0.02531166  1
  O2-  O529  1  0.06061224  0.16436925  0.35489008  1
  O2-  O530  1  0.09347800  0.15986201  0.68343174  1
  O2-  O531  1  0.07955762  0.44509502  0.01810203  1
  O2-  O532  1  0.07447602  0.40644338  0.36017573  1
  O2-  O533  1  0.07218048  0.42513336  0.69619041  1
  O2-  O534  1  0.16165453  0.74435019  0.01586947  1
  O2-  O535  1  0.06854693  0.64463029  0.35755537  1
  O2-  O536  1  0.08562651  0.67543142  0.69659108  1
  O2-  O537  1  0.10576860  0.91439383  0.02306925  1
  O2-  O538  1  0.09547535  0.92815370  0.32809651  1
  O2-  O539  1  0.09657282  0.91542834  0.68367642  1
  O2-  O540  1  0.33468471  0.18350708  0.01064683  1
  O2-  O541  1  0.26563966  0.25006341  0.34023694  1
  O2-  O542  1  0.31703561  0.18347890  0.72821190  1
  O2-  O543  1  0.32197218  0.42454054  0.00552817  1
  O2-  O544  1  0.34673625  0.45134941  0.37671774  1
  O2-  O545  1  0.33663532  0.40937883  0.70388800  1
  O2-  O546  1  0.31004708  0.66440945  0.00386199  1
  O2-  O547  1  0.31525897  0.66319767  0.36622097  1
  O2-  O548  1  0.33169255  0.66632792  0.69777830  1
  O2-  O549  1  0.32960868  0.92331539  0.01119205  1
  O2-  O550  1  0.32830064  0.82451502  0.37579670  1
  O2-  O551  1  0.34231649  0.92117353  0.69278434  1
  O2-  O552  1  0.58416827  0.17065234  0.02580482  1
  O2-  O553  1  0.59974344  0.16805251  0.36045062  1
  O2-  O554  1  0.57621112  0.17305004  0.69242604  1
  O2-  O555  1  0.57323434  0.41147458  0.01210312  1
  O2-  O556  1  0.56511255  0.41057298  0.34834347  1
  O2-  O557  1  0.58488595  0.42174585  0.68933334  1
  O2-  O558  1  0.56056045  0.67880548  0.03835760  1
  O2-  O559  1  0.59839625  0.68190398  0.35305351  1
  O2-  O560  1  0.57967876  0.66572454  0.68878905  1
  O2-  O561  1  0.58405040  0.92998328  0.02133175  1
  O2-  O562  1  0.60773818  0.93690975  0.35383779  1
  O2-  O563  1  0.64665305  0.95814133  0.70461751  1
  O2-  O564  1  0.83831372  0.16982227  0.02686729  1
  O2-  O565  1  0.83389990  0.16483719  0.35142036  1
  O2-  O566  1  0.82224379  0.19227488  0.69252066  1
  O2-  O567  1  0.83207621  0.41557934  0.02410532  1
  O2-  O568  1  0.82533454  0.40904612  0.36014399  1
  O2-  O569  1  0.83308136  0.42356615  0.69545008  1
  O2-  O570  1  0.84376131  0.66562649  0.02522533  1
  O2-  O571  1  0.83067160  0.66446951  0.35981159  1
  O2-  O572  1  0.83598884  0.67395163  0.69244515  1
  O2-  O573  1  0.80966455  0.84732678  0.02401467  1
  O2-  O574  1  0.83665852  0.90812292  0.34859806  1
  O2-  O575  1  0.84241926  0.90563766  0.68235813  1
