# generated using pymatgen
data_H2O
_symmetry_space_group_name_H-M   'P 1'
_cell_length_a   18.00092154
_cell_length_b   17.99569445
_cell_length_c   22.01043681
_cell_angle_alpha   89.99962392
_cell_angle_beta   89.99494384
_cell_angle_gamma   119.99333808
_symmetry_Int_Tables_number   1
_chemical_formula_structural   H2O
_chemical_formula_sum   'H384 O192'
_cell_volume   6175.21084398
_cell_formula_units_Z   192
loop_
 _symmetry_equiv_pos_site_id
 _symmetry_equiv_pos_as_xyz
  1  'x, y, z'
loop_
 _atom_type_symbol
 _atom_type_oxidation_number
  H+  1.0
  O2-  -2.0
loop_
 _atom_site_type_symbol
 _atom_site_label
 _atom_site_symmetry_multiplicity
 _atom_site_fract_x
 _atom_site_fract_y
 _atom_site_fract_z
 _atom_site_occupancy
  H+  H0  1  0.04039238  0.62063866  0.34580576  1
  H+  H1  1  1.02898079  0.38015652  0.98421501  1
  H+  H2  1  0.63630310  0.70697155  0.44604586  1
  H+  H3  1  0.64857228  0.52084303  0.81675840  1
  H+  H4  1  0.32467587  0.37885716  0.32225474  1
  H+  H5  1  0.86614543  0.59543626  0.51040095  1
  H+  H6  1  0.85185466  0.14001168  0.15767129  1
  H+  H7  1  0.85947061  0.38004607  0.50231075  1
  H+  H8  1  0.50021955  0.87776753  0.49361905  1
  H+  H9  1  0.09862620  0.46490549  0.51537252  1
  H+  H10  1  0.95406578  0.64617335  0.29144971  1
  H+  H11  1  0.85767279  0.71963784  0.48809079  1
  H+  H12  1  0.96497614  0.60826389  0.83961131  1
  H+  H13  1  0.84285006  0.46101186  0.00039020  1
  H+  H14  1  0.14925716  0.85915377  0.99282513  1
  H+  H15  1  0.10789962  0.22128876  0.14927588  1
  H+  H16  1  0.22145166  0.34610482  0.87838465  1
  H+  H17  1  0.80721445  0.64863473  0.05502957  1
  H+  H18  1  0.49355549  0.19797587  0.30209666  1
  H+  H19  1  0.28606396  0.88489828  0.50921130  1
  H+  H20  1  0.15095793  0.87126571  0.84301268  1
  H+  H21  1  0.38098623  0.03641926  0.99880800  1
  H+  H22  1  0.52526038  0.88518868  0.68319095  1
  H+  H23  1  0.09054645  0.09337930  0.98205761  1
  H+  H24  1  0.13887151  0.55500572  0.67508107  1
  H+  H25  1  0.27657150  0.89911658  0.01599803  1
  H+  H26  1  0.85535300  0.47432152  0.50397432  1
  H+  H27  1  0.26956586  0.17907834  -0.03840648  1
  H+  H28  1  0.64930179  0.61179666  0.28860641  1
  H+  H29  1  0.24175435  0.84510077  0.32389388  1
  H+  H30  1  0.86582173  0.61983782  0.01810376  1
  H+  H31  1  0.36905884  0.59676355  0.84454897  1
  H+  H32  1  0.84515874  0.47030990  0.14790276  1
  H+  H33  1  0.16195108  0.55214318  0.21287139  1
  H+  H34  1  0.13697795  0.35263607  0.15971876  1
  H+  H35  1  0.87756204  0.85555862  0.30357463  1
  H+  H36  1  0.03299652  0.15430344  0.83033871  1
  H+  H37  1  1.01438225  0.14027999  0.14530353  1
  H+  H38  1  0.05863254  0.12083904  0.37058837  1
  H+  H39  1  0.62065140  0.47307197  0.99024399  1
  H+  H40  1  0.11419166  0.59735232  0.51736968  1
  H+  H41  1  0.63718185  0.61807839  0.50676647  1
  H+  H42  1  0.13808019  0.48618959  0.15989994  1
  H+  H43  1  0.10254332  0.24220405  0.66145939  1
  H+  H44  1  0.63411183  0.60568490  0.82603515  1
  H+  H45  1  0.08337621  0.88028161  0.35186377  1
  H+  H46  1  0.86083738  0.35707534  0.16314183  1
  H+  H47  1  0.23817897  0.86887826  0.84115508  1
  H+  H48  1  0.37041517  0.89316801  0.36351281  1
  H+  H49  1  0.49297195  0.12965252  0.82423930  1
  H+  H50  1  0.38480705  0.72286622  0.48271748  1
  H+  H51  1  0.58473725  0.16567378  0.06319436  1
  H+  H52  1  0.76671342  0.13591801  0.49709730  1
  H+  H53  1  0.18777799  0.84590153  0.11010673  1
  H+  H54  1  0.39849486  0.78513186  0.35352273  1
  H+  H55  1  0.84977644  0.91953909  0.74172215  1
  H+  H56  1  0.86794033  0.98674689  0.50155334  1
  H+  H57  1  0.41115192  0.30424648  0.33321174  1
  H+  H58  1  0.87617825  0.27206600  0.51043803  1
  H+  H59  1  0.39746011  0.60760607  0.50177906  1
  H+  H60  1  0.84528689  0.61679762  0.34215761  1
  H+  H61  1  0.39843172  0.75949815  0.15856133  1
  H+  H62  1  0.85619324  0.64160492  0.83835210  1
  H+  H63  1  0.63887984  0.27625783  0.49197928  1
  H+  H64  1  0.23585030  0.11649749  0.52477642  1
  H+  H65  1  0.28298061  0.91896137  0.68095517  1
  H+  H66  1  0.71441114  0.36251323  0.17220095  1
  H+  H67  1  -0.01372486  0.56591870  0.67137291  1
  H+  H68  1  0.87364509  0.02713791  0.16555296  1
  H+  H69  1  0.75862096  0.13495214  0.16204314  1
  H+  H70  1  0.98478322  0.60507147  0.66043561  1
  H+  H71  1  0.96460346  0.11420343  0.99703718  1
  H+  H72  1  0.63328018  0.52582184  0.50244422  1
  H+  H73  1  0.89663203  0.56880774  0.92634345  1
  H+  H74  1  0.62383787  0.74613386  0.50553496  1
  H+  H75  1  0.41640562  0.83802509  0.89614199  1
  H+  H76  1  0.10469950  0.33800559  0.55758977  1
  H+  H77  1  0.63864197  0.23928217  0.36749441  1
  H+  H78  1  -0.03225560  0.35979214  0.51432870  1
  H+  H79  1  0.39629769  1.02844639  0.53368092  1
  H+  H80  1  0.43358722  0.39382512  0.35715078  1
  H+  H81  1  0.11781886  0.89541874  0.14986796  1
  H+  H82  1  0.15024750  0.02584771  0.16192878  1
  H+  H83  1  0.28792687  0.88154831  0.16965070  1
  H+  H84  1  0.13629388  0.12009494  0.83383708  1
  H+  H85  1  0.64053310  0.11655812  0.33910423  1
  H+  H86  1  1.00595230  0.63065658  0.50694155  1
  H+  H87  1  0.12398389  0.13788381  0.51628540  1
  H+  H88  1  0.40937349  0.15671343  0.01200912  1
  H+  H89  1  0.60660098  0.88748654  1.00886617  1
  H+  H90  1  0.12252515  0.46281139  -0.01365823  1
  H+  H91  1  0.63075929  0.86818792  0.32233844  1
  H+  H92  1  0.92825527  0.75040550  0.99837637  1
  H+  H93  1  0.33292033  0.45603936  0.83764092  1
  H+  H94  1  0.98248077  0.11886498  0.66710349  1
  H+  H95  1  0.37499046  0.38861410  0.15637300  1
  H+  H96  1  0.38445268  0.35759051  0.50258872  1
  H+  H97  1  0.39403557  0.11545369  0.53239633  1
  H+  H98  1  0.10420686  1.00188351  -0.01773900  1
  H+  H99  1  0.82847471  0.69317826  0.70089009  1
  H+  H100  1  0.11282264  0.73049517  0.83686468  1
  H+  H101  1  0.01480937  0.35179661  0.12647608  1
  H+  H102  1  0.40825249  0.28260160  0.99073950  1
  H+  H103  1  0.63601475  0.48601040  0.33440375  1
  H+  H104  1  0.38751308  0.49987707  0.15675229  1
  H+  H105  1  0.14466609  0.40760142  0.67842119  1
  H+  H106  1  0.23697239  0.08716781  0.31717681  1
  H+  H107  1  0.32509545  0.17764492  0.37036302  1
  H+  H108  1  0.64548930  0.12469930  0.84186020  1
  H+  H109  1  0.37683511  0.12991718  0.35644255  1
  H+  H110  1  0.62792394  0.77827045  0.32768011  1
  H+  H111  1  0.34237632  0.41286016  0.09391740  1
  H+  H112  1  0.39212646  0.10977848  0.18108805  1
  H+  H113  1  0.63184035  0.77063610  -0.00260099  1
  H+  H114  1  0.11487255  0.88616833  0.67900297  1
  H+  H115  1  0.12467950  0.98960581  0.82352936  1
  H+  H116  1  0.38600021  0.77498448  0.98759568  1
  H+  H117  1  0.49319163  0.86248064  0.16776025  1
  H+  H118  1  0.06887260  0.66230449  0.44868882  1
  H+  H119  1  0.48668392  0.37338374  0.16392000  1
  H+  H120  1  0.75850782  0.36869319  -0.00367146  1
  H+  H121  1  0.64608373  0.87858919  0.51186917  1
  H+  H122  1  0.03575609  0.89757762  0.82569447  1
  H+  H123  1  0.95687880  0.35029524  0.30435304  1
  H+  H124  1  0.61379094  0.39187561  0.49407106  1
  H+  H125  1  0.25078198  0.11710565  0.16212074  1
  H+  H126  1  0.39654175  0.12994351  0.68271513  1
  H+  H127  1  0.37534165  -0.02959566  0.17574730  1
  H+  H128  1  0.18951380  0.68723855  0.68491946  1
  H+  H129  1  0.11409127  0.27285725  0.32092258  1
  H+  H130  1  0.73266799  0.61885771  0.32238760  1
  H+  H131  1  0.86132632  0.85252508  0.94927319  1
  H+  H132  1  0.15748044  0.14242525  0.67448656  1
  H+  H133  1  0.87038130  0.03562299  0.32027408  1
  H+  H134  1  0.61696681  0.38166389  0.99066128  1
  H+  H135  1  0.37341959  0.65146470  0.31787007  1
  H+  H136  1  0.52440757  0.13610471  0.16085179  1
  H+  H137  1  0.61370693  0.13958179  0.16127176  1
  H+  H138  1  0.16767926  0.80196581  0.67166202  1
  H+  H139  1  0.00628895  0.35145359  0.68931645  1
  H+  H140  1  0.13794066  0.05886168  0.31734853  1
  H+  H141  1  0.27552928  0.63065544  1.00303095  1
  H+  H142  1  0.60677873  0.07188351  0.53762595  1
  H+  H143  1  0.42806302  0.83861217  0.41492158  1
  H+  H144  1  0.90459838  0.73642438  0.30630875  1
  H+  H145  1  0.73207728  0.87471599  0.51611753  1
  H+  H146  1  0.72064281  0.61179147  0.96387654  1
  H+  H147  1  0.85118087  0.22789976  0.34146822  1
  H+  H148  1  0.97976939  0.11986168  0.51647437  1
  H+  H149  1  0.86812263  0.13704972  0.67844027  1
  H+  H150  1  0.05643620  0.43077185  0.37312667  1
  H+  H151  1  0.85724374  0.14297912  0.33828172  1
  H+  H152  1  0.86607955  0.22599929  0.67555628  1
  H+  H153  1  0.37274894  0.89479264  0.82642453  1
  H+  H154  1  0.54015039  0.64318465  0.67600466  1
  H+  H155  1  0.71947923  0.84761786  0.17282690  1
  H+  H156  1  0.87415006  0.36409496  0.31689105  1
  H+  H157  1  0.83529958  0.17624527  0.76738058  1
  H+  H158  1  1.00257518  0.64639426  0.16500670  1
  H+  H159  1  0.38131330  0.23760344  0.68743530  1
  H+  H160  1  0.15965285  0.62442236  0.34114876  1
  H+  H161  1  0.61441439  0.40388682  0.15207060  1
  H+  H162  1  0.12197838  0.71572877  0.34350725  1
  H+  H163  1  0.54872902  0.39938880  0.33689100  1
  H+  H164  1  0.86840166  0.03282438  0.99801180  1
  H+  H165  1  0.74985528  0.89341421  0.01270744  1
  H+  H166  1  0.65946672  0.83191898  0.93867722  1
  H+  H167  1  0.61774004  0.97833163  0.83267150  1
  H+  H168  1  0.37452424  0.22829987  0.16514748  1
  H+  H169  1  0.61149572  -0.02092834  1.00759525  1
  H+  H170  1  0.48333927  0.60513904  0.50813072  1
  H+  H171  1  0.11648354  0.39600712  0.34763335  1
  H+  H172  1  0.94176903  0.80259605  0.93667960  1
  H+  H173  1  0.48680073  0.37086434  0.97550395  1
  H+  H174  1  0.73677444  0.12665811  0.65864640  1
  H+  H175  1  0.66144987  0.08312779  0.23592167  1
  H+  H176  1  0.20443666  0.41388784  0.62410303  1
  H+  H177  1  0.40373523  0.76725670  0.65725301  1
  H+  H178  1  0.61690515  0.89368673  0.68648209  1
  H+  H179  1  0.48038953  0.86837078  0.83938052  1
  H+  H180  1  0.36824834  0.73081929  0.82621539  1
  H+  H181  1  0.75936506  0.46271565  0.63874798  1
  H+  H182  1  0.49873268  0.34847537  0.64690676  1
  H+  H183  1  0.09725775  0.90859915  0.43880405  1
  H+  H184  1  0.14195538  0.59685893  -0.00966044  1
  H+  H185  1  0.90210707  0.89589499  -0.04920466  1
  H+  H186  1  0.53045627  0.89700130  0.35157931  1
  H+  H187  1  0.14685881  0.85897476  0.51417161  1
  H+  H188  1  0.88431683  0.05236703  0.84350368  1
  H+  H189  1  0.51224487  0.14599314  0.34942440  1
  H+  H190  1  0.88684231  0.60656113  0.11590542  1
  H+  H191  1  0.85881303  0.14740176  1.00667886  1
  H+  H192  1  0.81807950  0.56283809  0.65798135  1
  H+  H193  1  0.38759022  0.38956471  0.68425630  1
  H+  H194  1  0.12706464  0.26458141  0.55345103  1
  H+  H195  1  0.61964152  -0.01504294  0.33565637  1
  H+  H196  1  0.53958280  0.14804535  0.68640601  1
  H+  H197  1  0.10474028  0.85327528  0.35560119  1
  H+  H198  1  0.24209112  0.38552763  0.33082854  1
  H+  H199  1  0.75450435  0.90376389  0.34508181  1
  H+  H200  1  0.28831557  0.65344009  0.33279690  1
  H+  H201  1  0.36065305  0.51250480  0.30860462  1
  H+  H202  1  0.14406066  0.61987971  0.84286048  1
  H+  H203  1  0.36829059  0.22571805  0.50556687  1
  H+  H204  1  0.33560041  0.14692509  0.45763379  1
  H+  H205  1  0.12403787  0.34095272  0.95153717  1
  H+  H206  1  0.02684020  0.18056139  0.40033711  1
  H+  H207  1  0.90174312  0.86107787  0.33319740  1
  H+  H208  1  0.62940610  0.13151998  0.47643739  1
  H+  H209  1  0.13062922  0.76430390  0.51960752  1
  H+  H210  1  0.52119775  0.67098903  0.39618264  1
  H+  H211  1  0.86824850  0.47347965  0.32918720  1
  H+  H212  1  0.85557600  0.38923135  0.81532957  1
  H+  H213  1  0.03035368  0.90027008  0.15271807  1
  H+  H214  1  0.60645413  0.18743267  0.76338138  1
  H+  H215  1  0.62264245  0.71862858  0.83012288  1
  H+  H216  1  0.36686101  0.63647784  0.00576684  1
  H+  H217  1  0.73598449  0.87379671  0.66879539  1
  H+  H218  1  0.22713840  0.35935200  0.17151787  1
  H+  H219  1  0.72761058  0.11694030  0.33112769  1
  H+  H220  1  0.92479636  0.94483843  0.84734596  1
  H+  H221  1  0.00134631  0.97527961  0.34928516  1
  H+  H222  1  0.63474404  1.02102956  0.17701280  1
  H+  H223  1  0.61337594  0.13250896  0.00429768  1
  H+  H224  1  0.86075617  0.89158702  0.15969476  1
  H+  H225  1  0.87810003  0.35866654  0.67461357  1
  H+  H226  1  0.61714413  0.88247497  0.15789620  1
  H+  H227  1  0.13635226  0.72641185  0.01485775  1
  H+  H228  1  0.62664398  0.27532692  0.17337983  1
  H+  H229  1  0.04633230  0.87520907  0.00016624  1
  H+  H230  1  0.76602323  0.63288530  0.49182873  1
  H+  H231  1  0.37792670  0.64449447  0.14865651  1
  H+  H232  1  0.37627895  0.38190044  0.00004876  1
  H+  H233  1  0.73154123  0.12151306  0.84079509  1
  H+  H234  1  0.89164154  0.78349589  0.14832582  1
  H+  H235  1  0.87949384  0.97981138  0.68258264  1
  H+  H236  1  0.59826724  0.37726513  0.78293944  1
  H+  H237  1  0.88366924  0.87146980  0.49391390  1
  H+  H238  1  0.39912204  0.85769797  0.17494488  1
  H+  H239  1  0.37459482  0.98650136  0.82470020  1
  H+  H240  1  0.87821838  0.28545474  0.83515557  1
  H+  H241  1  0.47994607  0.61126411  0.99758728  1
  H+  H242  1  0.68025295  0.58057715  0.66442296  1
  H+  H243  1  0.28823799  0.15425831  0.69345613  1
  H+  H244  1  0.62884215  0.25914833  -0.01665258  1
  H+  H245  1  0.45323781  0.59860445  0.31060421  1
  H+  H246  1  0.96117298  0.12201996  0.31771038  1
  H+  H247  1  0.01832006  0.89823679  0.47896964  1
  H+  H248  1  0.63050405  0.15193455  0.67783683  1
  H+  H249  1  0.56515926  0.62450810  0.36744885  1
  H+  H250  1  0.66063564  0.42011993  0.72902278  1
  H+  H251  1  0.58540383  0.91579407  0.77417334  1
  H+  H252  1  0.09314813  0.21021036  -0.01203633  1
  H+  H253  1  0.88512312  0.85244791  0.68429318  1
  H+  H254  1  0.36288491  0.97565947  0.34815012  1
  H+  H255  1  0.87516773  0.52108455  0.82976897  1
  H+  H256  1  0.72364482  0.11629849  0.99195483  1
  H+  H257  1  0.69540419  0.31088791  0.80937200  1
  H+  H258  1  0.48715269  0.59636156  0.17186638  1
  H+  H259  1  0.64959542  0.36677936  0.32990070  1
  H+  H260  1  0.72517554  0.86402446  0.84846186  1
  H+  H261  1  0.95902887  0.58968080  0.98217366  1
  H+  H262  1  0.62674401  0.99412398  0.48359581  1
  H+  H263  1  0.29684567  0.63522459  0.67585076  1
  H+  H264  1  0.88603054  0.27902854  0.98897097  1
  H+  H265  1  0.25486048  0.21026890  0.96914495  1
  H+  H266  1  0.19784783  0.52230152  0.64695787  1
  H+  H267  1  0.11052105  0.47639401  0.82898548  1
  H+  H268  1  0.63826682  0.86816091  0.84483037  1
  H+  H269  1  0.85570180  0.25559451  0.16532941  1
  H+  H270  1  0.83842297  0.45859928  0.70936580  1
  H+  H271  1  0.42603804  0.57585416  0.60437363  1
  H+  H272  1  0.16882090  0.54206365  0.34104179  1
  H+  H273  1  0.38169232  0.02001391  0.68427750  1
  H+  H274  1  0.38436216  0.63319695  0.67701941  1
  H+  H275  1  0.62117915  0.73753438  0.67870886  1
  H+  H276  1  0.01619447  0.39637929  0.83402527  1
  H+  H277  1  0.36612822  0.46961661  0.48931280  1
  H+  H278  1  0.88885260  1.11803513  0.51401649  1
  H+  H279  1  0.87070051  0.16120851  0.83017168  1
  H+  H280  1  0.47510197  0.36129006  0.50445425  1
  H+  H281  1  1.01280569  0.86751589  0.68960640  1
  H+  H282  1  0.61408161  0.63221977  -0.00958713  1
  H+  H283  1  0.40772250  0.87370252  0.50133436  1
  H+  H284  1  0.40342123  0.52040242  0.66547413  1
  H+  H285  1  0.14496538  0.03092586  0.51912804  1
  H+  H286  1  0.59187969  0.42379170  0.43339587  1
  H+  H287  1  0.88709688  0.36709126  0.99040820  1
  H+  H288  1  0.23442739  0.62082104  0.83629092  1
  H+  H289  1  0.33775762  0.93006757  0.07439969  1
  H+  H290  1  0.82031531  0.91801665  0.10443368  1
  H+  H291  1  0.86866973  0.54948703  0.57290544  1
  H+  H292  1  0.17523949  0.57922566  0.92717670  1
  H+  H293  1  0.82459988  0.17623140  0.06409850  1
  H+  H294  1  0.90450291  0.34277046  0.89544758  1
  H+  H295  1  0.08824300  0.91924826  0.74545319  1
  H+  H296  1  0.17812269  0.68932010  0.05815847  1
  H+  H297  1  0.34148020  0.93566693  0.74306542  1
  H+  H298  1  0.17709810  0.82684501  0.93517937  1
  H+  H299  1  0.09436047  0.66287294  0.67654590  1
  H+  H300  1  0.84248578  0.90566589  0.00884949  1
  H+  H301  1  0.17665186  0.82180317  0.26903878  1
  H+  H302  1  0.88845336  0.78067829  0.83567331  1
  H+  H303  1  0.61818191  0.70265510  0.17855452  1
  H+  H304  1  0.16038725  0.57634441  0.57105598  1
  H+  H305  1  0.06074535  0.37588857  0.75123679  1
  H+  H306  1  0.89620143  0.78884694  0.63973522  1
  H+  H307  1  0.69580348  0.13325276  0.59748205  1
  H+  H308  1  0.34554212  0.66894703  0.76839957  1
  H+  H309  1  0.92721597  0.80945399  0.21378148  1
  H+  H310  1  0.65527813  0.32784797  0.55702428  1
  H+  H311  1  0.60137794  0.55077800  0.13530887  1
  H+  H312  1  0.66486525  0.08408828  0.93233226  1
  H+  H313  1  0.88915553  0.32393687  0.22726158  1
  H+  H314  1  0.09722054  0.93098153  0.05960834  1
  H+  H315  1  0.06149332  0.99590592  0.40659032  1
  H+  H316  1  0.60038231  0.64995402  0.05792462  1
  H+  H317  1  0.09141689  0.20284802  0.72844970  1
  H+  H318  1  0.65384141  0.56782738  0.91142295  1
  H+  H319  1  0.17700896  0.84968417  0.60911203  1
  H+  H320  1  0.12745195  0.22811827  0.84203789  1
  H+  H321  1  0.47020533  0.86532211  -0.00882823  1
  H+  H322  1  0.14772894  0.33036779  0.25965869  1
  H+  H323  1  0.66561637  0.32807598  0.26952670  1
  H+  H324  1  0.43099815  0.08956991  0.24001031  1
  H+  H325  1  0.84326332  0.90928278  0.34804096  1
  H+  H326  1  0.28710615  0.37881780  -0.00070468  1
  H+  H327  1  0.40852263  0.12724702  0.84651668  1
  H+  H328  1  0.62301447  0.45591284  0.62820234  1
  H+  H329  1  0.09138173  0.67394101  0.77854427  1
  H+  H330  1  0.60839343  0.92939914  0.42846839  1
  H+  H331  1  0.81391522  0.40355732  0.09255499  1
  H+  H332  1  0.74398117  0.61259571  0.22890216  1
  H+  H333  1  0.59787553  0.67094176  0.76528689  1
  H+  H334  1  0.67572612  0.84949918  0.61025251  1
  H+  H335  1  0.78738070  0.61753091  0.74523517  1
  H+  H336  1  0.32954660  0.36470190  0.83099181  1
  H+  H337  1  0.07315538  0.65684236  0.11821712  1
  H+  H338  1  0.91893020  0.08064716  0.61031815  1
  H+  H339  1  0.09010561  0.40208928  0.46264298  1
  H+  H340  1  0.58551219  0.42077269  0.08736765  1
  H+  H341  1  1.00162306  0.80612382  0.29766708  1
  H+  H342  1  0.89486462  0.57118468  0.25041289  1
  H+  H343  1  0.18949529  0.08622558  0.22615353  1
  H+  H344  1  0.76233616  0.37774232  0.49998306  1
  H+  H345  1  0.08203754  0.38668517  0.07135258  1
  H+  H346  1  0.47795410  0.10952349  0.98741269  1
  H+  H347  1  0.92187250  0.84303936  0.54710880  1
  H+  H348  1  0.82808831  0.16552411  0.43999141  1
  H+  H349  1  0.39173318  0.29595139  0.88791069  1
  H+  H350  1  0.43633060  0.35231397  0.22729782  1
  H+  H351  1  0.47343248  0.24186758  0.04893597  1
  H+  H352  1  0.39872194  0.56818031  0.90349860  1
  H+  H353  1  0.34778560  0.67776579  0.08993410  1
  H+  H354  1  0.64883751  0.57041259  0.59648586  1
  H+  H355  1  0.66010209  0.82289870  0.23120405  1
  H+  H356  1  0.33604818  0.41028031  0.73367968  1
  H+  H357  1  0.40880765  0.56707041  0.22106392  1
  H+  H358  1  0.43714071  0.82319513  0.59766850  1
  H+  H359  1  0.13094296  0.06798426  0.91736459  1
  H+  H360  1  0.33864413  0.92773096  0.44945933  1
  H+  H361  1  0.42300676  0.09491244  0.61965377  1
  H+  H362  1  0.73115012  0.63460409  0.16299113  1
  H+  H363  1  0.91600938  0.10166573  0.90595068  1
  H+  H364  1  0.77784617  0.38592719  0.33299414  1
  H+  H365  1  0.42196889  0.32644935  0.60335205  1
  H+  H366  1  0.07692152  0.16548189  0.05740824  1
  H+  H367  1  0.65428809  0.30531101  0.91876517  1
  H+  H368  1  0.58957162  0.91978221  0.10018600  1
  H+  H369  1  0.82615706  0.93421734  0.44001082  1
  H+  H370  1  0.89963659  0.33565306  0.60794308  1
  H+  H371  1  0.12423955  0.19957910  0.46495233  1
  H+  H372  1  0.35737138  0.66604473  0.42319439  1
  H+  H373  1  0.83600932  0.59712488  0.17341039  1
  H+  H374  1  0.32452550  0.41252932  0.43040824  1
  H+  H375  1  0.39223425  0.52166484  -0.00007236  1
  H+  H376  1  0.22844329  0.12952980  0.84708887  1
  H+  H377  1  0.12743928  0.77495469  0.15780731  1
  H+  H378  1  0.34507060  0.19746344  0.78613534  1
  H+  H379  1  0.18352136  0.09938042  0.62350368  1
  H+  H380  1  0.90615423  0.09130356  0.22141050  1
  H+  H381  1  0.76643152  0.64042086  0.83610382  1
  H+  H382  1  0.36662943  0.17801059  0.10401185  1
  H+  H383  1  0.82706479  0.65866138  0.40079467  1
  O2-  O384  1  0.07327837  0.16510668  0.12896304  1
  O2-  O385  1  0.09241564  0.16758808  0.50068118  1
  O2-  O386  1  0.09252889  0.17904128  0.81489502  1
  O2-  O387  1  0.07578578  0.38037710  0.11694697  1
  O2-  O388  1  0.07106613  0.40108933  0.50468012  1
  O2-  O389  1  0.07540281  0.41425846  0.82076836  1
  O2-  O390  1  0.06498497  0.67267563  0.15962476  1
  O2-  O391  1  0.06688471  0.66428888  0.49388605  1
  O2-  O392  1  0.07949255  0.66962989  0.82238289  1
  O2-  O393  1  0.09174682  0.93199534  0.13920947  1
  O2-  O394  1  0.07817554  0.94021515  0.46452949  1
  O2-  O395  1  0.09625894  0.92794854  0.80961028  1
  O2-  O396  1  0.34843106  0.16888277  0.14871152  1
  O2-  O397  1  0.33667548  0.16076915  0.50105430  1
  O2-  O398  1  0.33651612  0.19704771  0.83177310  1
  O2-  O399  1  0.34538751  0.41979199  0.13992393  1
  O2-  O400  1  0.33736800  0.40966162  0.47333832  1
  O2-  O401  1  0.29617927  0.39389679  0.82439449  1
  O2-  O402  1  0.35950220  0.68488151  0.13559729  1
  O2-  O403  1  0.36147622  0.66364068  0.46791769  1
  O2-  O404  1  0.33573677  0.66943246  0.81324600  1
  O2-  O405  1  0.34987575  0.91035615  0.16056996  1
  O2-  O406  1  0.34485006  0.92280713  0.49396250  1
  O2-  O407  1  0.33987769  0.92414401  0.81294917  1
  O2-  O408  1  0.58423149  0.17007945  0.14538176  1
  O2-  O409  1  0.60612934  0.18778826  0.45023793  1
  O2-  O410  1  0.60573710  0.18822501  0.81326529  1
  O2-  O411  1  0.58209928  0.42871994  0.13219280  1
  O2-  O412  1  0.58422475  0.42217845  0.47811960  1
  O2-  O413  1  0.64750955  0.43167106  0.77091058  1
  O2-  O414  1  0.58891639  0.63763157  0.18211823  1
  O2-  O415  1  0.60160482  0.68962726  0.48288713  1
  O2-  O416  1  0.59876438  0.66208740  0.81089015  1
  O2-  O417  1  0.59028862  0.91726606  0.14639375  1
  O2-  O418  1  0.60653884  0.93213374  0.47381678  1
  O2-  O419  1  0.58866171  0.91676094  0.82110013  1
  O2-  O420  1  0.81933827  0.17064365  0.14571597  1
  O2-  O421  1  0.82810004  0.16438799  0.48538084  1
  O2-  O422  1  0.83399630  0.18253956  0.81287222  1
  O2-  O423  1  0.81812128  0.40772933  0.13853863  1
  O2-  O424  1  0.82700696  0.41125806  0.48812231  1
  O2-  O425  1  0.82475560  0.41680465  0.79395525  1
  O2-  O426  1  0.77584450  0.63749371  0.19060904  1
  O2-  O427  1  0.82693573  0.65872056  0.47574686  1
  O2-  O428  1  0.82979852  0.67664365  0.82712280  1
  O2-  O429  1  0.82413525  0.91659783  0.14986388  1
  O2-  O430  1  0.83589285  0.92701268  0.48372851  1
  O2-  O431  1  0.88545732  0.88907603  0.82901422  1
  O2-  O432  1  0.18878478  0.08683050  0.17857465  1
  O2-  O433  1  0.17402723  0.08783788  0.53835789  1
  O2-  O434  1  0.16512396  0.08914679  0.85200662  1
  O2-  O435  1  0.16658458  0.32811708  0.18436184  1
  O2-  O436  1  0.13053360  0.30943874  0.58069264  1
  O2-  O437  1  0.19672714  0.29873020  0.91062357  1
  O2-  O438  1  0.18667573  0.53456247  0.18033558  1
  O2-  O439  1  0.14267343  0.56436974  0.52782761  1
  O2-  O440  1  0.17462993  0.58892794  0.85407177  1
  O2-  O441  1  0.16931529  0.83919113  0.15261503  1
  O2-  O442  1  0.16969286  0.82568716  0.53330257  1
  O2-  O443  1  0.17744752  0.83757854  0.85693606  1
  O2-  O444  1  0.42182309  0.07882151  0.19597108  1
  O2-  O445  1  0.42348755  0.08687517  0.55112458  1
  O2-  O446  1  0.42931620  0.09406533  0.82463947  1
  O2-  O447  1  0.42748351  0.34211584  0.18344904  1
  O2-  O448  1  0.41503984  0.32805774  0.51941639  1
  O2-  O449  1  0.37453070  0.28983561  0.84430109  1
  O2-  O450  1  0.42176322  0.56867800  0.17464947  1
  O2-  O451  1  0.42276034  0.57331139  0.51984129  1
  O2-  O452  1  0.38544343  0.55529653  0.86006068  1
  O2-  O453  1  0.43121094  0.82549647  0.18230168  1
  O2-  O454  1  0.43657462  0.83899827  0.49631042  1
  O2-  O455  1  0.41800933  0.83934750  0.85028818  1
  O2-  O456  1  0.66212913  0.08229243  0.19047906  1
  O2-  O457  1  0.64703691  0.09104363  0.50351459  1
  O2-  O458  1  0.67125497  0.09001349  0.85642599  1
  O2-  O459  1  0.65549350  0.33540960  0.18952074  1
  O2-  O460  1  0.66732236  0.33432478  0.51298902  1
  O2-  O461  1  0.64235650  0.27846597  0.83366707  1
  O2-  O462  1  0.62755393  0.61421939  0.13092332  1
  O2-  O463  1  0.66801294  0.58687219  0.51682382  1
  O2-  O464  1  0.66347923  0.57183220  0.84220733  1
  O2-  O465  1  0.65831091  0.81309073  0.18641924  1
  O2-  O466  1  0.67146327  0.84512635  0.53038335  1
  O2-  O467  1  0.66605545  0.83541397  0.86273209  1
  O2-  O468  1  0.90303532  0.08952692  0.17614290  1
  O2-  O469  1  0.91840468  0.08680067  0.52854098  1
  O2-  O470  1  0.92422183  0.10841433  0.86046653  1
  O2-  O471  1  0.88752636  0.32194838  0.18023212  1
  O2-  O472  1  0.90435647  0.33296223  0.52460408  1
  O2-  O473  1  0.90364879  0.34608051  0.85017112  1
  O2-  O474  1  0.87939547  0.58158281  0.15719953  1
  O2-  O475  1  0.89199964  0.56329020  0.52928548  1
  O2-  O476  1  0.90369683  0.57673641  0.85244233  1
  O2-  O477  1  0.92296868  0.83412038  0.17404002  1
  O2-  O478  1  0.91623945  0.83982275  0.50301281  1
  O2-  O479  1  0.93177304  0.84282477  0.84652883  1
  O2-  O480  1  0.19124387  0.08806863  0.29287982  1
  O2-  O481  1  0.18800388  0.11021565  0.66761112  1
  O2-  O482  1  0.09666914  0.04701128  0.95747362  1
  O2-  O483  1  0.14325260  0.33226508  0.30527520  1
  O2-  O484  1  0.20169825  0.44806793  0.65786991  1
  O2-  O485  1  0.11388295  0.28570858  0.93267714  1
  O2-  O486  1  0.18921235  0.59776591  0.32038721  1
  O2-  O487  1  0.18848152  0.57785206  0.64812188  1
  O2-  O488  1  0.17352671  0.57014573  0.97288349  1
  O2-  O489  1  0.19369744  0.79694157  0.30160350  1
  O2-  O490  1  0.17981620  0.85848646  0.65428147  1
  O2-  O491  1  0.17450063  0.82354493  0.98062204  1
  O2-  O492  1  0.46535701  0.14119772  0.32100240  1
  O2-  O493  1  0.42394290  0.09601843  0.66690438  1
  O2-  O494  1  0.41746397  0.09226270  0.97768798  1
  O2-  O495  1  0.43608859  0.36398551  0.32062141  1
  O2-  O496  1  0.43625154  0.32823592  0.64708642  1
  O2-  O497  1  0.42406344  0.33589725  0.96701048  1
  O2-  O498  1  0.39808495  0.56941984  0.28812451  1
  O2-  O499  1  0.43135581  0.58093544  0.64914041  1
  O2-  O500  1  0.41793722  0.58229850  0.98701092  1
  O2-  O501  1  0.42679164  0.84584010  0.36994566  1
  O2-  O502  1  0.42943464  0.82696466  0.64125840  1
  O2-  O503  1  0.41280166  0.83454357  0.97219581  1
  O2-  O504  1  0.66694825  0.08860564  0.31551542  1
  O2-  O505  1  0.68110673  0.11168558  0.63886968  1
  O2-  O506  1  0.66281960  0.08172669  0.97814764  1
  O2-  O507  1  0.67318038  0.33039123  0.31465493  1
  O2-  O508  1  0.67472763  0.38550178  0.65200988  1
  O2-  O509  1  0.65849887  0.31723967  0.96301556  1
  O2-  O510  1  0.68086759  0.58174390  0.29611073  1
  O2-  O511  1  0.63237154  0.54391999  0.63716366  1
  O2-  O512  1  0.65907967  0.57470915  0.95821811  1
  O2-  O513  1  0.66183104  0.83612795  0.31016713  1
  O2-  O514  1  0.67582443  0.84758271  0.65536758  1
  O2-  O515  1  0.65720286  0.83173936  0.98448432  1
  O2-  O516  1  0.90232249  0.09314606  0.30032788  1
  O2-  O517  1  0.92061081  0.07940936  0.65545683  1
  O2-  O518  1  0.90457673  0.09199378  0.98143257  1
  O2-  O519  1  0.89535470  0.32330836  0.29691617  1
  O2-  O520  1  0.90277739  0.32847637  0.65233311  1
  O2-  O521  1  0.91824255  0.33924763  0.97310603  1
  O2-  O522  1  0.91271787  0.58417794  0.29303981  1
  O2-  O523  1  0.82253291  0.51593982  0.63783703  1
  O2-  O524  1  0.89844825  0.56658360  0.97251403  1
  O2-  O525  1  0.95146291  0.76247141  0.27554082  1
  O2-  O526  1  0.90985243  0.81266233  0.68061489  1
  O2-  O527  1  0.97143095  0.79060732  0.96925811  1
  O2-  O528  1  0.06928667  0.15506502  0.01136636  1
  O2-  O529  1  0.05374682  0.17323263  0.36405414  1
  O2-  O530  1  0.08535380  0.18905932  0.68463512  1
  O2-  O531  1  0.08990682  0.39955690  -0.00481638  1
  O2-  O532  1  0.11306010  0.43674342  0.37686345  1
  O2-  O533  1  0.05445088  0.35032270  0.70952578  1
  O2-  O534  1  0.12338065  0.67338995  0.03866396  1
  O2-  O535  1  0.08895170  0.66288758  0.36956700  1
  O2-  O536  1  0.14775639  0.70468001  0.69694355  1
  O2-  O537  1  0.10163914  0.92700737  0.01467001  1
  O2-  O538  1  0.05170368  1.02190356  0.36932593  1
  O2-  O539  1  0.07655568  0.90727749  0.69773157  1
  O2-  O540  1  0.41254534  0.20775941  0.03895232  1
  O2-  O541  1  0.32181183  0.12213455  0.37417165  1
  O2-  O542  1  0.34903806  0.18102808  0.70931052  1
  O2-  O543  1  0.34303159  0.40795162  0.01953080  1
  O2-  O544  1  0.30526077  0.41520022  0.34140815  1
  O2-  O545  1  0.35634550  0.42068647  0.69150992  1
  O2-  O546  1  0.33529357  0.66652774  0.01895155  1
  O2-  O547  1  0.35233357  0.68291210  0.34228031  1
  O2-  O548  1  0.35619158  0.66650508  0.69172249  1
  O2-  O549  1  0.31332063  0.94895838  0.04207584  1
  O2-  O550  1  0.33187977  0.91924808  0.36712536  1
  O2-  O551  1  0.34274384  0.94695557  0.69702919  1
  O2-  O552  1  0.58359972  0.16444525  0.01805255  1
  O2-  O553  1  0.60569589  0.17917924  0.38271676  1
  O2-  O554  1  0.59978223  0.17758151  0.70020292  1
  O2-  O555  1  0.59044478  0.41427413  0.00827026  1
  O2-  O556  1  0.60733200  0.42795434  0.35365191  1
  O2-  O557  1  0.60842295  0.39362069  0.61893375  1
  O2-  O558  1  0.59001932  0.66129897  0.01574706  1
  O2-  O559  1  0.54410423  0.66367030  0.35755415  1
  O2-  O560  1  0.59847532  0.67815280  0.69344139  1
  O2-  O561  1  0.58057085  0.92039592  0.02625706  1
  O2-  O562  1  0.59477636  0.92442129  0.35079571  1
  O2-  O563  1  0.58156026  0.91600605  0.70453082  1
  O2-  O564  1  0.82775153  0.17833782  0.01911802  1
  O2-  O565  1  0.82731988  0.16981940  0.35969028  1
  O2-  O566  1  0.83648375  0.16620674  0.69226336  1
  O2-  O567  1  0.81565568  0.40176923  0.01721186  1
  O2-  O568  1  0.84065526  0.41369231  0.34300194  1
  O2-  O569  1  0.85641135  0.42190338  0.73119906  1
  O2-  O570  1  0.86585802  0.66014733  0.04980233  1
  O2-  O571  1  0.82601043  0.65712365  0.35479189  1
  O2-  O572  1  0.79027174  0.63066421  0.70161569  1
  O2-  O573  1  0.81098338  0.93032575  0.02884951  1
  O2-  O574  1  0.81452103  0.94077363  0.36154650  1
  O2-  O575  1  0.84903692  0.91812238  0.69723492  1
