# generated using pymatgen
data_H2O
_symmetry_space_group_name_H-M   'P 1'
_cell_length_a   17.98239226
_cell_length_b   17.98494453
_cell_length_c   21.98983702
_cell_angle_alpha   90.01533919
_cell_angle_beta   89.97499836
_cell_angle_gamma   120.00099350
_symmetry_Int_Tables_number   1
_chemical_formula_structural   H2O
_chemical_formula_sum   'H384 O192'
_cell_volume   6158.92367197
_cell_formula_units_Z   192
loop_
 _symmetry_equiv_pos_site_id
 _symmetry_equiv_pos_as_xyz
  1  'x, y, z'
loop_
 _atom_type_symbol
 _atom_type_oxidation_number
  H+  1.0
  O2-  -2.0
loop_
 _atom_site_type_symbol
 _atom_site_label
 _atom_site_symmetry_multiplicity
 _atom_site_fract_x
 _atom_site_fract_y
 _atom_site_fract_z
 _atom_site_occupancy
  H+  H0  1  0.72165217  0.62144897  0.52385467  1
  H+  H1  1  0.36679279  0.89053569  0.16259652  1
  H+  H2  1  0.68373938  0.65434260  0.95818839  1
  H+  H3  1  0.96991408  0.36787189  0.32934583  1
  H+  H4  1  0.63857579  0.52842900  0.31690264  1
  H+  H5  1  0.88188590  0.27677712  0.32890480  1
  H+  H6  1  0.66752572  0.08544299  0.23900984  1
  H+  H7  1  0.36751722  0.72975173  1.00269753  1
  H+  H8  1  0.16052619  0.79411735  0.84428986  1
  H+  H9  1  0.38504094  0.02306680  1.01958404  1
  H+  H10  1  0.64453847  0.10384586  0.66996226  1
  H+  H11  1  0.85015743  0.23812284  0.48982267  1
  H+  H12  1  0.15726481  0.32929849  0.26494556  1
  H+  H13  1  0.09147424  0.67588155  0.74615143  1
  H+  H14  1  0.87583847  0.59826898  0.71588128  1
  H+  H15  1  0.63316138  0.02578539  0.33344369  1
  H+  H16  1  0.08933282  0.41265967  0.57645275  1
  H+  H17  1  0.36815264  0.47040189  0.83392166  1
  H+  H18  1  0.98255332  0.87109808  0.99783409  1
  H+  H19  1  0.78194211  0.66931870  0.68713092  1
  H+  H20  1  0.35382763  0.14575371  0.83053143  1
  H+  H21  1  0.38755659  0.86668145  0.99224698  1
  H+  H22  1  0.88027599  1.01667357  -0.00296624  1
  H+  H23  1  0.12305025  0.64738238  1.00710075  1
  H+  H24  1  0.42796402  0.58154342  0.90011696  1
  H+  H25  1  0.76352458  0.14752288  0.48848168  1
  H+  H26  1  0.60718636  0.22031305  0.35363825  1
  H+  H27  1  0.46349000  0.35856864  0.51340675  1
  H+  H28  1  0.12061002  0.14006799  0.64293200  1
  H+  H29  1  0.87002627  0.14138821  0.68454386  1
  H+  H30  1  0.11517232  -0.02087302  0.48561401  1
  H+  H31  1  0.11019907  0.63509099  0.48417213  1
  H+  H32  1  0.52117207  0.13187011  0.16469766  1
  H+  H33  1  0.98513467  0.87926991  0.65951455  1
  H+  H34  1  0.81744919  0.48697059  0.61185480  1
  H+  H35  1  -0.02732669  0.35637393  0.17628893  1
  H+  H36  1  0.85434222  0.47794517  0.48898160  1
  H+  H37  1  0.67215648  0.71824193  0.65541824  1
  H+  H38  1  0.39500816  0.32212478  0.23036493  1
  H+  H39  1  0.23003725  0.87141661  0.17298665  1
  H+  H40  1  0.62425730  0.23136205  0.82315220  1
  H+  H41  1  0.63903649  0.11040158  0.17755485  1
  H+  H42  1  0.72300232  0.86439457  0.18002429  1
  H+  H43  1  0.02622436  0.89658883  0.83180926  1
  H+  H44  1  0.22864456  0.37406922  0.66957955  1
  H+  H45  1  0.86321443  0.88920412  0.16428955  1
  H+  H46  1  0.37222929  0.26615994  0.49804625  1
  H+  H47  1  0.88475083  0.86073579  0.50426093  1
  H+  H48  1  0.62436683  -0.03233174  0.67421773  1
  H+  H49  1  0.22315144  0.36264063  0.17284819  1
  H+  H50  1  0.22615412  0.61694222  0.50335356  1
  H+  H51  1  0.60840929  0.64067124  0.02994211  1
  H+  H52  1  0.86948134  0.73675886  0.15931380  1
  H+  H53  1  0.97890404  0.87010034  0.32598631  1
  H+  H54  1  0.36532445  0.39509668  0.01225929  1
  H+  H55  1  0.12444775  0.64458803  0.83065854  1
  H+  H56  1  0.32766931  0.41656372  0.39616022  1
  H+  H57  1  0.86805558  0.89250473  0.67162927  1
  H+  H58  1  0.15987523  0.08368754  0.23250666  1
  H+  H59  1  0.17149295  0.84121746  0.26616652  1
  H+  H60  1  0.10553098  0.37889897  0.81325615  1
  H+  H61  1  0.60798140  0.38076177  0.32787266  1
  H+  H62  1  0.62957614  0.10692802  0.51815806  1
  H+  H63  1  0.07681541  0.16683249  0.10173104  1
  H+  H64  1  0.84516340  0.36838383  0.69690196  1
  H+  H65  1  0.96222774  0.59549866  0.71543623  1
  H+  H66  1  0.88050143  0.52465468  0.32758411  1
  H+  H67  1  0.46005473  0.34627972  0.17345570  1
  H+  H68  1  0.14054660  0.86694763  0.48700660  1
  H+  H69  1  0.73588997  0.35616365  0.77706013  1
  H+  H70  1  0.90949811  0.65527481  0.84430906  1
  H+  H71  1  0.77096660  0.88042423  0.00789356  1
  H+  H72  1  0.87607069  0.61117711  0.17444373  1
  H+  H73  1  0.49332975  0.12248790  0.68014077  1
  H+  H74  1  0.13556003  0.52247232  0.32312883  1
  H+  H75  1  0.36714285  0.48365783  0.01154973  1
  H+  H76  1  0.20028575  0.17145916  0.28898538  1
  H+  H77  1  0.11497071  0.39499368  0.66844049  1
  H+  H78  1  0.21244988  0.35934423  0.32622941  1
  H+  H79  1  0.74452691  0.63525662  0.99858799  1
  H+  H80  1  0.03427909  0.64810020  0.00396698  1
  H+  H81  1  0.11131552  -0.02379699  0.16193571  1
  H+  H82  1  0.09121813  0.37894864  -0.00104808  1
  H+  H83  1  0.20549593  0.58096519  0.82728689  1
  H+  H84  1  0.57059768  0.76410938  0.85854593  1
  H+  H85  1  0.11391319  0.97972298  0.01061953  1
  H+  H86  1  0.60281357  0.73430096  0.17311878  1
  H+  H87  1  0.07465739  0.40479804  0.39239319  1
  H+  H88  1  0.36126202  0.47674588  0.48723818  1
  H+  H89  1  0.97927476  0.86747711  0.17583288  1
  H+  H90  1  0.11572550  0.13062126  0.49258102  1
  H+  H91  1  0.76351674  0.87617025  0.82143849  1
  H+  H92  1  0.37406083  0.03948045  0.83849938  1
  H+  H93  1  0.88400913  1.02269171  0.17405384  1
  H+  H94  1  0.07553386  0.15366055  0.43609864  1
  H+  H95  1  0.36302823  -0.03348415  0.50306463  1
  H+  H96  1  0.48661870  0.86025142  0.66376703  1
  H+  H97  1  0.89115834  0.87968276  0.84339765  1
  H+  H98  1  0.87263559  0.34974246  0.98596880  1
  H+  H99  1  0.01148575  0.38939259  0.00497768  1
  H+  H100  1  0.97124029  0.36650940  0.52470815  1
  H+  H101  1  0.60574633  0.72421714  0.49708723  1
  H+  H102  1  0.27524355  0.38303641  0.83024706  1
  H+  H103  1  0.38687330  0.86647646  0.32898544  1
  H+  H104  1  0.47470600  0.61377903  0.18319004  1
  H+  H105  1  0.12146889  0.90426918  0.33041476  1
  H+  H106  1  0.61073352  0.64891884  0.16883595  1
  H+  H107  1  0.22142156  0.36327874  0.48513427  1
  H+  H108  1  0.87578622  0.61674206  0.49223160  1
  H+  H109  1  0.38704822  0.36343808  0.84261739  1
  H+  H110  1  0.38639704  0.77708535  0.32727013  1
  H+  H111  1  0.13918135  0.52837716  0.51862589  1
  H+  H112  1  0.35641399  0.14321713  0.01595688  1
  H+  H113  1  0.88471780  0.37053440  0.51137627  1
  H+  H114  1  0.72590327  0.11536116  0.00282587  1
  H+  H115  1  0.63423176  0.86191893  0.50661826  1
  H+  H116  1  0.62027496  0.14307120  0.83438975  1
  H+  H117  1  0.47490879  0.85895586  0.50989556  1
  H+  H118  1  0.08494471  0.91747441  0.06918703  1
  H+  H119  1  0.35984894  0.38267688  0.67531270  1
  H+  H120  1  0.36482699  0.23132844  0.67353865  1
  H+  H121  1  0.10311954  0.37853817  0.33181688  1
  H+  H122  1  0.13940424  0.77759268  0.48649074  1
  H+  H123  1  0.36766030  0.60575266  0.32576287  1
  H+  H124  1  0.79000109  0.50676605  0.61770906  1
  H+  H125  1  0.89025509  0.52602845  0.98422889  1
  H+  H126  1  0.39062686  0.61770543  0.99092632  1
  H+  H127  1  0.67320389  0.05079010  0.84172413  1
  H+  H128  1  0.72878681  0.63630533  0.16749154  1
  H+  H129  1  0.91745190  0.59189361  0.54581984  1
  H+  H130  1  0.13688866  0.53129843  0.00065801  1
  H+  H131  1  0.38081359  0.51693650  0.65648048  1
  H+  H132  1  0.97325731  0.11133274  0.65131105  1
  H+  H133  1  0.85830770  0.72707590  0.49412699  1
  H+  H134  1  0.61741392  -0.02369884  0.16714404  1
  H+  H135  1  0.35018581  0.38300556  0.33439866  1
  H+  H136  1  0.63847324  0.84109633  0.66071209  1
  H+  H137  1  0.63879834  0.77961524  0.33455123  1
  H+  H138  1  0.28093869  0.90563700  0.82815551  1
  H+  H139  1  0.37557950  0.11401808  0.32986388  1
  H+  H140  1  0.13485368  0.61127267  0.31966413  1
  H+  H141  1  0.83259003  0.42137061  0.39950987  1
  H+  H142  1  0.72303786  0.85951219  0.50438101  1
  H+  H143  1  0.61389626  0.36430994  0.66827443  1
  H+  H144  1  0.36194887  0.72396287  0.49334896  1
  H+  H145  1  0.36134819  0.97912117  0.34216061  1
  H+  H146  1  0.13188658  1.02979991  0.84476937  1
  H+  H147  1  0.46510515  0.11445203  0.33357333  1
  H+  H148  1  0.32323407  0.91994417  0.63332615  1
  H+  H149  1  0.36490722  0.63992413  0.16158775  1
  H+  H150  1  0.10364451  0.64032155  0.68193776  1
  H+  H151  1  0.61981863  0.64740083  0.34146992  1
  H+  H152  1  0.85919447  0.63831565  0.34196554  1
  H+  H153  1  0.86401862  0.31963304  0.83797508  1
  H+  H154  1  0.89216570  0.79230807  0.84852730  1
  H+  H155  1  0.35982260  0.38593045  0.48791288  1
  H+  H156  1  0.37363041  0.14694457  0.68635661  1
  H+  H157  1  0.53317385  0.60927447  0.81996258  1
  H+  H158  1  0.38481411  0.52046954  0.17751486  1
  H+  H159  1  0.63553204  0.86905323  0.18021812  1
  H+  H160  1  0.38514996  0.27814866  0.99480978  1
  H+  H161  1  0.77211650  0.38648811  -0.00463521  1
  H+  H162  1  0.86017442  0.38946386  0.34015737  1
  H+  H163  1  0.77528142  0.13597411  0.16463573  1
  H+  H164  1  0.58879984  0.35200291  0.17057841  1
  H+  H165  1  0.37483692  0.16601197  0.47316150  1
  H+  H166  1  0.35106916  0.22327537  0.16280430  1
  H+  H167  1  0.34251228  0.67312724  0.06359338  1
  H+  H168  1  0.52527995  0.89055449  0.34195815  1
  H+  H169  1  0.88730750  0.86500516  0.32924228  1
  H+  H170  1  0.11254432  0.89517554  0.67929322  1
  H+  H171  1  0.62156359  0.21763258  0.68265321  1
  H+  H172  1  0.22623100  0.86637772  0.32805202  1
  H+  H173  1  0.36428593  0.50805920  0.32570964  1
  H+  H174  1  0.87722830  0.74283289  0.68122290  1
  H+  H175  1  0.36769176  0.08923462  0.53754179  1
  H+  H176  1  0.96930161  0.09816405  0.50600496  1
  H+  H177  1  0.27622680  0.89146613  1.00859399  1
  H+  H178  1  0.02128710  0.63548991  0.47760703  1
  H+  H179  1  0.87809595  1.02184275  0.83909528  1
  H+  H180  1  0.86280601  0.88581048  0.01033540  1
  H+  H181  1  0.53019307  0.14271942  0.01764530  1
  H+  H182  1  0.04902198  0.66742315  0.83605380  1
  H+  H183  1  0.11178206  0.38685399  0.15813166  1
  H+  H184  1  -0.03164142  0.61409188  0.32024534  1
  H+  H185  1  0.96632840  0.36310300  0.66231697  1
  H+  H186  1  0.52971936  0.88820053  -0.01829581  1
  H+  H187  1  0.39434625  0.60101791  0.83814308  1
  H+  H188  1  0.01815859  0.13623871  0.16185377  1
  H+  H189  1  0.85846064  0.96801704  0.49622385  1
  H+  H190  1  0.77135114  0.88531782  0.34281069  1
  H+  H191  1  0.12841504  0.10907553  0.17128455  1
  H+  H192  1  0.85960848  0.97444239  0.34211015  1
  H+  H193  1  0.11448345  0.88812547  0.16237469  1
  H+  H194  1  0.45785100  0.35217573  0.31513861  1
  H+  H195  1  0.71973587  0.11778823  0.33045103  1
  H+  H196  1  0.92187643  0.47888851  0.85941882  1
  H+  H197  1  0.14458847  0.78321880  0.99277324  1
  H+  H198  1  0.60588054  0.63634451  0.50236062  1
  H+  H199  1  0.40777531  0.90427059  0.83395751  1
  H+  H200  1  0.12019535  -0.00709156  0.32842700  1
  H+  H201  1  0.66709046  0.83958067  0.27470317  1
  H+  H202  1  0.62063397  0.14399521  0.01087718  1
  H+  H203  1  0.62289750  0.69203892  0.81444424  1
  H+  H204  1  0.13650234  0.53670609  0.65555573  1
  H+  H205  1  0.27626450  0.63902007  0.15749741  1
  H+  H206  1  0.12619015  0.65122367  0.15828000  1
  H+  H207  1  0.90849457  0.07809204  0.26858203  1
  H+  H208  1  0.61827053  -0.02317202  0.98615135  1
  H+  H209  1  0.64779521  0.58701085  0.83776797  1
  H+  H210  1  0.14209949  0.28716538  0.65420278  1
  H+  H211  1  0.86262102  0.72923134  0.34230902  1
  H+  H212  1  0.85697784  0.21700090  0.01029476  1
  H+  H213  1  0.13337464  0.27305415  0.48896342  1
  H+  H214  1  0.51900375  0.36944687  0.81592240  1
  H+  H215  1  0.63306878  0.27240468  0.99670292  1
  H+  H216  1  0.59229347  0.16083473  0.74410832  1
  H+  H217  1  0.46840430  0.60967724  0.50455845  1
  H+  H218  1  0.26361908  0.13144695  0.16215851  1
  H+  H219  1  0.89127787  0.56741328  0.23207099  1
  H+  H220  1  0.61493314  0.89130854  0.34399251  1
  H+  H221  1  0.38474374  0.85672486  0.51109262  1
  H+  H222  1  0.12929046  0.27933100  0.82317206  1
  H+  H223  1  0.21297744  0.85611315  0.68001762  1
  H+  H224  1  0.87785463  0.21439595  0.77528290  1
  H+  H225  1  0.92403573  0.59254509  0.92834020  1
  H+  H226  1  0.76947031  0.38483215  0.49423954  1
  H+  H227  1  0.91817459  0.83587537  0.23506769  1
  H+  H228  1  0.63367552  0.25872712  0.18040291  1
  H+  H229  1  0.82467434  0.91109942  0.76337161  1
  H+  H230  1  0.87963365  0.10534507  -0.00169971  1
  H+  H231  1  0.33479402  0.91385229  0.06910785  1
  H+  H232  1  0.87684012  0.73750204  0.00294326  1
  H+  H233  1  0.33113876  0.68512354  0.83340853  1
  H+  H234  1  0.88829415  0.30008467  0.93105125  1
  H+  H235  1  0.87345587  0.64550576  0.00148915  1
  H+  H236  1  0.63629456  0.36012359  0.52828024  1
  H+  H237  1  0.46455139  0.35521783  0.64700087  1
  H+  H238  1  0.09763834  0.21309232  0.34278025  1
  H+  H239  1  0.47847970  0.61752283  0.99854243  1
  H+  H240  1  0.08494841  0.17571930  0.59311718  1
  H+  H241  1  0.55650976  0.92440556  0.83156008  1
  H+  H242  1  0.72591739  0.36624619  0.33267662  1
  H+  H243  1  0.63163122  0.26864379  0.51909653  1
  H+  H244  1  0.86400727  0.22734810  0.68117293  1
  H+  H245  1  0.72772571  0.61630834  0.32625770  1
  H+  H246  1  -0.00222253  0.14935552  0.81766104  1
  H+  H247  1  0.61164852  0.47824418  1.01782489  1
  H+  H248  1  0.63235566  0.77060060  1.00219685  1
  H+  H249  1  0.60964414  0.97347491  0.49942450  1
  H+  H250  1  0.11371749  0.38451953  0.51502743  1
  H+  H251  1  0.13332809  0.27248489  0.17230257  1
  H+  H252  1  0.26220193  0.13709991  0.33668719  1
  H+  H253  1  0.42434329  0.83019630  0.60460899  1
  H+  H254  1  0.35709325  0.38653942  0.16318891  1
  H+  H255  1  0.40316204  0.03453478  0.67866674  1
  H+  H256  1  0.74666803  0.46207904  0.10891012  1
  H+  H257  1  0.47591168  0.36567760  0.99414052  1
  H+  H258  1  0.36640531  -0.01984106  0.16230369  1
  H+  H259  1  0.10480976  0.12813392  0.33820102  1
  H+  H260  1  0.23406180  0.11859920  0.66106812  1
  H+  H261  1  0.36786535  0.24927363  0.83193367  1
  H+  H262  1  0.62938195  0.90025120  0.83490560  1
  H+  H263  1  0.27208837  0.64232101  0.67381362  1
  H+  H264  1  0.38713440  0.77716264  0.17349543  1
  H+  H265  1  0.26997790  0.63559851  0.33829147  1
  H+  H266  1  0.09310665  0.24891314  0.98139172  1
  H+  H267  1  0.72258953  0.35350346  0.67497329  1
  H+  H268  1  0.36847576  0.26368421  0.32531820  1
  H+  H269  1  0.21187297  0.12381604  0.84404193  1
  H+  H270  1  0.67016618  0.61554155  0.58505108  1
  H+  H271  1  0.14444393  1.02997454  0.66035306  1
  H+  H272  1  0.85468989  0.13687172  0.33653945  1
  H+  H273  1  0.37880027  0.60368934  0.65479321  1
  H+  H274  1  0.42421478  0.82822665  0.82063501  1
  H+  H275  1  0.61170896  0.37485549  0.80585737  1
  H+  H276  1  0.88501091  0.11272773  0.17441411  1
  H+  H277  1  0.61201392  0.47908781  0.53833199  1
  H+  H278  1  0.10671148  0.13533923  1.00827060  1
  H+  H279  1  0.23753109  0.12038166  0.49770256  1
  H+  H280  1  0.36589215  0.72536079  0.67725677  1
  H+  H281  1  0.92123973  0.58736140  0.81037968  1
  H+  H282  1  0.12216665  0.77321426  0.67573239  1
  H+  H283  1  -0.03386621  0.10635093  0.32875574  1
  H+  H284  1  0.63846655  0.86048522  0.98225839  1
  H+  H285  1  0.51507564  0.13152778  0.51015752  1
  H+  H286  1  0.38230805  0.11635287  0.17569346  1
  H+  H287  1  0.41782587  0.09417525  1.06959510  1
  H+  H288  1  0.78546346  0.64969237  0.83994773  1
  H+  H289  1  0.35932886  0.63352251  0.49144868  1
  H+  H290  1  0.56346222  0.40995301  0.37681257  1
  H+  H291  1  0.33478198  0.18429722  0.76505214  1
  H+  H292  1  0.58532658  0.16504036  0.10651054  1
  H+  H293  1  0.88347659  0.02451662  0.66337293  1
  H+  H294  1  0.03287868  0.26339211  0.93795188  1
  H+  H295  1  0.33944826  0.41504707  0.73795911  1
  H+  H296  1  0.14305038  0.78012787  0.17223504  1
  H+  H297  1  0.65096890  0.32401346  0.93474951  1
  H+  H298  1  0.40404961  0.57413851  0.56163259  1
  H+  H299  1  0.73505357  0.10852582  0.67045410  1
  H+  H300  1  0.11656832  0.89743701  0.82997426  1
  H+  H301  1  0.58056939  0.91723669  0.43817724  1
  H+  H302  1  0.56621344  0.38796028  0.11064421  1
  H+  H303  1  0.22827529  0.61728289  1.00032565  1
  H+  H304  1  0.41525226  0.83579655  0.23365968  1
  H+  H305  1  0.15952352  0.08498704  0.93875874  1
  H+  H306  1  0.83073226  0.16142425  0.07212208  1
  H+  H307  1  0.59769522  0.91309018  0.73428180  1
  H+  H308  1  0.39442682  0.09436959  0.89966247  1
  H+  H309  1  0.89744912  0.33022285  0.60942669  1
  H+  H310  1  0.33738419  0.91934211  0.40151895  1
  H+  H311  1  0.40097319  0.57374374  0.26037437  1
  H+  H312  1  0.60243742  0.12993780  0.35121381  1
  H+  H313  1  0.15056441  0.32784838  0.88591134  1
  H+  H314  1  0.64769553  0.80632027  0.90486810  1
  H+  H315  1  0.82103099  0.66733624  0.43488122  1
  H+  H316  1  0.67707372  0.56320175  0.89958176  1
  H+  H317  1  1.00357557  0.68147875  0.60258960  1
  H+  H318  1  0.22056356  0.11756062  0.99794983  1
  H+  H319  1  0.90928535  0.07773222  0.89926811  1
  H+  H320  1  0.60663332  0.44267556  0.47443771  1
  H+  H321  1  0.18442305  0.85438452  0.90279507  1
  H+  H322  1  0.67261889  0.60323547  0.22768324  1
  H+  H323  1  0.33569984  0.93634788  0.76616450  1
  H+  H324  1  0.90630655  0.07308763  0.56278366  1
  H+  H325  1  0.57108494  0.15966517  0.44869020  1
  H+  H326  1  0.92428227  0.84924495  0.93750388  1
  H+  H327  1  0.84155778  0.69331635  0.77981615  1
  H+  H328  1  0.82415332  0.42140910  0.05524156  1
  H+  H329  1  0.58798510  0.67194301  0.40188870  1
  H+  H330  1  0.08173396  0.66366040  0.38649564  1
  H+  H331  1  0.07452164  0.42172242  0.72111914  1
  H+  H332  1  0.00629344  0.34170496  0.80264158  1
  H+  H333  1  0.66959504  0.07874027  0.57244989  1
  H+  H334  1  0.67431785  0.09861527  0.94058471  1
  H+  H335  1  0.32783018  0.65027207  0.76566018  1
  H+  H336  1  0.41889852  0.33106842  0.90159751  1
  H+  H337  1  0.82988254  0.91538892  0.10501832  1
  H+  H338  1  0.97529891  0.86341445  0.50012759  1
  H+  H339  1  0.06519071  0.15663871  0.76834185  1
  H+  H340  1  0.14305740  0.87188849  0.99590682  1
  H+  H341  1  0.41242778  0.08676446  0.23501140  1
  H+  H342  1  0.92482704  0.84267430  0.59984848  1
  H+  H343  1  0.01287985  0.12604113  0.00987642  1
  H+  H344  1  0.57270384  0.67325830  0.08415905  1
  H+  H345  1  0.61219386  0.39084299  0.00776899  1
  H+  H346  1  0.98073096  0.45156538  0.82672523  1
  H+  H347  1  0.82569302  0.17555420  0.39269643  1
  H+  H348  1  0.63326216  0.62873186  0.68862169  1
  H+  H349  1  0.77464645  0.88253935  0.66878369  1
  H+  H350  1  0.84368862  0.45378491  0.71715319  1
  H+  H351  1  0.84284974  0.67874008  0.09894662  1
  H+  H352  1  0.41986191  0.08228345  0.59268090  1
  H+  H353  1  0.18017504  0.08388802  0.55877645  1
  H+  H354  1  0.86499363  0.22581353  0.16431336  1
  H+  H355  1  0.52798393  0.88923803  0.16580764  1
  H+  H356  1  0.82647559  0.48721255  0.15198389  1
  H+  H357  1  0.33137502  0.66400468  0.39767726  1
  H+  H358  1  0.11109984  0.72565020  0.32915954  1
  H+  H359  1  0.66851963  0.82403168  0.59667850  1
  H+  H360  1  0.33378787  0.42408559  0.10458550  1
  H+  H361  1  1.00879510  0.64266362  0.59890401  1
  H+  H362  1  0.67129107  0.32478338  0.60958959  1
  H+  H363  1  0.70831497  0.35771092  0.17154146  1
  H+  H364  1  0.07846862  0.41490146  0.09962720  1
  H+  H365  1  0.91392897  0.32872340  0.23563172  1
  H+  H366  1  0.57259235  0.39743343  0.72755470  1
  H+  H367  1  0.14008603  0.52465822  0.16801956  1
  H+  H368  1  0.09731760  0.68348941  0.10062792  1
  H+  H369  1  0.82871473  0.90986962  0.43566472  1
  H+  H370  1  0.41602915  0.84325870  0.92984927  1
  H+  H371  1  0.37927399  0.88863268  0.66751185  1
  H+  H372  1  0.27207995  0.88225747  0.48942823  1
  H+  H373  1  0.17190504  0.58306438  0.22773683  1
  H+  H374  1  0.73969767  0.38782420  0.84313099  1
  H+  H375  1  0.74591633  0.15085417  0.85041951  1
  H+  H376  1  0.08278359  0.92606349  0.42398811  1
  H+  H377  1  0.08380624  0.93063632  0.73564271  1
  H+  H378  1  0.32361518  0.17456182  0.07072114  1
  H+  H379  1  0.16862113  0.60314716  0.60045970  1
  H+  H380  1  0.32275074  0.17346681  0.39834636  1
  H+  H381  1  0.39628772  0.32233524  0.59292597  1
  H+  H382  1  0.66629142  0.32630458  0.27394281  1
  H+  H383  1  0.11189321  0.50322645  0.82371423  1
  O2-  O384  1  0.07932765  0.16742985  0.14720191  1
  O2-  O385  1  0.08030762  0.15750139  0.48163021  1
  O2-  O386  1  0.04947848  0.19118647  0.79331127  1
  O2-  O387  1  0.08195206  0.41831374  0.14488899  1
  O2-  O388  1  0.08505470  0.41701603  0.53239381  1
  O2-  O389  1  0.06313444  0.39554649  0.79792137  1
  O2-  O390  1  0.10105206  0.68677439  0.14561324  1
  O2-  O391  1  0.08193002  0.66439815  0.46398022  1
  O2-  O392  1  0.10898408  0.69001105  0.82117804  1
  O2-  O393  1  0.08147955  0.91551161  0.14626867  1
  O2-  O394  1  0.08084390  0.91947398  0.46912334  1
  O2-  O395  1  0.08578883  0.92643229  0.81431478  1
  O2-  O396  1  0.32456945  0.16229745  0.14675369  1
  O2-  O397  1  0.33207899  0.18384584  0.47130711  1
  O2-  O398  1  0.33043309  0.18451578  0.81231689  1
  O2-  O399  1  0.33056899  0.42186492  0.15074180  1
  O2-  O400  1  0.33233624  0.41736093  0.46935348  1
  O2-  O401  1  0.33755384  0.40959122  0.81872446  1
  O2-  O402  1  0.33818071  0.67186114  0.14408847  1
  O2-  O403  1  0.33011112  0.66504574  0.47537016  1
  O2-  O404  1  0.32290143  0.63523819  0.81057831  1
  O2-  O405  1  0.33706596  0.92080437  0.14534719  1
  O2-  O406  1  0.33700050  0.91103399  0.48157953  1
  O2-  O407  1  0.34162163  0.94081048  0.81056956  1
  O2-  O408  1  0.58251467  0.15886314  0.15165048  1
  O2-  O409  1  0.57459253  0.16289133  0.49422234  1
  O2-  O410  1  0.58817371  0.16923383  0.81592217  1
  O2-  O411  1  0.55559611  0.37862592  0.15453616  1
  O2-  O412  1  0.58837234  0.42324690  0.51588360  1
  O2-  O413  1  0.57244525  0.39463762  0.79139016  1
  O2-  O414  1  0.57164565  0.67331999  0.15765831  1
  O2-  O415  1  0.57486208  0.66306231  0.48298590  1
  O2-  O416  1  0.59197522  0.63094527  0.80358879  1
  O2-  O417  1  0.58875192  0.91581337  0.15276315  1
  O2-  O418  1  0.57844667  0.91303361  0.48371208  1
  O2-  O419  1  0.61450120  0.94100925  0.81584313  1
  O2-  O420  1  0.83466251  0.16477771  0.14728024  1
  O2-  O421  1  0.81383215  0.18772651  0.46405946  1
  O2-  O422  1  0.91096771  0.24850525  0.81233169  1
  O2-  O423  1  0.78176776  0.43843723  0.12357197  1
  O2-  O424  1  0.82878228  0.41607353  0.47746974  1
  O2-  O425  1  0.92047699  0.43414720  0.83365898  1
  O2-  O426  1  0.83711141  0.67627948  0.14392806  1
  O2-  O427  1  0.82285693  0.66563679  0.48061051  1
  O2-  O428  1  0.84534013  0.69314430  0.82530129  1
  O2-  O429  1  0.83081102  0.91797062  0.15038357  1
  O2-  O430  1  0.82658537  0.90601814  0.48114162  1
  O2-  O431  1  0.82356018  0.91073041  0.80929006  1
  O2-  O432  1  0.15905512  0.07886925  0.18588194  1
  O2-  O433  1  0.17619684  0.08379233  0.51379677  1
  O2-  O434  1  0.15641728  0.08767103  0.86382281  1
  O2-  O435  1  0.16250027  0.33291749  0.18809098  1
  O2-  O436  1  0.15786529  0.33612835  0.48711563  1
  O2-  O437  1  0.16718983  0.33764602  0.84217755  1
  O2-  O438  1  0.17413659  0.58558096  0.18251142  1
  O2-  O439  1  0.16671034  0.59230006  0.52048454  1
  O2-  O440  1  0.14543363  0.56409614  0.83618424  1
  O2-  O441  1  0.17025130  0.84153343  0.18895494  1
  O2-  O442  1  0.17289265  0.83810131  0.49993249  1
  O2-  O443  1  0.18637388  0.85567156  0.85694800  1
  O2-  O444  1  0.41472062  0.08727721  0.18939135  1
  O2-  O445  1  0.40926711  0.07120463  0.54751425  1
  O2-  O446  1  0.39086249  0.09752757  0.85566499  1
  O2-  O447  1  0.39716600  0.32292393  0.18486581  1
  O2-  O448  1  0.40103985  0.32877521  0.52035563  1
  O2-  O449  1  0.41671428  0.32968776  0.85520246  1
  O2-  O450  1  0.41205951  0.57997470  0.19629470  1
  O2-  O451  1  0.40596016  0.57778266  0.51551034  1
  O2-  O452  1  0.42836630  0.57578739  0.85458423  1
  O2-  O453  1  0.41571514  0.83780953  0.18822115  1
  O2-  O454  1  0.41517582  0.82681841  0.52716370  1
  O2-  O455  1  0.44203314  0.87704204  0.84774616  1
  O2-  O456  1  0.67205209  0.08383608  0.19372159  1
  O2-  O457  1  0.66215273  0.07702714  0.52743569  1
  O2-  O458  1  0.68696441  0.10634850  0.86096400  1
  O2-  O459  1  0.65750077  0.31831571  0.19684305  1
  O2-  O460  1  0.66822116  0.32863668  0.53477014  1
  O2-  O461  1  0.69907234  0.34857887  0.81328050  1
  O2-  O462  1  0.66902054  0.60956030  0.18306678  1
  O2-  O463  1  0.66350051  0.59440533  0.54250843  1
  O2-  O464  1  0.68982516  0.57235666  0.85603830  1
  O2-  O465  1  0.66381229  0.83616714  0.19711739  1
  O2-  O466  1  0.66275178  0.82952755  0.52094296  1
  O2-  O467  1  0.63302391  0.79986727  0.85966963  1
  O2-  O468  1  0.91608495  0.08306451  0.18991414  1
  O2-  O469  1  0.90813155  0.06522821  0.51845933  1
  O2-  O470  1  0.90815279  0.08142635  0.85436388  1
  O2-  O471  1  0.91274743  0.32141346  0.19076881  1
  O2-  O472  1  0.90806328  0.33694006  0.53183168  1
  O2-  O473  1  0.84935741  0.25998409  0.84951095  1
  O2-  O474  1  0.88815861  0.56513442  0.18697226  1
  O2-  O475  1  0.90871880  0.58551038  0.50191350  1
  O2-  O476  1  0.93897046  0.62018833  0.84932821  1
  O2-  O477  1  0.91788128  0.83803734  0.18953625  1
  O2-  O478  1  0.91697985  0.83172850  0.51915061  1
  O2-  O479  1  0.92491748  0.85455650  0.86106791  1
  O2-  O480  1  0.17243411  0.11191275  0.30305478  1
  O2-  O481  1  0.17685327  0.08865045  0.64133721  1
  O2-  O482  1  0.15946337  0.08371313  0.98473186  1
  O2-  O483  1  0.15243133  0.32801606  0.31063784  1
  O2-  O484  1  0.16913207  0.35028242  0.65367178  1
  O2-  O485  1  0.09092421  0.29370038  0.95469863  1
  O2-  O486  1  0.16880177  0.58273322  0.30836489  1
  O2-  O487  1  0.16702824  0.59940964  0.64594819  1
  O2-  O488  1  0.16703896  0.59254591  0.98896577  1
  O2-  O489  1  0.16654203  0.83923848  0.31179300  1
  O2-  O490  1  0.15555797  0.83463744  0.66320554  1
  O2-  O491  1  0.17639264  0.84527974  0.97926427  1
  O2-  O492  1  0.40703644  0.08424384  0.31467327  1
  O2-  O493  1  0.43048659  0.09615543  0.66758968  1
  O2-  O494  1  0.41663021  0.08817987  1.02536470  1
  O2-  O495  1  0.39519841  0.32413445  0.30748598  1
  O2-  O496  1  0.40223308  0.32344991  0.63932591  1
  O2-  O497  1  0.41753583  0.33629720  0.97551864  1
  O2-  O498  1  0.39327575  0.57013598  0.30876110  1
  O2-  O499  1  0.40589395  0.57347730  0.63573538  1
  O2-  O500  1  0.42213346  0.58773731  0.97696589  1
  O2-  O501  1  0.41801738  0.83740454  0.31273821  1
  O2-  O502  1  0.42509312  0.83321361  0.65041523  1
  O2-  O503  1  0.41488264  0.83504391  0.97429163  1
  O2-  O504  1  0.65752341  0.08607640  0.31818247  1
  O2-  O505  1  0.67582041  0.07550925  0.65318647  1
  O2-  O506  1  0.66636251  0.09204497  0.98551361  1
  O2-  O507  1  0.66429765  0.33182604  0.31923131  1
  O2-  O508  1  0.66354093  0.32244914  0.65528961  1
  O2-  O509  1  0.65976715  0.33241181  0.97851197  1
  O2-  O510  1  0.66905612  0.59057658  0.30798099  1
  O2-  O511  1  0.61963938  0.47866413  0.65256187  1
  O2-  O512  1  0.68219554  0.61061608  0.98529288  1
  O2-  O513  1  0.66813429  0.84169923  0.32031399  1
  O2-  O514  1  0.67303612  0.81810062  0.64193105  1
  O2-  O515  1  0.66682054  0.82385594  0.97772038  1
  O2-  O516  1  0.90522101  0.07771616  0.31408346  1
  O2-  O517  1  0.90989423  0.08462576  0.64769417  1
  O2-  O518  1  0.91170039  0.07741778  0.98196785  1
  O2-  O519  1  0.90895399  0.33848583  0.31580488  1
  O2-  O520  1  0.90308171  0.33001749  0.65494613  1
  O2-  O521  1  0.90145431  0.31656224  0.97426055  1
  O2-  O522  1  0.90567802  0.58470780  0.31151020  1
  O2-  O523  1  0.90138614  0.56400097  0.73054458  1
  O2-  O524  1  0.92109795  0.58807974  0.97333329  1
  O2-  O525  1  0.91744104  0.83440147  0.31379427  1
  O2-  O526  1  0.92409125  0.84506787  0.64526929  1
  O2-  O527  1  0.92154186  0.84119245  0.98284813  1
  O2-  O528  1  0.07420538  0.16381877  0.02303981  1
  O2-  O529  1  0.06917484  0.15298502  0.35738092  1
  O2-  O530  1  0.08650402  0.17014169  0.63724678  1
  O2-  O531  1  0.07154185  0.41547065  0.01923480  1
  O2-  O532  1  0.07660014  0.41288231  0.34846375  1
  O2-  O533  1  0.08005979  0.42498778  0.67583004  1
  O2-  O534  1  0.09413193  0.68193333  0.01854696  1
  O2-  O535  1  0.08058001  0.66367992  0.34088865  1
  O2-  O536  1  0.07157417  0.66497436  0.70268513  1
  O2-  O537  1  0.08568039  0.91798335  0.02338327  1
  O2-  O538  1  0.08958476  0.93376565  0.34408254  1
  O2-  O539  1  0.08595021  0.93126556  0.69018490  1
  O2-  O540  1  0.32670839  0.17594945  0.02478518  1
  O2-  O541  1  0.32427500  0.16671895  0.35214400  1
  O2-  O542  1  0.33899842  0.17488406  0.69670191  1
  O2-  O543  1  0.33817016  0.42572281  0.03049719  1
  O2-  O544  1  0.32281732  0.41618321  0.34993755  1
  O2-  O545  1  0.33445880  0.41596351  0.69291963  1
  O2-  O546  1  0.34060432  0.66972286  0.01822826  1
  O2-  O547  1  0.33153942  0.66334601  0.35185336  1
  O2-  O548  1  0.33079223  0.66490013  0.69154394  1
  O2-  O549  1  0.33740753  0.91959702  0.02344328  1
  O2-  O550  1  0.33441085  0.91811255  0.35613568  1
  O2-  O551  1  0.34578089  0.92011765  0.67381051  1
  O2-  O552  1  0.59258920  0.17725180  0.02699996  1
  O2-  O553  1  0.57283088  0.16031530  0.36850574  1
  O2-  O554  1  0.59182086  0.15727707  0.69765783  1
  O2-  O555  1  0.57965280  0.41653161  0.02633356  1
  O2-  O556  1  0.57233442  0.41001223  0.33323990  1
  O2-  O557  1  0.57496493  0.39228110  0.67854423  1
  O2-  O558  1  0.57597523  0.67044851  0.03797754  1
  O2-  O559  1  0.59342941  0.68051347  0.35720799  1
  O2-  O560  1  0.67765738  0.66606188  0.65969892  1
  O2-  O561  1  0.59239575  0.91539852  -0.02491672  1
  O2-  O562  1  0.58422167  0.92160137  0.35953960  1
  O2-  O563  1  0.59155559  0.90695630  0.68939452  1
  O2-  O564  1  0.82709765  0.15706460  0.02620691  1
  O2-  O565  1  0.82689469  0.17144281  0.34686685  1
  O2-  O566  1  0.84102590  0.17134771  0.70322024  1
  O2-  O567  1  0.83206136  0.41481143  0.01086255  1
  O2-  O568  1  0.83130423  0.42234653  0.35411950  1
  O2-  O569  1  0.80811441  0.38981864  0.71467951  1
  O2-  O570  1  0.84432759  0.67632051  0.01772205  1
  O2-  O571  1  0.82948905  0.66905285  0.35809600  1
  O2-  O572  1  0.84043183  0.68615604  0.70152747  1
  O2-  O573  1  0.83013694  0.91391322  0.02520050  1
  O2-  O574  1  0.83277184  0.91371075  0.35704848  1
  O2-  O575  1  0.83308914  0.91773668  0.68747470  1
