# generated using pymatgen
data_H2O
_symmetry_space_group_name_H-M   'P 1'
_cell_length_a   18.00012967
_cell_length_b   17.99104182
_cell_length_c   22.00464233
_cell_angle_alpha   89.98398994
_cell_angle_beta   90.01238147
_cell_angle_gamma   119.98980734
_symmetry_Int_Tables_number   1
_chemical_formula_structural   H2O
_chemical_formula_sum   'H384 O192'
_cell_volume   6171.93679612
_cell_formula_units_Z   192
loop_
 _symmetry_equiv_pos_site_id
 _symmetry_equiv_pos_as_xyz
  1  'x, y, z'
loop_
 _atom_type_symbol
 _atom_type_oxidation_number
  H+  1.0
  O2-  -2.0
loop_
 _atom_site_type_symbol
 _atom_site_label
 _atom_site_symmetry_multiplicity
 _atom_site_fract_x
 _atom_site_fract_y
 _atom_site_fract_z
 _atom_site_occupancy
  H+  H0  1  0.60639925  0.00524829  0.50736791  1
  H+  H1  1  0.83278203  0.44754490  0.70151610  1
  H+  H2  1  0.72034021  0.11414388  0.17609540  1
  H+  H3  1  0.27579501  0.38126039  0.34563844  1
  H+  H4  1  0.26221061  0.36027394  0.68417869  1
  H+  H5  1  0.88003046  0.52593942  0.84388920  1
  H+  H6  1  0.65479035  1.04498045  0.72310125  1
  H+  H7  1  0.64073360  0.84394093  0.84751440  1
  H+  H8  1  0.84839001  0.37627996  0.84720208  1
  H+  H9  1  0.61637650  0.23193661  0.33824387  1
  H+  H10  1  0.62930430  0.85229531  0.32530167  1
  H+  H11  1  0.41037887  0.85724644  0.33360749  1
  H+  H12  1  0.16137049  0.83429399  0.93513604  1
  H+  H13  1  0.78677350  0.39591363  0.16790672  1
  H+  H14  1  0.40082736  0.87483616  0.85422308  1
  H+  H15  1  0.92211463  0.09661667  0.60663280  1
  H+  H16  1  0.88320134  0.24448315  0.49432019  1
  H+  H17  1  0.13698247  0.62495864  0.66932522  1
  H+  H18  1  0.88296805  0.52566057  0.32706179  1
  H+  H19  1  0.09981032  0.62516527  0.00703494  1
  H+  H20  1  0.52004036  0.38334040  0.33684680  1
  H+  H21  1  0.86913626  0.78494166  0.65824490  1
  H+  H22  1  0.85761739  0.64250063  0.15935571  1
  H+  H23  1  0.74045843  0.21318818  0.58753386  1
  H+  H24  1  0.63845286  0.52859127  1.00117076  1
  H+  H25  1  0.96952189  0.85715678  0.83578297  1
  H+  H26  1  0.85669522  0.89334374  0.16754645  1
  H+  H27  1  0.61799968  0.64194673  0.16054320  1
  H+  H28  1  0.99698927  0.37227979  1.02309261  1
  H+  H29  1  0.59186923  0.08687511  0.50488967  1
  H+  H30  1  0.60766809  0.87513005  0.49160791  1
  H+  H31  1  0.85887536  0.63953187  0.33693946  1
  H+  H32  1  0.09767541  0.73005529  0.33773151  1
  H+  H33  1  0.88586603  0.48992735  0.48435075  1
  H+  H34  1  0.88015146  0.77320949  0.32174755  1
  H+  H35  1  0.11248470  0.73899336  0.49001083  1
  H+  H36  1  0.63323485  0.02234264  0.17557465  1
  H+  H37  1  0.90302814  0.36697008  0.17450361  1
  H+  H38  1  0.02960062  0.81380923  0.11057400  1
  H+  H39  1  0.63117805  0.43848969  0.83135759  1
  H+  H40  1  0.72494037  0.60653615  0.65533322  1
  H+  H41  1  0.09471983  0.12288606  0.67210578  1
  H+  H42  1  0.26545585  0.12319599  0.15632337  1
  H+  H43  1  0.62537355  0.35706634  0.66364547  1
  H+  H44  1  0.84454777  0.42550825  0.39688957  1
  H+  H45  1  0.16501848  0.32513150  0.60649238  1
  H+  H46  1  0.48463205  0.60293579  0.19466167  1
  H+  H47  1  0.08567907  0.67814287  0.43019663  1
  H+  H48  1  0.87171789  0.02101831  0.85151561  1
  H+  H49  1  0.04717003  0.83798922  0.67920423  1
  H+  H50  1  0.41363827  0.33253103  0.57519220  1
  H+  H51  1  0.82385300  0.17225651  0.10400994  1
  H+  H52  1  0.36853322  0.72037866  0.34024306  1
  H+  H53  1  0.85875700  0.90100566  0.67538415  1
  H+  H54  1  0.38763891  0.76514449  0.64661316  1
  H+  H55  1  0.60818108  0.38376784  0.16306732  1
  H+  H56  1  0.63177153  0.27194355  0.17667814  1
  H+  H57  1  0.37925343  1.01375268  -0.00060605  1
  H+  H58  1  0.21690493  0.10739065  0.98918948  1
  H+  H59  1  0.96267186  0.86689192  0.66447616  1
  H+  H60  1  0.62093169  0.14757233  0.65045262  1
  H+  H61  1  0.34106323  0.43290055  0.10096830  1
  H+  H62  1  0.89242963  0.61934092  0.65803641  1
  H+  H63  1  0.87767041  0.52285964  -0.00325114  1
  H+  H64  1  0.98192647  0.63158862  0.49338152  1
  H+  H65  1  -0.01744798  0.35849247  0.84074511  1
  H+  H66  1  0.36698043  0.75820151  0.49512253  1
  H+  H67  1  0.37459201  0.85334667  0.49942392  1
  H+  H68  1  0.33723941  0.69573222  1.00475631  1
  H+  H69  1  0.10941752  0.50434975  1.00621452  1
  H+  H70  1  0.59967322  0.51083168  0.81159316  1
  H+  H71  1  0.76013304  0.87805557  0.33402948  1
  H+  H72  1  0.85049852  0.88490686  0.33405792  1
  H+  H73  1  0.50930264  0.13121175  0.00803021  1
  H+  H74  1  0.82836603  0.67452285  0.06284476  1
  H+  H75  1  0.14032618  0.35220075  0.33930608  1
  H+  H76  1  0.11093735  0.68743668  0.08596291  1
  H+  H77  1  0.23783973  0.12615708  0.32670023  1
  H+  H78  1  0.61941714  0.97788882  0.33901451  1
  H+  H79  1  0.46840185  0.77424443  0.61330626  1
  H+  H80  1  0.12600153  1.01771118  -0.01538372  1
  H+  H81  1  0.08036378  -0.02157617  0.64916257  1
  H+  H82  1  0.11774297  0.74096214  0.67441211  1
  H+  H83  1  0.88233360  0.77700841  0.50338041  1
  H+  H84  1  0.11525728  0.22957467  0.16064259  1
  H+  H85  1  0.72680965  0.36666724  0.33044203  1
  H+  H86  1  0.13093128  0.87219909  0.50361661  1
  H+  H87  1  0.41805300  0.81460683  0.57300400  1
  H+  H88  1  0.36619438  -0.02077866  0.16542368  1
  H+  H89  1  0.40390713  0.51321865  0.19365995  1
  H+  H90  1  0.47459348  0.11275014  0.17551370  1
  H+  H91  1  0.13071240  0.26161368  0.66455908  1
  H+  H92  1  0.12921559  0.86043363  0.17116907  1
  H+  H93  1  0.35330591  0.38190437  0.50655532  1
  H+  H94  1  0.59857043  0.22109436  1.01206068  1
  H+  H95  1  0.44373636  0.51587582  0.63109334  1
  H+  H96  1  0.36407828  0.23389862  0.34469483  1
  H+  H97  1  0.76028621  0.12849685  0.82349222  1
  H+  H98  1  0.39717266  0.04326786  0.33887329  1
  H+  H99  1  0.61097906  0.47513872  0.67104965  1
  H+  H100  1  0.15109045  0.78512767  0.16961043  1
  H+  H101  1  0.61579504  0.73048414  0.15972025  1
  H+  H102  1  0.97640087  0.62917118  0.18166783  1
  H+  H103  1  0.60811104  0.85264792  0.68708835  1
  H+  H104  1  0.19958383  0.59050964  1.00508461  1
  H+  H105  1  0.35689472  0.21041253  0.00446090  1
  H+  H106  1  0.64428058  0.75685755  0.83866247  1
  H+  H107  1  0.65862982  0.03659019  0.69015115  1
  H+  H108  1  0.36646652  0.36103717  0.85243704  1
  H+  H109  1  0.86221735  0.38692754  0.01434461  1
  H+  H110  1  0.96771241  0.15535456  0.99282186  1
  H+  H111  1  0.11868102  0.14701556  0.49436685  1
  H+  H112  1  0.09865202  0.89903112  0.33449632  1
  H+  H113  1  0.42394372  0.82953546  0.23300201  1
  H+  H114  1  0.03667135  0.38317500  0.16906798  1
  H+  H115  1  0.26215037  0.88161567  0.01285345  1
  H+  H116  1  0.89078606  0.12509198  0.66625428  1
  H+  H117  1  0.49762600  0.59978242  0.02392896  1
  H+  H118  1  0.83805369  0.62931331  0.83211292  1
  H+  H119  1  0.06405638  0.29440072  0.02641696  1
  H+  H120  1  0.32310937  0.65761220  0.10056440  1
  H+  H121  1  0.25769459  0.36565984  0.98480597  1
  H+  H122  1  0.71736546  0.85451668  0.49935205  1
  H+  H123  1  0.90657805  0.81748987  0.91877791  1
  H+  H124  1  0.88015883  0.86077074  0.83759208  1
  H+  H125  1  0.41633730  0.05980891  0.82417967  1
  H+  H126  1  0.52469977  0.63384642  0.48848308  1
  H+  H127  1  0.40724028  0.50124747  0.60857826  1
  H+  H128  1  0.13504524  0.12202921  0.84135522  1
  H+  H129  1  0.37698554  0.65374143  0.81587913  1
  H+  H130  1  0.86131380  0.15170495  0.33618803  1
  H+  H131  1  0.72213441  0.12357723  0.99964510  1
  H+  H132  1  0.83905450  0.66827492  0.74311152  1
  H+  H133  1  0.34463858  0.23033982  0.83665091  1
  H+  H134  1  0.36047055  0.72324970  0.15741858  1
  H+  H135  1  0.84508233  0.88002040  0.48641459  1
  H+  H136  1  0.76093507  0.63916158  0.00617263  1
  H+  H137  1  0.38146356  0.33522184  0.67955246  1
  H+  H138  1  0.46341040  0.10684874  0.49485032  1
  H+  H139  1  0.78835791  0.16236477  0.65923273  1
  H+  H140  1  0.88170951  1.02514960  0.17725667  1
  H+  H141  1  0.39107965  0.12841698  0.67783770  1
  H+  H142  1  0.65452393  0.77295359  0.65921897  1
  H+  H143  1  0.38186177  0.27028333  0.17123041  1
  H+  H144  1  0.21970583  0.87034130  0.50364485  1
  H+  H145  1  0.14660676  0.53676042  0.82909382  1
  H+  H146  1  0.86530178  0.39528912  0.33435737  1
  H+  H147  1  0.90989165  0.83171861  0.23036562  1
  H+  H148  1  0.60965438  0.34542204  0.50548754  1
  H+  H149  1  0.12433664  0.47392553  0.16621084  1
  H+  H150  1  1.02952723  0.65220027  0.66972494  1
  H+  H151  1  0.76721980  0.89318174  0.16921320  1
  H+  H152  1  0.01470774  0.63491254  0.00826149  1
  H+  H153  1  0.87283723  0.75365625  0.98737209  1
  H+  H154  1  0.89332326  0.28310259  0.66417223  1
  H+  H155  1  0.52061960  0.38450951  0.67947606  1
  H+  H156  1  0.12681664  0.23292131  0.82923723  1
  H+  H157  1  0.28199229  0.38622126  0.15889038  1
  H+  H158  1  0.27280990  0.65326962  0.67367569  1
  H+  H159  1  0.98390701  0.12918555  0.51799356  1
  H+  H160  1  0.61687589  -0.01940646  1.01322223  1
  H+  H161  1  0.90068570  0.40950006  0.48480491  1
  H+  H162  1  0.73129990  0.87060547  0.66123108  1
  H+  H163  1  0.19973238  0.86717041  0.32550909  1
  H+  H164  1  0.87497365  0.48400034  0.16762216  1
  H+  H165  1  0.38433768  0.51736856  0.35917004  1
  H+  H166  1  0.14162852  0.78321773  0.84229625  1
  H+  H167  1  0.40927118  0.65655513  0.64512252  1
  H+  H168  1  0.59830955  0.65914266  0.73206306  1
  H+  H169  1  0.98005731  0.37486496  0.65678417  1
  H+  H170  1  0.55680513  0.90230315  0.69134558  1
  H+  H171  1  0.33463025  0.60415044  0.01214143  1
  H+  H172  1  0.12622481  0.76901545  -0.00797672  1
  H+  H173  1  0.60533398  0.13175342  0.16385552  1
  H+  H174  1  0.56349029  0.19764906  0.81172432  1
  H+  H175  1  0.25892706  0.14516577  0.63744845  1
  H+  H176  1  0.85328584  0.37382447  0.68295881  1
  H+  H177  1  0.89842335  0.53798306  0.63402966  1
  H+  H178  1  0.85013220  0.24436782  1.01867123  1
  H+  H179  1  0.77022129  0.63992377  0.48798481  1
  H+  H180  1  0.41346293  0.58600796  0.44367966  1
  H+  H181  1  0.41032157  0.32879314  0.26679440  1
  H+  H182  1  0.14563731  0.62470204  0.82998303  1
  H+  H183  1  0.36836494  0.49084147  0.83066185  1
  H+  H184  1  0.20263204  0.72427770  0.11502648  1
  H+  H185  1  0.72155525  0.60949057  0.32324227  1
  H+  H186  1  0.34374503  0.62948479  0.48798036  1
  H+  H187  1  0.07142037  0.22083606  0.06303094  1
  H+  H188  1  0.85041466  0.21900506  0.81950648  1
  H+  H189  1  0.35417137  0.11454384  0.49381084  1
  H+  H190  1  0.63115295  0.60582234  0.32368399  1
  H+  H191  1  0.01945405  0.64536026  0.83121424  1
  H+  H192  1  0.72079475  0.11522990  0.32814282  1
  H+  H193  1  0.12079182  1.00075586  0.14714360  1
  H+  H194  1  0.12306006  0.28196342  0.50694668  1
  H+  H195  1  0.77143151  0.87426876  0.83376142  1
  H+  H196  1  0.61276716  0.72425579  0.49538762  1
  H+  H197  1  0.63401592  0.52170070  0.17010666  1
  H+  H198  1  0.70593671  0.34320213  0.66412966  1
  H+  H199  1  0.87190430  0.77159253  0.17042047  1
  H+  H200  1  0.36772419  0.14673675  0.34510163  1
  H+  H201  1  0.97764555  0.36300941  0.33227084  1
  H+  H202  1  0.11679650  0.38871814  0.83338360  1
  H+  H203  1  0.57203664  0.16008990  0.10493559  1
  H+  H204  1  0.28253428  0.81868660  0.31804478  1
  H+  H205  1  0.35667310  0.97243611  0.48624889  1
  H+  H206  1  0.17889420  0.32946896  0.90105272  1
  H+  H207  1  0.54469168  0.65355281  0.66911877  1
  H+  H208  1  0.35744812  0.13007549  0.16040544  1
  H+  H209  1  0.73336363  0.41484385  0.85050459  1
  H+  H210  1  0.63882924  0.61100805  0.65702632  1
  H+  H211  1  0.60874279  0.47279957  0.33756274  1
  H+  H212  1  0.89658633  0.13109511  0.51692630  1
  H+  H213  1  0.10492528  0.13922718  0.14112437  1
  H+  H214  1  0.27817158  0.88261012  0.67169692  1
  H+  H215  1  0.64736135  0.01191826  0.84749337  1
  H+  H216  1  0.46610834  0.36538619  0.51331929  1
  H+  H217  1  0.52825008  0.89037817  0.16232610  1
  H+  H218  1  0.13469902  0.62662754  0.50895706  1
  H+  H219  1  0.62387031  0.80356080  0.93900211  1
  H+  H220  1  0.15165277  0.88344939  0.66004857  1
  H+  H221  1  0.10236999  0.98922319  0.33433725  1
  H+  H222  1  0.63567619  0.36381581  0.33137398  1
  H+  H223  1  0.13867548  0.86982290  0.84023816  1
  H+  H224  1  0.01426461  0.88903410  0.49101775  1
  H+  H225  1  0.85363879  0.23401178  0.33990454  1
  H+  H226  1  0.39350997  0.78363168  0.83965241  1
  H+  H227  1  0.27500367  0.89344510  0.16767902  1
  H+  H228  1  0.49853810  0.85951791  0.32804035  1
  H+  H229  1  0.87805306  0.00242968  1.01533727  1
  H+  H230  1  0.62544792  0.39293088  0.01289541  1
  H+  H231  1  0.38924595  1.00628069  0.64728463  1
  H+  H232  1  0.49364718  0.34461503  -0.00668707  1
  H+  H233  1  0.76579855  0.63605097  0.15738889  1
  H+  H234  1  0.26489916  0.38627084  0.50115916  1
  H+  H235  1  0.12887956  1.01989203  0.49706665  1
  H+  H236  1  0.10083258  0.88011981  -0.00305468  1
  H+  H237  1  0.97874346  0.21274828  0.28165489  1
  H+  H238  1  0.51850375  0.38334729  0.16063984  1
  H+  H239  1  0.14703225  0.27045359  0.33048097  1
  H+  H240  1  0.00865539  0.36167962  0.51945524  1
  H+  H241  1  0.24290279  0.15020900  0.66781523  1
  H+  H242  1  0.96791377  0.85210069  0.98247246  1
  H+  H243  1  0.97108875  0.11524494  0.16584667  1
  H+  H244  1  0.63603656  0.61050880  0.50269689  1
  H+  H245  1  0.38478907  0.36010082  0.32869810  1
  H+  H246  1  0.32956655  0.40219191  0.40769843  1
  H+  H247  1  0.14232404  0.53819047  0.65774826  1
  H+  H248  1  0.97239869  0.61572960  0.32900547  1
  H+  H249  1  0.85621506  0.13757212  0.16030185  1
  H+  H250  1  0.38949143  0.86306571  0.17776149  1
  H+  H251  1  0.85176406  0.15450714  0.01168752  1
  H+  H252  1  0.52140711  0.62832121  0.35005728  1
  H+  H253  1  0.36289667  0.97154829  0.89861194  1
  H+  H254  1  0.57695486  0.74287089  0.99444350  1
  H+  H255  1  0.62610846  0.76060575  0.32424545  1
  H+  H256  1  0.10958139  0.13354037  0.34241125  1
  H+  H257  1  0.51688918  0.87139136  0.48356341  1
  H+  H258  1  0.63479484  0.86567517  0.17261674  1
  H+  H259  1  0.92487821  0.72743123  0.71011432  1
  H+  H260  1  0.37195562  0.09706109  0.99202786  1
  H+  H261  1  0.99377078  0.85843921  0.15410048  1
  H+  H262  1  0.22286725  0.11279370  0.84472329  1
  H+  H263  1  0.40061752  0.13733796  0.83298078  1
  H+  H264  1  0.11184684  0.64779323  0.33491856  1
  H+  H265  1  0.22418164  0.37374772  0.84112225  1
  H+  H266  1  0.50024045  0.62095235  0.82572403  1
  H+  H267  1  0.02909118  0.14974057  0.33558155  1
  H+  H268  1  0.47852816  0.09586587  0.64244749  1
  H+  H269  1  0.25785905  0.11865952  0.49545550  1
  H+  H270  1  0.35959601  0.83498586  -0.00292265  1
  H+  H271  1  0.10236343  0.42488431  0.59738711  1
  H+  H272  1  0.58688784  0.21579713  0.49296943  1
  H+  H273  1  0.62835567  0.11098539  0.99431996  1
  H+  H274  1  0.56838249  0.65485678  0.07377397  1
  H+  H275  1  0.60502012  0.47143294  0.49150157  1
  H+  H276  1  0.14255603  0.60743419  0.16762765  1
  H+  H277  1  0.86670516  0.10542925  0.84014224  1
  H+  H278  1  0.33489050  0.90916574  0.28967148  1
  H+  H279  1  0.28467751  0.64925478  0.81683374  1
  H+  H280  1  0.22375115  0.62792777  0.32405471  1
  H+  H281  1  0.59395133  0.21600247  0.66140414  1
  H+  H282  1  0.02215118  0.29235634  0.39768570  1
  H+  H283  1  0.23218779  0.61121652  0.17270364  1
  H+  H284  1  0.61182094  0.13893028  0.33682520  1
  H+  H285  1  0.85981820  0.99023717  0.67938845  1
  H+  H286  1  0.38002831  0.60525672  0.35524280  1
  H+  H287  1  0.40971813  0.26305388  0.67799454  1
  H+  H288  1  0.14952499  0.06890954  0.55931729  1
  H+  H289  1  0.31877811  0.66465598  0.39897310  1
  H+  H290  1  0.93274252  0.12015780  0.25398922  1
  H+  H291  1  0.33032617  0.41832770  0.77859498  1
  H+  H292  1  0.32596747  0.16582073  0.77977594  1
  H+  H293  1  0.07751974  0.67794293  0.77155022  1
  H+  H294  1  0.93659106  0.28883029  0.89067031  1
  H+  H295  1  0.69567988  0.63887311  0.81891325  1
  H+  H296  1  0.61486347  0.19927588  0.75656198  1
  H+  H297  1  0.65870165  0.82822403  0.23131447  1
  H+  H298  1  0.81394287  0.38839002  0.78434584  1
  H+  H299  1  0.82616927  0.17102862  0.72827473  1
  H+  H300  1  0.41604349  0.08733600  0.23542091  1
  H+  H301  1  0.66459899  0.57964346  0.23011651  1
  H+  H302  1  0.13740765  0.04007467  0.21178193  1
  H+  H303  1  0.47103420  0.26741545  0.94995165  1
  H+  H304  1  0.90664469  0.58527951  0.90208232  1
  H+  H305  1  0.58488402  0.41394247  0.07048448  1
  H+  H306  1  0.02940313  0.01038535  0.60923504  1
  H+  H307  1  0.56666707  0.16211274  0.42975602  1
  H+  H308  1  0.92217218  0.60480059  0.55144453  1
  H+  H309  1  0.82866415  0.42623295  0.06904925  1
  H+  H310  1  0.32538591  0.91002493  0.07074252  1
  H+  H311  1  0.92960108  0.34040440  0.26697877  1
  H+  H312  1  0.32544436  0.15867230  0.43417909  1
  H+  H313  1  0.08700071  0.37304882  0.43448160  1
  H+  H314  1  0.44289883  0.64032774  0.58269233  1
  H+  H315  1  0.86237103  0.64618388  0.48405605  1
  H+  H316  1  0.25469359  0.63394156  0.49649526  1
  H+  H317  1  0.84780000  0.72216987  0.82791424  1
  H+  H318  1  0.62897834  0.61162399  1.00323424  1
  H+  H319  1  0.90244665  0.10118716  0.93864816  1
  H+  H320  1  0.19320011  0.14268999  0.27121805  1
  H+  H321  1  0.84063850  0.17832426  0.43989990  1
  H+  H322  1  0.58987873  0.92437330  0.10336614  1
  H+  H323  1  0.16974999  0.84765393  0.59872366  1
  H+  H324  1  0.34216659  0.68853935  0.72940988  1
  H+  H325  1  0.42788881  0.16211150  0.74235265  1
  H+  H326  1  0.66115496  0.08226947  0.26849798  1
  H+  H327  1  0.16002130  0.08155653  0.91136458  1
  H+  H328  1  0.68645253  0.29728284  0.94434770  1
  H+  H329  1  0.58630226  0.43468207  0.75989111  1
  H+  H330  1  0.81139493  0.90347280  0.42598563  1
  H+  H331  1  0.31872460  0.15493231  0.06481573  1
  H+  H332  1  0.08338808  0.17183711  0.43633060  1
  H+  H333  1  0.63880874  0.31457060  0.56401852  1
  H+  H334  1  0.06281684  0.90963845  0.05144863  1
  H+  H335  1  0.07126136  0.92137895  0.42977230  1
  H+  H336  1  0.45135205  0.62265602  0.88475114  1
  H+  H337  1  0.40599736  0.32462987  0.90247154  1
  H+  H338  1  0.90605969  0.34470477  0.95726377  1
  H+  H339  1  0.66405430  0.82948369  0.56309942  1
  H+  H340  1  0.84689322  0.94033903  0.07048325  1
  H+  H341  1  0.91501140  0.59301443  0.23937840  1
  H+  H342  1  0.67249776  0.08001128  0.90099890  1
  H+  H343  1  0.58608621  0.88908608  0.78434942  1
  H+  H344  1  0.67812547  0.11367721  0.57764697  1
  H+  H345  1  0.39700966  0.81046519  0.93963631  1
  H+  H346  1  0.82985996  0.91679536  0.77416965  1
  H+  H347  1  0.37866095  0.51967452  0.49635991  1
  H+  H348  1  0.06883884  0.90600262  0.76435358  1
  H+  H349  1  0.82779618  0.67224528  0.39417524  1
  H+  H350  1  0.17662110  0.33147496  0.23501981  1
  H+  H351  1  0.89258502  0.27323413  0.17400304  1
  H+  H352  1  0.16740658  0.60407614  0.57032134  1
  H+  H353  1  0.40586081  0.06979836  0.55722731  1
  H+  H354  1  0.16614842  0.28135977  0.98624473  1
  H+  H355  1  0.14578059  0.83690620  0.26515010  1
  H+  H356  1  0.53455930  0.87844271  0.84502255  1
  H+  H357  1  0.56981121  0.41069323  0.43355339  1
  H+  H358  1  0.14759578  0.36248403  0.17622558  1
  H+  H359  1  0.09551429  0.16962384  0.77059411  1
  H+  H360  1  0.35524840  0.43996671  0.68039063  1
  H+  H361  1  0.34382533  0.91210151  0.72598947  1
  H+  H362  1  0.66166684  0.33163796  0.23554298  1
  H+  H363  1  0.16625281  0.59830035  0.26389249  1
  H+  H364  1  0.01548264  0.13714835  0.67898933  1
  H+  H365  1  0.87712170  0.61215066  0.99521141  1
  H+  H366  1  0.66684183  0.57887162  0.56027173  1
  H+  H367  1  0.59073309  0.91569171  0.39849320  1
  H+  H368  1  0.10195559  0.97032594  0.82265929  1
  H+  H369  1  0.12011515  0.38956543  0.65586137  1
  H+  H370  1  0.67405022  0.39889842  0.90712982  1
  H+  H371  1  0.90951777  0.83795660  0.56268700  1
  H+  H372  1  0.32318513  0.90751768  0.42978736  1
  H+  H373  1  -0.03450154  0.86713816  0.32210719  1
  H+  H374  1  0.07193169  0.40176152  0.07485319  1
  H+  H375  1  0.08792769  0.41179531  0.77133611  1
  H+  H376  1  0.38628334  0.36174801  0.16883423  1
  H+  H377  1  0.58791614  0.87985413  0.01111993  1
  H+  H378  1  0.93430337  0.34692702  0.56633257  1
  H+  H379  1  0.28689672  0.90968503  0.85568938  1
  H+  H380  1  0.59340588  0.66474600  0.39896489  1
  H+  H381  1  0.37963398  0.51083371  0.95861364  1
  H+  H382  1  0.73772768  0.36554961  -0.00294731  1
  H+  H383  1  0.48668424  0.12837777  0.32972437  1
  O2-  O384  1  0.07713086  0.17409763  0.13862721  1
  O2-  O385  1  0.08931822  0.17855035  0.48132136  1
  O2-  O386  1  0.10526295  0.17272940  0.81526465  1
  O2-  O387  1  0.09651417  0.41226509  0.15308131  1
  O2-  O388  1  0.11242467  0.38860338  0.50958467  1
  O2-  O389  1  0.08526377  0.41737972  0.81519800  1
  O2-  O390  1  0.14322812  0.70462994  0.12672032  1
  O2-  O391  1  0.08405830  0.67832018  0.47586728  1
  O2-  O392  1  0.07987197  0.67749790  0.81670007  1
  O2-  O393  1  0.04875887  0.86919871  0.13029387  1
  O2-  O394  1  0.07521437  0.91999525  0.47496026  1
  O2-  O395  1  0.07376814  0.90924028  0.81082992  1
  O2-  O396  1  0.32612209  0.15866383  0.14398310  1
  O2-  O397  1  0.32048812  0.14636447  0.47967220  1
  O2-  O398  1  0.31755017  0.16651778  0.82402061  1
  O2-  O399  1  0.34236840  0.41573537  0.14465196  1
  O2-  O400  1  0.32466602  0.41166515  0.48591922  1
  O2-  O401  1  0.33061129  0.42838216  0.82304946  1
  O2-  O402  1  0.32241847  0.66272709  0.14577186  1
  O2-  O403  1  0.31507155  0.66287692  0.47684697  1
  O2-  O404  1  0.34661747  0.68433332  0.80306852  1
  O2-  O405  1  0.33467746  0.91728333  0.15266809  1
  O2-  O406  1  0.32461651  0.90962588  0.47418538  1
  O2-  O407  1  0.35070519  0.94545398  0.85801023  1
  O2-  O408  1  0.57348380  0.16160701  0.15046652  1
  O2-  O409  1  0.55585707  0.15508963  0.47436653  1
  O2-  O410  1  0.62079536  0.23206613  0.79368588  1
  O2-  O411  1  0.57930595  0.41422989  0.14557695  1
  O2-  O412  1  0.56815076  0.41041303  0.47891129  1
  O2-  O413  1  0.58705548  0.44866655  0.80580071  1
  O2-  O414  1  0.58516816  0.66929864  0.14582668  1
  O2-  O415  1  0.58703641  0.66367828  0.47899582  1
  O2-  O416  1  0.59668686  0.65592545  0.79977878  1
  O2-  O417  1  0.58975186  0.92360137  0.15054625  1
  O2-  O418  1  0.57835105  0.90529437  0.47298086  1
  O2-  O419  1  0.59390859  0.90080943  0.82916375  1
  O2-  O420  1  0.82688690  0.17065293  0.15023364  1
  O2-  O421  1  0.84902200  0.18246709  0.48427226  1
  O2-  O422  1  0.81922740  0.16080670  0.80208133  1
  O2-  O423  1  0.84660678  0.42381947  0.15292928  1
  O2-  O424  1  0.86449078  0.43151413  0.46800088  1
  O2-  O425  1  0.82352863  0.40773659  0.82735560  1
  O2-  O426  1  0.82697282  0.67081932  0.14210945  1
  O2-  O427  1  0.82999375  0.67584799  0.47175514  1
  O2-  O428  1  0.81239423  0.66164361  0.81275935  1
  O2-  O429  1  0.82976506  0.92823130  0.15783425  1
  O2-  O430  1  0.80599020  0.89942869  0.47160549  1
  O2-  O431  1  0.83267220  0.90977166  0.81891473  1
  O2-  O432  1  0.14838457  0.05569659  0.16884859  1
  O2-  O433  1  0.16423751  0.07955898  0.51508356  1
  O2-  O434  1  0.16006463  0.08247691  0.85918595  1
  O2-  O435  1  0.17513728  0.32827123  0.18993703  1
  O2-  O436  1  0.15567493  0.33914355  0.52783908  1
  O2-  O437  1  0.16465948  0.33773134  0.85717437  1
  O2-  O438  1  0.16935361  0.57794847  0.18781791  1
  O2-  O439  1  0.16628244  0.59885123  0.52548217  1
  O2-  O440  1  0.18316905  0.59942216  0.83298078  1
  O2-  O441  1  0.16575401  0.84038580  0.19107036  1
  O2-  O442  1  0.16103290  0.84297869  0.52135318  1
  O2-  O443  1  0.17132094  0.84352611  0.85801991  1
  O2-  O444  1  0.41293934  0.08231046  0.19049078  1
  O2-  O445  1  0.40067916  0.07230523  0.51100761  1
  O2-  O446  1  0.44322853  0.12223774  0.81778784  1
  O2-  O447  1  0.41396864  0.32961320  0.18734530  1
  O2-  O448  1  0.40750736  0.33861800  0.53125943  1
  O2-  O449  1  0.39029706  0.32245136  0.85927691  1
  O2-  O450  1  0.43890125  0.56124088  0.22141237  1
  O2-  O451  1  0.41006347  0.58375831  0.49010050  1
  O2-  O452  1  0.44040582  0.60306330  0.84270165  1
  O2-  O453  1  0.42068558  0.83220281  0.18814187  1
  O2-  O454  1  0.40382828  0.82044262  0.51038557  1
  O2-  O455  1  0.42653220  0.83848137  0.86259975  1
  O2-  O456  1  0.65993007  0.08338606  0.19158467  1
  O2-  O457  1  0.60884367  0.05311559  0.53121789  1
  O2-  O458  1  0.67379382  0.07426607  0.85611493  1
  O2-  O459  1  0.66341779  0.33307122  0.19012206  1
  O2-  O460  1  0.63258704  0.30813834  0.51935491  1
  O2-  O461  1  0.69329611  0.43153910  0.86889257  1
  O2-  O462  1  0.66757663  0.58235059  0.18454343  1
  O2-  O463  1  0.66726881  0.57958487  0.51511787  1
  O2-  O464  1  0.63311881  0.60538276  0.82690178  1
  O2-  O465  1  0.66436602  0.83345901  0.18592597  1
  O2-  O466  1  0.65611960  0.82428548  0.51820804  1
  O2-  O467  1  0.67295504  0.81380627  0.85940851  1
  O2-  O468  1  0.91431908  0.08938673  0.18660789  1
  O2-  O469  1  0.92659134  0.10318897  0.53677654  1
  O2-  O470  1  0.89548760  0.08104345  0.86479682  1
  O2-  O471  1  0.92932489  0.33343909  0.19017610  1
  O2-  O472  1  0.94792123  0.34985741  0.52251796  1
  O2-  O473  1  0.92497436  0.32105005  0.86009093  1
  O2-  O474  1  0.91613019  0.59517695  0.19294169  1
  O2-  O475  1  0.91988249  0.60022604  0.50674820  1
  O2-  O476  1  0.90558816  0.58676494  0.85640198  1
  O2-  O477  1  0.90923432  0.83263774  0.18419292  1
  O2-  O478  1  0.91504201  0.83801867  0.51772037  1
  O2-  O479  1  0.90877202  0.82610021  0.85123368  1
  O2-  O480  1  0.18092213  0.10242544  0.30462534  1
  O2-  O481  1  0.08692896  0.02954685  0.62486918  1
  O2-  O482  1  0.15834689  0.07812887  0.96974747  1
  O2-  O483  1  0.17415083  0.33124926  0.31642176  1
  O2-  O484  1  0.16627885  0.32378978  0.65190004  1
  O2-  O485  1  0.21841972  0.31296959  0.96065358  1
  O2-  O486  1  0.16587732  0.61120074  0.30794499  1
  O2-  O487  1  0.17205279  0.60137608  0.65175078  1
  O2-  O488  1  0.13769603  0.56596958  0.99498692  1
  O2-  O489  1  0.14030048  0.83921979  0.31060775  1
  O2-  O490  1  0.17395159  0.84690884  0.64432654  1
  O2-  O491  1  0.15540350  0.83148771  0.98068399  1
  O2-  O492  1  0.42260606  0.09817469  0.31783518  1
  O2-  O493  1  0.41606810  0.06523598  0.62921770  1
  O2-  O494  1  0.40653513  0.07086510  0.97881088  1
  O2-  O495  1  0.41231024  0.32733258  0.31234075  1
  O2-  O496  1  0.42237788  0.31995311  0.66102021  1
  O2-  O497  1  0.44473220  0.29691968  0.97000406  1
  O2-  O498  1  0.41476749  0.57967439  0.37024424  1
  O2-  O499  1  0.46171563  0.67344859  0.62058304  1
  O2-  O500  1  0.38102909  0.53012200  1.00042982  1
  O2-  O501  1  0.43568983  0.82603234  0.31454195  1
  O2-  O502  1  0.43771376  0.80794704  0.61772143  1
  O2-  O503  1  0.37270637  0.79180751  0.98090069  1
  O2-  O504  1  0.65960078  0.08207229  0.31430285  1
  O2-  O505  1  0.71241608  0.15921147  0.60988256  1
  O2-  O506  1  0.66413647  0.08683129  0.98041293  1
  O2-  O507  1  0.66597597  0.33353126  0.31583303  1
  O2-  O508  1  0.64927878  0.32304597  0.64499817  1
  O2-  O509  1  0.67785273  0.33031153  0.97599874  1
  O2-  O510  1  0.66135909  0.57545795  0.30793321  1
  O2-  O511  1  0.66572149  0.57626226  0.64103242  1
  O2-  O512  1  0.66750950  0.58973283  0.98923169  1
  O2-  O513  1  0.65532074  0.82003703  0.30696196  1
  O2-  O514  1  0.67235440  0.83180751  0.64416046  1
  O2-  O515  1  0.58375322  0.79391986  0.97246009  1
  O2-  O516  1  0.95074785  0.15286268  0.29458452  1
  O2-  O517  1  0.91948599  0.09214902  0.65347275  1
  O2-  O518  1  0.90703283  0.11220591  0.98379477  1
  O2-  O519  1  0.92160353  0.34045415  0.31229047  1
  O2-  O520  1  0.91712499  0.34464436  0.65009743  1
  O2-  O521  1  0.90103090  0.34093720  1.00132457  1
  O2-  O522  1  0.91245961  0.58709906  0.31223168  1
  O2-  O523  1  0.92720885  0.60041411  0.63370488  1
  O2-  O524  1  0.90916091  0.58374847  0.98062270  1
  O2-  O525  1  0.90779423  0.83235123  0.30359516  1
  O2-  O526  1  0.90326631  0.84434434  0.64374470  1
  O2-  O527  1  0.90776919  0.81467863  0.96607931  1
  O2-  O528  1  0.06719423  0.24046517  0.02193776  1
  O2-  O529  1  0.08342565  0.16639727  0.35852017  1
  O2-  O530  1  0.07840298  0.16246241  0.69116478  1
  O2-  O531  1  0.06002376  0.39050331  0.03068042  1
  O2-  O532  1  0.06397993  0.35289200  0.39143209  1
  O2-  O533  1  0.09551658  0.42583103  0.64213885  1
  O2-  O534  1  0.07706424  0.66577250  0.01885230  1
  O2-  O535  1  0.07550774  0.67141808  0.35396071  1
  O2-  O536  1  0.08570138  0.68136493  0.69091341  1
  O2-  O537  1  0.06717269  0.91029176  0.00660463  1
  O2-  O538  1  0.07026178  0.93069859  0.35082814  1
  O2-  O539  1  0.05251176  0.89239568  0.69161442  1
  O2-  O540  1  0.31528164  0.15175400  0.01947605  1
  O2-  O541  1  0.33325476  0.17234913  0.36092647  1
  O2-  O542  1  0.39385218  0.16922500  0.70976020  1
  O2-  O543  1  0.32010453  0.44958176  0.03093584  1
  O2-  O544  1  0.33530175  0.40717352  0.36236970  1
  O2-  O545  1  0.32158047  0.38613413  0.70250521  1
  O2-  O546  1  0.30741384  0.63739480  0.02496065  1
  O2-  O547  1  0.32551792  0.66170053  0.35401966  1
  O2-  O548  1  0.33591256  0.68640881  0.68350486  1
  O2-  O549  1  0.32331994  0.90935669  0.02560949  1
  O2-  O550  1  0.31098713  0.87984433  0.32829003  1
  O2-  O551  1  0.33985150  0.90665245  0.68188004  1
  O2-  O552  1  0.56820159  0.16124492  0.02668790  1
  O2-  O553  1  0.58129422  0.16978649  0.35114740  1
  O2-  O554  1  0.57505416  0.15452394  0.67024959  1
  O2-  O555  1  0.58757104  0.41517288  0.02449609  1
  O2-  O556  1  0.57926903  0.41272321  0.35403492  1
  O2-  O557  1  0.58317094  0.41844231  0.69255244  1
  O2-  O558  1  0.55869529  0.64319550  0.02855256  1
  O2-  O559  1  0.58538747  0.65973764  0.35393184  1
  O2-  O560  1  0.60109027  0.66571115  0.68438797  1
  O2-  O561  1  0.58456288  0.92521709  0.03497773  1
  O2-  O562  1  0.59171871  0.91657230  0.35269010  1
  O2-  O563  1  0.56451919  0.85874483  0.71186902  1
  O2-  O564  1  0.81881401  0.18025178  0.03102883  1
  O2-  O565  1  0.82507153  0.17323739  0.35402121  1
  O2-  O566  1  0.84176355  0.18212243  0.68366298  1
  O2-  O567  1  0.82702832  0.42231378  0.02413543  1
  O2-  O568  1  0.83475981  0.42396922  0.35101378  1
  O2-  O569  1  0.80966421  0.38595165  0.70309193  1
  O2-  O570  1  0.82614277  0.67154390  0.01740909  1
  O2-  O571  1  0.82789546  0.67057786  0.34853621  1
  O2-  O572  1  0.86619457  0.68267269  0.70063112  1
  O2-  O573  1  0.87001397  0.94667182  0.02916907  1
  O2-  O574  1  0.81915873  0.91227138  0.35080806  1
  O2-  O575  1  0.82822426  0.92892279  0.69385748  1
