# generated using pymatgen
data_H2O
_symmetry_space_group_name_H-M   'P 1'
_cell_length_a   18.00027287
_cell_length_b   18.00081522
_cell_length_c   22.00338327
_cell_angle_alpha   89.99868326
_cell_angle_beta   89.99255284
_cell_angle_gamma   119.99257121
_symmetry_Int_Tables_number   1
_chemical_formula_structural   H2O
_chemical_formula_sum   'H384 O192'
_cell_volume   6174.81367587
_cell_formula_units_Z   192
loop_
 _symmetry_equiv_pos_site_id
 _symmetry_equiv_pos_as_xyz
  1  'x, y, z'
loop_
 _atom_type_symbol
 _atom_type_oxidation_number
  H+  1.0
  O2-  -2.0
loop_
 _atom_site_type_symbol
 _atom_site_label
 _atom_site_symmetry_multiplicity
 _atom_site_fract_x
 _atom_site_fract_y
 _atom_site_fract_z
 _atom_site_occupancy
  H+  H0  1  0.61340513  0.38713970  0.35104456  1
  H+  H1  1  0.36005691  0.71961763  0.83240980  1
  H+  H2  1  0.35130424  0.22563640  0.00700616  1
  H+  H3  1  0.39638343  0.62533049  0.33584442  1
  H+  H4  1  0.58916342  0.42685767  0.44409039  1
  H+  H5  1  0.83609879  0.16636282  0.90745954  1
  H+  H6  1  0.01364552  0.38978452  0.16658973  1
  H+  H7  1  0.34493633  0.94196795  0.82754660  1
  H+  H8  1  0.26811525  0.63516265  0.83688599  1
  H+  H9  1  0.24137643  0.07270769  0.48186539  1
  H+  H10  1  0.14996666  0.76539535  0.32889414  1
  H+  H11  1  0.58424607  0.96596012  0.65499991  1
  H+  H12  1  0.26562157  0.11875664  0.29794953  1
  H+  H13  1  0.64672867  0.64113008  0.67393248  1
  H+  H14  1  0.70302141  0.58919765  0.18498534  1
  H+  H15  1  0.53518306  0.39487228  0.67333852  1
  H+  H16  1  0.22854598  0.84911281  0.66219758  1
  H+  H17  1  0.63874725  0.60814028  0.82638083  1
  H+  H18  1  0.62107199  0.77459385  0.13909634  1
  H+  H19  1  0.59553826  0.86747625  0.19613792  1
  H+  H20  1  0.89021607  0.27195892  0.17363281  1
  H+  H21  1  0.39371129  0.37340893  0.33736202  1
  H+  H22  1  0.86914809  0.25491900  0.50182584  1
  H+  H23  1  0.07887344  0.40202205  0.28340404  1
  H+  H24  1  0.35827502  0.62954127  0.01143157  1
  H+  H25  1  0.14196552  0.01916717  0.84099873  1
  H+  H26  1  0.88755077  0.14660199  0.15670558  1
  H+  H27  1  0.02892093  0.87956813  0.67832928  1
  H+  H28  1  0.60766133  0.97251342  0.81567661  1
  H+  H29  1  0.60246426  0.39127792  1.01489861  1
  H+  H30  1  0.88318604  0.52594213  0.50615152  1
  H+  H31  1  0.66294789  0.52635578  0.65670950  1
  H+  H32  1  0.90331342  0.87261800  0.18037365  1
  H+  H33  1  0.54808121  0.89977444  0.27664610  1
  H+  H34  1  0.52696538  0.39212372  0.35034695  1
  H+  H35  1  0.74383678  0.62829293  0.50343096  1
  H+  H36  1  0.10016542  0.37260256  0.52095636  1
  H+  H37  1  0.67383606  0.82492488  0.92963654  1
  H+  H38  1  0.21807846  0.10588315  -0.00184733  1
  H+  H39  1  0.11456755  0.48820342  0.01494895  1
  H+  H40  1  0.12317588  0.46928644  0.17680357  1
  H+  H41  1  0.09976299  0.86625141  0.49355207  1
  H+  H42  1  0.88899729  0.85839103  -0.00457109  1
  H+  H43  1  0.48946734  0.58920014  0.15061742  1
  H+  H44  1  0.66153746  0.01407821  0.19021119  1
  H+  H45  1  0.96750151  0.38914895  0.65915671  1
  H+  H46  1  0.59404213  0.21796840  -0.02691255  1
  H+  H47  1  0.91259161  0.37312755  0.83366354  1
  H+  H48  1  0.89724760  1.02631283  0.33162455  1
  H+  H49  1  0.12046924  0.76384349  0.85211624  1
  H+  H50  1  0.05994577  0.22956611  0.70864642  1
  H+  H51  1  0.10687982  0.10772684  0.00646274  1
  H+  H52  1  0.62159633  0.10737721  0.65219260  1
  H+  H53  1  0.98969399  0.85800021  0.33270658  1
  H+  H54  1  0.86976858  0.72857540  0.49431427  1
  H+  H55  1  0.62864438  0.71800611  0.66617765  1
  H+  H56  1  0.34292671  0.71719753  0.16538151  1
  H+  H57  1  0.44072041  0.04376289  0.51383065  1
  H+  H58  1  0.64777506  0.12130357  0.83594523  1
  H+  H59  1  1.02428566  0.63860413  1.01047383  1
  H+  H60  1  1.01080279  0.10970536  1.00759770  1
  H+  H61  1  0.72515834  0.12206601  0.99298205  1
  H+  H62  1  0.86201577  0.96356890  0.00899963  1
  H+  H63  1  0.23835883  0.57687356  0.19156404  1
  H+  H64  1  0.87752419  0.60893043  0.83139036  1
  H+  H65  1  0.83916741  0.91258829  0.10519188  1
  H+  H66  1  0.63375664  0.27262822  0.33030126  1
  H+  H67  1  0.85090381  0.88561394  0.82758890  1
  H+  H68  1  1.02869360  0.39390891  1.01423812  1
  H+  H69  1  0.63995058  0.77262211  0.99194932  1
  H+  H70  1  0.96564942  0.09199358  0.50098360  1
  H+  H71  1  0.31826184  0.64865107  0.67266732  1
  H+  H72  1  0.98019639  0.11023688  0.84494108  1
  H+  H73  1  0.80655260  0.61992935  0.66964347  1
  H+  H74  1  0.89806146  0.27753098  0.84679106  1
  H+  H75  1  0.90857471  0.32513791  0.23661161  1
  H+  H76  1  0.45585879  0.11468957  0.17209625  1
  H+  H77  1  0.37009521  0.40366002  0.67654832  1
  H+  H78  1  0.11102521  0.85272529  0.18832794  1
  H+  H79  1  0.88553513  0.89657427  0.35057546  1
  H+  H80  1  0.47963164  0.36172792  0.83976977  1
  H+  H81  1  0.14510473  0.35646467  0.32905836  1
  H+  H82  1  0.72794719  0.36898081  0.18071886  1
  H+  H83  1  0.87106852  0.13242102  0.85610746  1
  H+  H84  1  0.11910299  0.75455826  0.51021988  1
  H+  H85  1  0.38083338  0.10603184  0.66887605  1
  H+  H86  1  0.41313164  0.34770070  0.52144313  1
  H+  H87  1  0.61816090  0.47614415  0.82186494  1
  H+  H88  1  0.98306742  0.11261817  0.65560298  1
  H+  H89  1  0.89026018  0.02048938  0.83737414  1
  H+  H90  1  0.86705460  0.38757660  0.16936755  1
  H+  H91  1  0.72377118  0.60882364  0.80956475  1
  H+  H92  1  0.87199081  0.64342495  0.34513682  1
  H+  H93  1  0.99071901  0.11513781  0.17126922  1
  H+  H94  1  0.46497963  0.36232480  -0.00481779  1
  H+  H95  1  0.16197754  0.82370009  -0.09056441  1
  H+  H96  1  0.63291289  0.03156151  0.49007896  1
  H+  H97  1  0.72818342  0.10894577  0.84820510  1
  H+  H98  1  0.32595037  0.16627289  0.10712798  1
  H+  H99  1  0.14834974  0.27028411  0.33481206  1
  H+  H100  1  0.33492116  0.93074157  0.50605055  1
  H+  H101  1  0.35691094  0.05531737  0.50789708  1
  H+  H102  1  0.40896255  0.82439246  0.90026429  1
  H+  H103  1  0.14337793  0.85668909  0.99781368  1
  H+  H104  1  0.86864176  0.64158379  1.00414414  1
  H+  H105  1  0.75745781  0.89295710  0.19759082  1
  H+  H106  1  0.13250558  0.52819386  0.83619265  1
  H+  H107  1  0.36426174  0.51199609  0.50408087  1
  H+  H108  1  0.26112619  0.15632907  0.30755080  1
  H+  H109  1  0.88337600  0.51981075  0.33404665  1
  H+  H110  1  0.83609033  0.91308747  0.40454863  1
  H+  H111  1  0.02327072  0.62800459  0.34151390  1
  H+  H112  1  0.38879466  0.27416449  0.84075267  1
  H+  H113  1  0.88843045  0.83644788  0.66666146  1
  H+  H114  1  0.48710958  0.61611154  -0.00849557  1
  H+  H115  1  0.99951264  0.65915422  0.16718291  1
  H+  H116  1  0.96055115  0.35133569  0.32800902  1
  H+  H117  1  0.50330303  0.63688274  0.51177786  1
  H+  H118  1  0.16501252  0.11487349  0.61574698  1
  H+  H119  1  0.51333016  0.63310832  0.35472612  1
  H+  H120  1  0.09915730  0.71534581  0.17554469  1
  H+  H121  1  0.35634994  0.75517400  0.98847056  1
  H+  H122  1  0.79769207  0.70207589  0.14567347  1
  H+  H123  1  0.23181911  0.38744433  0.53949170  1
  H+  H124  1  0.79620648  0.13316134  0.16349174  1
  H+  H125  1  0.23501344  0.62368394  0.56057346  1
  H+  H126  1  0.13342698  0.60722982  0.33801112  1
  H+  H127  1  0.02731964  0.88152773  0.00185682  1
  H+  H128  1  0.56652160  0.41364299  0.07217181  1
  H+  H129  1  0.65156064  0.25774463  0.80486784  1
  H+  H130  1  0.60804975  0.96943735  -0.02279824  1
  H+  H131  1  0.44155044  0.95777787  0.03927747  1
  H+  H132  1  0.35889245  0.84500696  0.98645506  1
  H+  H133  1  0.60395118  0.08416035  0.13101378  1
  H+  H134  1  0.96169227  0.34695369  0.51047362  1
  H+  H135  1  0.87192772  0.26151820  0.33016036  1
  H+  H136  1  0.46492039  0.11597084  0.98285193  1
  H+  H137  1  0.33606697  0.14852379  0.49169710  1
  H+  H138  1  0.38517663  0.55716804  0.66423154  1
  H+  H139  1  0.22846846  0.36933246  0.83210406  1
  H+  H140  1  0.64815941  0.28785540  0.50412679  1
  H+  H141  1  0.89797031  0.35986192  0.98708501  1
  H+  H142  1  0.66471420  0.33635862  0.27397358  1
  H+  H143  1  0.56835572  0.19011183  0.83863371  1
  H+  H144  1  0.26715956  0.13693959  0.83013227  1
  H+  H145  1  0.37285603  0.96605292  0.68333085  1
  H+  H146  1  0.28029743  0.63912437  0.57102787  1
  H+  H147  1  0.38930382  0.51155235  -0.00123964  1
  H+  H148  1  0.97251614  0.85757967  0.50653875  1
  H+  H149  1  0.86953379  0.35640463  0.49923118  1
  H+  H150  1  0.62344766  0.14628637  0.49059253  1
  H+  H151  1  0.88432753  0.07553263  0.66532406  1
  H+  H152  1  0.50436739  0.86500407  0.18601589  1
  H+  H153  1  0.61090336  0.63667743  1.00252566  1
  H+  H154  1  0.11162316  -0.02741654  0.67927474  1
  H+  H155  1  0.12146524  0.88807834  0.83881507  1
  H+  H156  1  0.13697912  0.36552912  0.63534875  1
  H+  H157  1  0.00558612  0.63321706  0.49144292  1
  H+  H158  1  0.86762792  0.94821959  0.66420020  1
  H+  H159  1  0.51366246  0.37241781  0.16465059  1
  H+  H160  1  1.06417695  0.66228017  0.78278353  1
  H+  H161  1  0.36990008  0.43058766  0.51251943  1
  H+  H162  1  0.03523255  0.00153567  0.28749081  1
  H+  H163  1  0.72696198  0.61921247  0.99987875  1
  H+  H164  1  0.63600838  0.36742188  0.17986325  1
  H+  H165  1  0.84055836  0.67398752  0.43042066  1
  H+  H166  1  0.26678638  0.62435115  0.01094191  1
  H+  H167  1  0.40942676  0.16064855  0.34473557  1
  H+  H168  1  0.34453086  0.24977320  0.49454544  1
  H+  H169  1  0.39516271  0.28707403  0.66627002  1
  H+  H170  1  0.38322843  0.60976688  0.84441730  1
  H+  H171  1  0.53067255  -0.09714059  0.48709257  1
  H+  H172  1  0.92995353  0.08741271  0.23119539  1
  H+  H173  1  0.42384309  0.65171076  0.50359671  1
  H+  H174  1  0.76621253  0.38355271  0.34660981  1
  H+  H175  1  0.09790895  0.08848368  0.32017474  1
  H+  H176  1  0.76647885  0.12481962  0.34385304  1
  H+  H177  1  0.87387856  0.73320640  0.34329981  1
  H+  H178  1  0.11658648  0.12715951  0.15370040  1
  H+  H179  1  0.08450959  0.49890075  0.53563243  1
  H+  H180  1  0.87443664  0.22559073  1.00526450  1
  H+  H181  1  0.26310992  0.13501486  0.16456531  1
  H+  H182  1  0.35787719  0.47437571  0.16315745  1
  H+  H183  1  0.32210285  0.65596726  0.10706948  1
  H+  H184  1  0.63332771  0.76352746  0.83666782  1
  H+  H185  1  0.22566269  0.61214524  0.34147305  1
  H+  H186  1  0.58994225  0.23491581  0.15398788  1
  H+  H187  1  0.76924680  0.13091779  0.49338077  1
  H+  H188  1  0.37784891  0.26986620  0.17891436  1
  H+  H189  1  0.77283105  0.86977462  0.66621140  1
  H+  H190  1  0.39140393  0.01719052  0.33158037  1
  H+  H191  1  0.59994587  0.83665670  0.33369738  1
  H+  H192  1  0.44098018  0.07305585  0.83365071  1
  H+  H193  1  -0.11201894  0.11003820  0.32657361  1
  H+  H194  1  0.37029388  0.39743252  0.00513092  1
  H+  H195  1  0.48159199  0.86140005  0.84188360  1
  H+  H196  1  0.62514520  0.60450462  0.33257605  1
  H+  H197  1  0.08381959  0.15663102  0.40165396  1
  H+  H198  1  0.61351697  0.88615595  -0.02856592  1
  H+  H199  1  0.77408971  0.87465429  0.00736719  1
  H+  H200  1  0.66136775  0.38257559  0.80272133  1
  H+  H201  1  0.65324898  0.53943119  0.50725921  1
  H+  H202  1  0.88880820  0.10335138  0.99378853  1
  H+  H203  1  0.27968029  0.14787034  0.67864502  1
  H+  H204  1  0.13950807  0.13438105  0.67821172  1
  H+  H205  1  0.51526558  0.13179698  0.67585587  1
  H+  H206  1  0.81442117  0.39792718  -0.05739293  1
  H+  H207  1  0.54398286  0.16416535  0.49529578  1
  H+  H208  1  0.52473991  0.63069192  0.81973232  1
  H+  H209  1  0.91203851  0.59904907  0.66806406  1
  H+  H210  1  0.61493502  0.01642588  0.32741997  1
  H+  H211  1  0.35293723  0.13771440  0.00543533  1
  H+  H212  1  0.36145808  0.69381734  0.39851822  1
  H+  H213  1  0.13993292  0.01765011  0.16084068  1
  H+  H214  1  0.11927367  0.24787693  0.65361348  1
  H+  H215  1  0.65393510  0.74850718  0.48759355  1
  H+  H216  1  0.68328457  0.37001729  1.09037954  1
  H+  H217  1  0.92111995  0.79497533  0.17809158  1
  H+  H218  1  0.07833932  0.55351975  0.58946723  1
  H+  H219  1  0.63639204  0.26829613  0.65819244  1
  H+  H220  1  0.15445755  0.85491580  0.32737783  1
  H+  H221  1  0.87594606  0.52920945  0.17990941  1
  H+  H222  1  0.22557223  0.35136211  0.17076996  1
  H+  H223  1  0.38639231  0.52217902  0.84218373  1
  H+  H224  1  0.82766559  0.25466124  0.62695033  1
  H+  H225  1  0.12643104  0.60952639  0.68810857  1
  H+  H226  1  0.17034037  0.65608168  0.17744444  1
  H+  H227  1  0.15958251  0.58127166  0.93800882  1
  H+  H228  1  0.12002389  0.21960442  0.15414957  1
  H+  H229  1  0.57342843  0.06412245  0.15722653  1
  H+  H230  1  0.41300627  0.33468625  0.23615171  1
  H+  H231  1  0.63123035  0.85039105  0.83907942  1
  H+  H232  1  0.65435764  0.29073039  1.04772162  1
  H+  H233  1  0.57443348  0.58340360  0.15059140  1
  H+  H234  1  0.66612561  0.09305870  -0.06751209  1
  H+  H235  1  0.89470032  0.53711553  0.97299121  1
  H+  H236  1  0.28337959  0.40452627  0.66629941  1
  H+  H237  1  0.11785107  0.13066038  0.83513573  1
  H+  H238  1  0.11289835  0.10587017  0.49025921  1
  H+  H239  1  0.63637570  0.53287836  0.00247759  1
  H+  H240  1  0.07783863  0.42843995  0.10121817  1
  H+  H241  1  0.40541434  0.28999150  0.33782956  1
  H+  H242  1  0.63796177  0.65022993  0.49376162  1
  H+  H243  1  0.62246080  0.40180759  0.50369537  1
  H+  H244  1  0.85899744  0.12966423  0.49524004  1
  H+  H245  1  1.03440703  0.39069530  0.81293779  1
  H+  H246  1  0.12375816  0.39581401  0.80823813  1
  H+  H247  1  0.39455165  0.86002295  0.52021887  1
  H+  H248  1  0.33293817  0.43449196  0.41315684  1
  H+  H249  1  0.89440659  0.70689310  0.67385513  1
  H+  H250  1  0.39043173  0.53219166  0.34032095  1
  H+  H251  1  0.13610050  0.61332605  1.00016923  1
  H+  H252  1  0.39712982  0.89114063  0.67830247  1
  H+  H253  1  0.25924976  0.90281227  0.14584535  1
  H+  H254  1  0.10904306  0.46972676  0.33448676  1
  H+  H255  1  0.12720186  0.61553182  0.17679680  1
  H+  H256  1  0.88035287  0.61355692  0.50112143  1
  H+  H257  1  0.36723635  0.38957427  0.82509957  1
  H+  H258  1  0.28265756  -0.12572297  0.34262803  1
  H+  H259  1  0.59902560  0.46369409  0.16747307  1
  H+  H260  1  0.37789475  0.61082974  0.18138622  1
  H+  H261  1  0.11086164  0.95891503  0.33938690  1
  H+  H262  1  0.87961857  0.98113019  0.15959301  1
  H+  H263  1  0.36407492  0.38904205  0.15877731  1
  H+  H264  1  0.91915795  0.73172643  0.84158182  1
  H+  H265  1  0.60553431  0.72812272  0.35039601  1
  H+  H266  1  0.38942514  0.25499085  0.49308648  1
  H+  H267  1  0.36062574  0.85780760  0.17302282  1
  H+  H268  1  0.08594261  0.62245930  0.50074268  1
  H+  H269  1  0.61769657  0.74724316  0.16595560  1
  H+  H270  1  0.02390989  0.14078994  0.34307505  1
  H+  H271  1  0.14110108  0.36873059  1.01569643  1
  H+  H272  1  0.82905905  0.95013550  0.50240308  1
  H+  H273  1  0.86751099  0.61417860  0.17936679  1
  H+  H274  1  0.87969491  0.85151241  0.51548659  1
  H+  H275  1  0.75775666  0.39818759  0.79754576  1
  H+  H276  1  0.77629110  0.38412587  0.49861075  1
  H+  H277  1  0.14667904  0.86044111  0.66486032  1
  H+  H278  1  0.87124883  0.19962402  0.63379716  1
  H+  H279  1  0.06927625  0.39414518  0.71800618  1
  H+  H280  1  0.87718014  0.45097004  0.65771208  1
  H+  H281  1  0.40667974  0.76285794  0.49608991  1
  H+  H282  1  0.27985439  0.39580654  0.35147846  1
  H+  H283  1  0.91430151  0.50581177  0.82906490  1
  H+  H284  1  0.63559284  0.85324829  0.63726318  1
  H+  H285  1  0.13256073  0.01029357  0.99377944  1
  H+  H286  1  0.56238669  0.64256431  0.06066214  1
  H+  H287  1  0.10368624  0.95777184  0.48445116  1
  H+  H288  1  0.92293131  0.61607088  0.92545977  1
  H+  H289  1  0.15906612  0.04317203  0.54567090  1
  H+  H290  1  0.41357467  0.07272305  0.26955664  1
  H+  H291  1  0.21626596  0.36319281  0.98693342  1
  H+  H292  1  0.36620738  0.10539912  0.18103198  1
  H+  H293  1  0.38521676  0.02509877  0.99290408  1
  H+  H294  1  0.34682588  0.43304992  0.06728337  1
  H+  H295  1  0.59037610  0.67226490  0.41930116  1
  H+  H296  1  0.67269174  0.33779395  0.56776210  1
  H+  H297  1  0.72861464  0.95431374  0.22631143  1
  H+  H298  1  0.41844373  0.58019829  0.93077012  1
  H+  H299  1  0.83210245  0.40853836  0.43587989  1
  H+  H300  1  0.31984197  0.67480662  0.48995059  1
  H+  H301  1  0.58877688  0.66041032  0.76120875  1
  H+  H302  1  0.61538603  0.14734974  -0.00255988  1
  H+  H303  1  0.63409381  0.11267826  0.32850720  1
  H+  H304  1  0.79473202  0.11660783  0.75200389  1
  H+  H305  1  0.73034839  0.35075218  0.65409473  1
  H+  H306  1  0.69746129  0.59136909  0.60010822  1
  H+  H307  1  0.90775687  0.82425058  0.93337533  1
  H+  H308  1  0.39203112  0.05913742  0.89646910  1
  H+  H309  1  0.12096034  0.60914995  0.84740793  1
  H+  H310  1  0.65418439  0.08122301  0.55476527  1
  H+  H311  1  0.78411434  0.39279932  0.00952431  1
  H+  H312  1  0.33746751  0.17248076  0.73731535  1
  H+  H313  1  0.62068355  0.38699574  0.67139121  1
  H+  H314  1  0.07781950  0.65694000  0.40309058  1
  H+  H315  1  0.14615655  0.06972815  0.22421139  1
  H+  H316  1  0.58351901  0.41654815  0.76416846  1
  H+  H317  1  0.35158852  0.97974835  0.16129670  1
  H+  H318  1  0.84104134  0.67723724  0.09257886  1
  H+  H319  1  0.60167412  0.92842472  0.08414433  1
  H+  H320  1  0.67331800  0.83861764  0.29255370  1
  H+  H321  1  0.39150011  0.83201582  0.23332676  1
  H+  H322  1  0.13949906  0.28216820  0.83672705  1
  H+  H323  1  0.35285502  0.93043554  0.07055324  1
  H+  H324  1  0.07120592  0.67012724  0.07469993  1
  H+  H325  1  0.58674723  0.16981565  0.39621378  1
  H+  H326  1  0.58325483  0.16660800  0.73087725  1
  H+  H327  1  0.84686885  0.42495316  0.11100801  1
  H+  H328  1  0.64160385  0.56434560  0.24354677  1
  H+  H329  1  0.15752366  0.81783281  0.56916282  1
  H+  H330  1  0.38255539  0.74041164  0.33513772  1
  H+  H331  1  0.14340611  0.76928744  0.00301498  1
  H+  H332  1  0.84455622  0.38293292  0.70948528  1
  H+  H333  1  0.08175638  0.40005897  0.45691618  1
  H+  H334  1  0.08893663  0.16023691  0.77636425  1
  H+  H335  1  0.67581689  0.33453036  0.91913904  1
  H+  H336  1  0.57229017  0.92544349  0.42136291  1
  H+  H337  1  0.35042737  0.12833797  0.82777073  1
  H+  H338  1  0.69978464  0.07101071  0.24743812  1
  H+  H339  1  0.41093671  0.88040201  0.33608758  1
  H+  H340  1  0.50547993  0.42399053  0.52508852  1
  H+  H341  1  0.84053116  0.16470455  0.06317768  1
  H+  H342  1  0.09240665  0.91501581  0.06041049  1
  H+  H343  1  0.41337398  0.58405096  0.23993657  1
  H+  H344  1  0.83966854  0.91900615  0.76364147  1
  H+  H345  1  0.08781129  0.89997259  0.39973718  1
  H+  H346  1  0.25078811  0.84382843  0.49847844  1
  H+  H347  1  0.43069525  0.36207637  0.61457740  1
  H+  H348  1  0.71008762  0.11186168  0.63753710  1
  H+  H349  1  0.52533509  0.13267932  0.33739961  1
  H+  H350  1  0.45513064  0.85612182  0.57604282  1
  H+  H351  1  0.90904770  0.58023676  0.27512606  1
  H+  H352  1  0.93951954  0.33690021  0.93284476  1
  H+  H353  1  0.35814127  0.16408488  0.39998651  1
  H+  H354  1  0.82978778  0.15839358  0.40055979  1
  H+  H355  1  0.91800510  0.07093440  0.93476080  1
  H+  H356  1  0.92932632  0.84042290  0.27440255  1
  H+  H357  1  0.40974332  0.33516849  0.93387475  1
  H+  H358  1  0.09526116  0.91787570  0.77755827  1
  H+  H359  1  0.33805304  0.42453518  0.76741983  1
  H+  H360  1  0.34368975  0.89490414  0.76163009  1
  H+  H361  1  0.92445435  0.81930169  0.60615779  1
  H+  H362  1  0.91285792  0.07103428  0.56190255  1
  H+  H363  1  0.07860896  0.14786733  0.07030690  1
  H+  H364  1  0.41773434  0.61550166  0.60663180  1
  H+  H365  1  0.29827589  0.66537787  0.73700020  1
  H+  H366  1  0.37685319  0.86367933  0.83018103  1
  H+  H367  1  0.86891178  0.73068314  0.00390120  1
  H+  H368  1  0.78118577  0.13809131  0.72876184  1
  H+  H369  1  0.33266573  0.89734385  0.40614126  1
  H+  H370  1  0.55547520  0.17751481  0.09379550  1
  H+  H371  1  0.40224102  0.06306599  0.61251706  1
  H+  H372  1  0.62941180  0.51808990  0.33481347  1
  H+  H373  1  0.18036896  0.55094783  0.25213799  1
  H+  H374  1  0.99888781  0.65087858  0.83912613  1
  H+  H375  1  0.16698381  0.08025328  0.90074956  1
  H+  H376  1  0.55873877  0.92560381  0.08039007  1
  H+  H377  1  0.85297967  0.37940683  0.34386589  1
  H+  H378  1  0.17392022  0.31559381  0.23207771  1
  H+  H379  1  0.56665040  0.91130649  0.75755826  1
  H+  H380  1  0.62861583  0.31911913  0.92307364  1
  H+  H381  1  0.11360867  0.19570138  0.49989249  1
  H+  H382  1  0.94170848  0.49839757  0.76466195  1
  H+  H383  1  0.68986850  0.83990661  0.58438245  1
  O2-  O384  1  0.08659065  0.15888222  0.13750879  1
  O2-  O385  1  0.08086276  0.13968311  0.48041880  1
  O2-  O386  1  0.08699905  0.16204692  0.82059038  1
  O2-  O387  1  0.07368993  0.42174309  0.14915750  1
  O2-  O388  1  0.06387837  0.39182500  0.49932604  1
  O2-  O389  1  0.09014472  0.42295129  0.79147621  1
  O2-  O390  1  0.05313451  0.70345054  0.14706142  1
  O2-  O391  1  0.06820763  0.65929959  0.47787632  1
  O2-  O392  1  0.05814920  0.65220429  0.82646353  1
  O2-  O393  1  0.11177376  0.93612036  0.13306310  1
  O2-  O394  1  0.06920842  0.89365389  0.47393432  1
  O2-  O395  1  0.10297364  0.92852992  0.82172249  1
  O2-  O396  1  0.32581376  0.16680906  0.15226270  1
  O2-  O397  1  0.30736927  0.09260482  0.47152537  1
  O2-  O398  1  0.32882667  0.16663942  0.81473112  1
  O2-  O399  1  0.33373452  0.41806909  0.14171069  1
  O2-  O400  1  0.32948789  0.44833694  0.49662399  1
  O2-  O401  1  0.33777945  0.42159312  0.81280372  1
  O2-  O402  1  0.32243409  0.65691720  0.15262972  1
  O2-  O403  1  0.37780980  0.70513402  0.47320893  1
  O2-  O404  1  0.32735528  0.65808081  0.82101393  1
  O2-  O405  1  0.32071531  0.92071539  0.14205022  1
  O2-  O406  1  0.31371437  0.87430638  0.48607987  1
  O2-  O407  1  0.33619635  0.88784450  0.80885340  1
  O2-  O408  1  0.53825102  0.19242864  0.13193830  1
  O2-  O409  1  0.59906419  0.18413827  0.47538514  1
  O2-  O410  1  0.61163454  0.19293913  0.81065850  1
  O2-  O411  1  0.57467420  0.40441740  0.14940172  1
  O2-  O412  1  0.59411753  0.43420624  0.48952210  1
  O2-  O413  1  0.58634821  0.41319534  0.80942361  1
  O2-  O414  1  0.53182830  0.58580728  0.12364214  1
  O2-  O415  1  0.61117197  0.68493106  0.47762902  1
  O2-  O416  1  0.58548829  0.65932415  0.80707479  1
  O2-  O417  1  0.56253592  0.89658027  0.20407022  1
  O2-  O418  1  0.58574983  0.93754338  0.46423283  1
  O2-  O419  1  0.57390358  0.91208211  0.80223730  1
  O2-  O420  1  0.85201721  0.17260472  0.14306907  1
  O2-  O421  1  0.83087805  0.16212122  0.47967025  1
  O2-  O422  1  0.83984802  0.16614566  0.86322243  1
  O2-  O423  1  0.83801006  0.41992764  0.15483187  1
  O2-  O424  1  0.83604606  0.40587442  0.48176525  1
  O2-  O425  1  0.90215327  0.46262966  0.79765929  1
  O2-  O426  1  0.83665571  0.68004489  0.13914805  1
  O2-  O427  1  0.83696695  0.66937932  0.47707775  1
  O2-  O428  1  0.91305928  0.78164387  0.82240724  1
  O2-  O429  1  0.84600180  0.91842195  0.15042937  1
  O2-  O430  1  0.80574289  0.88936586  0.48973614  1
  O2-  O431  1  0.84883772  0.93374082  0.80731323  1
  O2-  O432  1  0.16162635  0.07955711  0.18041442  1
  O2-  O433  1  0.15772655  0.05475867  0.50263402  1
  O2-  O434  1  0.16925511  0.08324258  0.85556486  1
  O2-  O435  1  0.16741601  0.31310356  0.18751068  1
  O2-  O436  1  0.17179802  0.34470277  0.55372147  1
  O2-  O437  1  0.16632438  0.34488285  0.84058137  1
  O2-  O438  1  0.19211279  0.52735771  0.21465447  1
  O2-  O439  1  0.09974404  0.55708621  0.54781744  1
  O2-  O440  1  0.15607269  0.58243343  0.85954537  1
  O2-  O441  1  0.15684290  0.89801139  0.16417701  1
  O2-  O442  1  0.15437471  0.81638303  0.52343076  1
  O2-  O443  1  0.15445803  0.82463285  0.86439901  1
  O2-  O444  1  0.39952414  0.07625074  0.19239714  1
  O2-  O445  1  0.38952588  0.03479473  0.53511690  1
  O2-  O446  1  0.38383061  0.04912537  0.85112333  1
  O2-  O447  1  0.41207945  0.33199881  0.19091358  1
  O2-  O448  1  0.44619619  0.40340730  0.54180271  1
  O2-  O449  1  0.41934861  0.33476634  0.85534848  1
  O2-  O450  1  0.40455664  0.57660491  0.19544706  1
  O2-  O451  1  0.44214018  0.61298043  0.52256778  1
  O2-  O452  1  0.41636601  0.58191002  0.85939004  1
  O2-  O453  1  0.38785420  0.82486367  0.18874732  1
  O2-  O454  1  0.44231718  0.84872457  0.52941370  1
  O2-  O455  1  0.41940123  0.82979936  0.85416147  1
  O2-  O456  1  0.71685710  0.05478676  0.20876971  1
  O2-  O457  1  0.66378363  0.09099892  0.50981368  1
  O2-  O458  1  0.66487178  0.08138427  0.85364228  1
  O2-  O459  1  0.66653197  0.33567164  0.19230463  1
  O2-  O460  1  0.67729861  0.34639754  0.52225991  1
  O2-  O461  1  0.69724776  0.35581470  0.79192106  1
  O2-  O462  1  0.64263123  0.56021695  0.19642208  1
  O2-  O463  1  0.68328792  0.60040580  0.52135951  1
  O2-  O464  1  0.67196007  0.57778954  0.83380817  1
  O2-  O465  1  0.71311767  0.89342095  0.22468852  1
  O2-  O466  1  0.71499863  0.84628229  0.50916612  1
  O2-  O467  1  0.65998489  0.82102561  0.85613972  1
  O2-  O468  1  0.92957220  0.08756118  0.18580940  1
  O2-  O469  1  0.90667472  0.07066415  0.51704004  1
  O2-  O470  1  0.91958225  0.07917855  0.85951757  1
  O2-  O471  1  0.91517623  0.33167927  0.19117856  1
  O2-  O472  1  0.89735879  0.31803888  0.51641208  1
  O2-  O473  1  0.93594294  0.34021780  0.85420313  1
  O2-  O474  1  0.89946761  0.58754737  0.19704200  1
  O2-  O475  1  0.91288605  0.58639879  0.51805447  1
  O2-  O476  1  0.92362617  0.64861080  0.85795139  1
  O2-  O477  1  0.93592591  0.84786543  0.20013033  1
  O2-  O478  1  0.91551644  0.82674147  0.52809591  1
  O2-  O479  1  0.86894474  0.80389315  0.86123597  1
  O2-  O480  1  0.09578172  0.03945845  0.29675085  1
  O2-  O481  1  0.16692747  0.10478242  0.65917591  1
  O2-  O482  1  0.15857294  0.07339592  0.98112690  1
  O2-  O483  1  0.18110614  0.33085441  0.31938752  1
  O2-  O484  1  0.17878257  0.34703599  0.62059301  1
  O2-  O485  1  0.15970150  0.32768666  1.00483493  1
  O2-  O486  1  0.16634154  0.57657393  0.32644420  1
  O2-  O487  1  0.06951371  0.56249748  0.67466059  1
  O2-  O488  1  0.16414093  0.58158538  0.98351694  1
  O2-  O489  1  0.18623046  0.82535749  0.31465380  1
  O2-  O490  1  0.17108244  0.82786657  0.64513587  1
  O2-  O491  1  0.17586982  0.82781257  0.98601960  1
  O2-  O492  1  0.42402559  0.07614761  0.31449302  1
  O2-  O493  1  0.41021378  0.07346962  0.65707000  1
  O2-  O494  1  0.40383871  0.08115320  0.97131982  1
  O2-  O495  1  0.42526207  0.34735662  0.31839363  1
  O2-  O496  1  0.42682216  0.35010237  0.65909546  1
  O2-  O497  1  0.40490096  0.33409055  0.97937020  1
  O2-  O498  1  0.42614992  0.59235519  0.32420398  1
  O2-  O499  1  0.39784972  0.61339001  0.64861731  1
  O2-  O500  1  0.42150857  0.58078530  0.97770322  1
  O2-  O501  1  0.43687965  0.84879058  0.31315626  1
  O2-  O502  1  0.46605620  0.87005274  0.64485952  1
  O2-  O503  1  0.35877924  0.79983602  0.96109282  1
  O2-  O504  1  0.65996205  0.07575391  0.31839779  1
  O2-  O505  1  0.64724566  0.07557351  0.63201120  1
  O2-  O506  1  0.66577943  0.09988807  0.97774425  1
  O2-  O507  1  0.66439593  0.33506457  0.31920876  1
  O2-  O508  1  0.66937088  0.32840418  0.64250783  1
  O2-  O509  1  0.68803275  0.35407059  1.04863937  1
  O2-  O510  1  0.64809818  0.57217709  0.31160719  1
  O2-  O511  1  0.70277105  0.58709550  0.64495837  1
  O2-  O512  1  0.66575872  0.59253428  0.98793989  1
  O2-  O513  1  0.64056607  0.81542089  0.33124981  1
  O2-  O514  1  0.67515106  0.83176181  0.62918832  1
  O2-  O515  1  0.67809897  0.83091564  0.97560962  1
  O2-  O516  1  0.92340781  0.08528315  0.31230256  1
  O2-  O517  1  0.92535216  0.06742072  0.64146757  1
  O2-  O518  1  0.91765201  0.07105289  0.98080136  1
  O2-  O519  1  0.89981816  0.32219331  0.31427235  1
  O2-  O520  1  1.01513074  0.39044977  0.63627898  1
  O2-  O521  1  0.93205632  0.33163054  0.97813203  1
  O2-  O522  1  0.91746024  0.58020757  0.31981336  1
  O2-  O523  1  0.94131635  0.56089633  0.65705712  1
  O2-  O524  1  0.92441340  0.59989396  0.97028025  1
  O2-  O525  1  0.92939255  0.83963765  0.32021991  1
  O2-  O526  1  0.92725452  0.81613474  0.65135458  1
  O2-  O527  1  0.92000551  0.82980949  0.97830425  1
  O2-  O528  1  0.07214616  0.13589752  0.02355657  1
  O2-  O529  1  0.08511605  0.16527904  0.35666704  1
  O2-  O530  1  0.08083735  0.20012923  0.68216544  1
  O2-  O531  1  0.08384800  0.43036911  0.03618256  1
  O2-  O532  1  0.07579372  0.40560932  0.32755003  1
  O2-  O533  1  0.05451112  0.35801756  0.67925025  1
  O2-  O534  1  0.07972018  0.65800436  0.03182288  1
  O2-  O535  1  0.08334391  0.65554669  0.35738813  1
  O2-  O536  1  0.00615184  0.58170645  0.70264945  1
  O2-  O537  1  0.08885078  0.91383421  0.01439389  1
  O2-  O538  1  0.09437263  0.90078697  0.35413372  1
  O2-  O539  1  0.08959426  0.91374050  0.69346484  1
  O2-  O540  1  0.32274332  0.16591992  0.02339053  1
  O2-  O541  1  0.40094881  0.20154031  0.36984025  1
  O2-  O542  1  0.34030596  0.17360063  0.69162029  1
  O2-  O543  1  0.35098181  0.43775762  0.02126018  1
  O2-  O544  1  0.33916568  0.43186601  0.36838044  1
  O2-  O545  1  0.33781817  0.43284179  0.68887007  1
  O2-  O546  1  0.32575081  0.65504765  0.02915341  1
  O2-  O547  1  0.35060617  0.68241290  0.35383387  1
  O2-  O548  1  0.27856183  0.66214626  0.69490179  1
  O2-  O549  1  0.38259388  0.94216779  0.02974993  1
  O2-  O550  1  0.34255370  0.90753062  0.36148967  1
  O2-  O551  1  0.35280201  0.90561312  0.69484723  1
  O2-  O552  1  0.58275999  0.17917382  0.00739494  1
  O2-  O553  1  0.58704892  0.16748902  0.35103202  1
  O2-  O554  1  0.57818274  0.16351559  0.68598097  1
  O2-  O555  1  0.56678668  0.41590132  0.02652846  1
  O2-  O556  1  0.58605288  0.41903914  0.36814422  1
  O2-  O557  1  0.59664040  0.42299550  0.68590002  1
  O2-  O558  1  0.57323616  0.66120318  0.01660393  1
  O2-  O559  1  0.57703037  0.66541488  0.36893158  1
  O2-  O560  1  0.60860990  0.66304580  0.68724637  1
  O2-  O561  1  0.57542408  0.90994394  -0.03658722  1
  O2-  O562  1  0.53121684  0.89772141  0.32151334  1
  O2-  O563  1  0.55402639  0.90563342  0.67027786  1
  O2-  O564  1  0.83818517  0.16425585  0.01758508  1
  O2-  O565  1  0.82821651  0.15905760  0.35516754  1
  O2-  O566  1  0.81800468  0.19660926  0.62114691  1
  O2-  O567  1  0.83656689  0.41297856  -0.01603662  1
  O2-  O568  1  0.82700117  0.41208826  0.36188031  1
  O2-  O569  1  0.84408571  0.38703040  0.66527097  1
  O2-  O570  1  0.83845903  0.67080594  0.02176627  1
  O2-  O571  1  0.84297853  0.67411394  0.36044006  1
  O2-  O572  1  0.86708347  0.64484239  0.68386391  1
  O2-  O573  1  0.83373507  0.90443486  0.02576028  1
  O2-  O574  1  0.86070157  0.93261701  0.36384675  1
  O2-  O575  1  0.83159779  0.89232703  0.68371519  1
