# generated using pymatgen
data_H2O
_symmetry_space_group_name_H-M   'P 1'
_cell_length_a   17.98598403
_cell_length_b   17.98752244
_cell_length_c   21.99533563
_cell_angle_alpha   89.97939228
_cell_angle_beta   90.00197220
_cell_angle_gamma   119.99246894
_symmetry_Int_Tables_number   1
_chemical_formula_structural   H2O
_chemical_formula_sum   'H384 O192'
_cell_volume   6163.10682982
_cell_formula_units_Z   192
loop_
 _symmetry_equiv_pos_site_id
 _symmetry_equiv_pos_as_xyz
  1  'x, y, z'
loop_
 _atom_type_symbol
 _atom_type_oxidation_number
  H+  1.0
  O2-  -2.0
loop_
 _atom_site_type_symbol
 _atom_site_label
 _atom_site_symmetry_multiplicity
 _atom_site_fract_x
 _atom_site_fract_y
 _atom_site_fract_z
 _atom_site_occupancy
  H+  H0  1  -0.05528019  0.65112912  0.68079428  1
  H+  H1  1  0.36949104  0.40501975  0.46444212  1
  H+  H2  1  0.21884786  0.10808111  0.84027702  1
  H+  H3  1  0.76773523  0.13090247  0.83857460  1
  H+  H4  1  0.17122591  0.58460583  0.21563755  1
  H+  H5  1  0.52820905  0.62792676  0.67406981  1
  H+  H6  1  0.61301801  0.88707330  0.83663919  1
  H+  H7  1  1.00926700  0.88036606  1.00485377  1
  H+  H8  1  0.86114840  0.22312127  0.16264960  1
  H+  H9  1  0.22390341  0.85590937  0.50493990  1
  H+  H10  1  0.66308596  0.81342765  0.11198266  1
  H+  H11  1  0.53403234  0.88393616  0.15531894  1
  H+  H12  1  1.02969525  0.89441339  0.15503256  1
  H+  H13  1  0.77422257  0.38733901  0.35351618  1
  H+  H14  1  0.38594699  0.85436670  0.16593790  1
  H+  H15  1  0.63469873  0.53574449  0.32366074  1
  H+  H16  1  0.61886820  0.15199370  0.69216812  1
  H+  H17  1  0.01912161  0.12274895  0.17161866  1
  H+  H18  1  0.86196705  0.46999984  0.15801256  1
  H+  H19  1  0.86580162  0.48079796  0.83640121  1
  H+  H20  1  0.62481432  0.39069825  0.49330525  1
  H+  H21  1  0.87333151  0.01313088  0.65205146  1
  H+  H22  1  0.49679921  0.39526356  0.46298025  1
  H+  H23  1  0.89998166  0.12240478  0.50027926  1
  H+  H24  1  0.87545837  0.13462259  0.32443415  1
  H+  H25  1  -0.01671694  0.36782191  0.50340877  1
  H+  H26  1  0.15847148  0.82493093  0.89738995  1
  H+  H27  1  0.93114241  0.59478264  0.56433688  1
  H+  H28  1  0.38338771  0.62189177  0.34982257  1
  H+  H29  1  0.63555479  0.84936355  0.67449126  1
  H+  H30  1  0.77149821  0.87864774  0.17194884  1
  H+  H31  1  0.02571082  0.88384369  0.33866407  1
  H+  H32  1  0.38560638  0.53906414  0.32951672  1
  H+  H33  1  0.87566559  0.73347645  0.66983775  1
  H+  H34  1  0.39619147  0.08880538  0.49936244  1
  H+  H35  1  0.42758976  0.07313232  0.56358863  1
  H+  H36  1  0.72905594  0.10913338  0.33607648  1
  H+  H37  1  0.66249013  0.54859164  0.11979133  1
  H+  H38  1  0.88580512  0.27668274  0.99181616  1
  H+  H39  1  0.53069966  0.64988017  0.83691247  1
  H+  H40  1  0.13917676  0.37267553  0.32017353  1
  H+  H41  1  0.52260095  0.88259175  0.82961605  1
  H+  H42  1  0.35971851  0.12084274  0.14592287  1
  H+  H43  1  0.38174157  0.20481123  0.51823418  1
  H+  H44  1  0.86326562  0.88484678  0.66679379  1
  H+  H45  1  0.51638660  0.13268056  0.34924601  1
  H+  H46  1  0.30327280  0.65557436  0.79021276  1
  H+  H47  1  0.17359629  0.58689111  1.08200538  1
  H+  H48  1  0.89241617  0.37173655  0.33347410  1
  H+  H49  1  0.83331247  0.17525677  0.06413223  1
  H+  H50  1  0.85720647  0.21609781  0.84155169  1
  H+  H51  1  0.11839956  0.76093561  0.32294153  1
  H+  H52  1  0.88087818  1.01881055  0.17316958  1
  H+  H53  1  0.35377048  0.73064972  0.35739366  1
  H+  H54  1  0.12297365  0.85543922  0.99003690  1
  H+  H55  1  0.21168987  0.09904837  0.99363601  1
  H+  H56  1  0.10959197  0.88080577  0.82656120  1
  H+  H57  1  0.70217123  0.72211391  0.21098135  1
  H+  H58  1  0.64081950  0.61874374  0.84219363  1
  H+  H59  1  0.62992391  -0.04607601  0.67253407  1
  H+  H60  1  0.61553952  0.87409422  0.32968850  1
  H+  H61  1  0.11868274  0.47988000  0.48777878  1
  H+  H62  1  -0.01055322  0.12409080  0.50671163  1
  H+  H63  1  0.08855709  0.15266142  0.07779521  1
  H+  H64  1  0.35482771  0.86316369  0.48876558  1
  H+  H65  1  0.77567561  0.14474777  0.00394349  1
  H+  H66  1  0.07705152  0.36202352  0.84214098  1
  H+  H67  1  0.85848762  0.87599761  0.82207725  1
  H+  H68  1  0.65241931  0.52980928  0.52288272  1
  H+  H69  1  0.63110023  0.34408236  0.13649905  1
  H+  H70  1  0.88033861  0.01940447  1.01623472  1
  H+  H71  1  0.21764839  0.85201322  0.16892470  1
  H+  H72  1  0.38983484  0.34147455  0.69624382  1
  H+  H73  1  0.36494425  0.26161060  0.32417713  1
  H+  H74  1  0.35235856  0.96039385  0.14821920  1
  H+  H75  1  0.36611694  0.13427723  0.82085996  1
  H+  H76  1  0.85135442  0.87650704  0.01478322  1
  H+  H77  1  0.83923218  0.66705401  0.77108098  1
  H+  H78  1  0.46873182  0.10765654  0.99194335  1
  H+  H79  1  0.88971450  0.36035165  0.17254397  1
  H+  H80  1  0.01955224  0.63879141  0.33557653  1
  H+  H81  1  0.11384623  0.14255093  0.33740964  1
  H+  H82  1  0.25634081  0.62872868  0.85255044  1
  H+  H83  1  0.12061876  0.14382188  0.67578846  1
  H+  H84  1  0.45279917  0.88269199  1.02323537  1
  H+  H85  1  0.77749752  0.37977199  0.14137886  1
  H+  H86  1  0.47835022  0.10084447  0.14852439  1
  H+  H87  1  0.57225508  0.41965118  0.27231592  1
  H+  H88  1  0.62773263  0.10992359  0.84229711  1
  H+  H89  1  0.36436465  0.88506723  0.83216244  1
  H+  H90  1  0.61768118  0.62876617  0.68253775  1
  H+  H91  1  0.57822132  0.14673963  0.08753843  1
  H+  H92  1  0.87946076  0.23720966  0.48222466  1
  H+  H93  1  0.11105073  0.71912837  0.82964127  1
  H+  H94  1  0.69484607  0.53550161  0.12827005  1
  H+  H95  1  0.11651033  0.23333351  0.33762867  1
  H+  H96  1  0.42345965  0.84222711  0.90555443  1
  H+  H97  1  0.12357555  0.00796731  0.50208022  1
  H+  H98  1  0.39501939  0.11049799  0.65243488  1
  H+  H99  1  0.64382569  0.27385944  0.50278552  1
  H+  H100  1  0.39424781  0.77342388  0.15476094  1
  H+  H101  1  0.02356937  0.38824015  0.00721945  1
  H+  H102  1  0.22389495  0.38568613  0.83591826  1
  H+  H103  1  0.87841412  0.73450549  0.16260254  1
  H+  H104  1  0.30816492  0.22288464  0.50726997  1
  H+  H105  1  0.15831101  0.07549905  0.89922054  1
  H+  H106  1  0.53142095  0.39381781  0.99834879  1
  H+  H107  1  0.33880743  0.32607580  0.84233309  1
  H+  H108  1  0.11073954  0.88178568  0.49044752  1
  H+  H109  1  0.38712392  0.53179860  -0.00245075  1
  H+  H110  1  0.25379412  0.88658181  0.67703059  1
  H+  H111  1  0.11637378  0.13763254  0.49153579  1
  H+  H112  1  0.96771002  0.60715490  0.17524168  1
  H+  H113  1  0.39424583  0.83988906  0.63088713  1
  H+  H114  1  0.88119643  0.10068922  0.83833051  1
  H+  H115  1  0.62328117  0.88362494  0.16420976  1
  H+  H116  1  0.88272446  0.37416564  0.84589920  1
  H+  H117  1  0.14353160  0.35226073  0.17036903  1
  H+  H118  1  0.65835818  0.27857869  0.65632270  1
  H+  H119  1  0.41380128  0.24968316  0.87642528  1
  H+  H120  1  0.77241229  0.12146323  0.66384960  1
  H+  H121  1  0.64866559  0.36997845  0.84294827  1
  H+  H122  1  0.39079810  0.53520579  0.81089294  1
  H+  H123  1  0.64964757  0.53040459  0.99370764  1
  H+  H124  1  0.11408020  0.47368277  0.02280839  1
  H+  H125  1  0.12593791  0.76775936  -0.00650354  1
  H+  H126  1  0.88703565  0.61466300  -0.00240125  1
  H+  H127  1  0.13063169  0.02363001  0.32141090  1
  H+  H128  1  0.64040985  0.52879676  0.84237953  1
  H+  H129  1  0.09042967  0.17282071  0.43269007  1
  H+  H130  1  0.12703149  0.76208827  0.17136459  1
  H+  H131  1  0.02089337  0.88177424  0.49090711  1
  H+  H132  1  0.36317953  0.95571253  0.49614126  1
  H+  H133  1  0.77638324  0.63877936  0.00642867  1
  H+  H134  1  0.77786651  0.64013894  0.34541327  1
  H+  H135  1  0.77391955  0.63703061  0.82820927  1
  H+  H136  1  0.55987193  0.58182915  0.09331514  1
  H+  H137  1  0.10477702  0.62695430  0.83695703  1
  H+  H138  1  0.86394788  0.87699170  0.34910190  1
  H+  H139  1  0.90496288  0.29024874  0.33691337  1
  H+  H140  1  0.63013653  0.39112075  0.68001497  1
  H+  H141  1  0.62228613  0.47500559  0.68157920  1
  H+  H142  1  0.03644510  0.40316400  0.33562037  1
  H+  H143  1  0.40320930  0.51363698  0.64744458  1
  H+  H144  1  0.64156458  0.77808168  0.32635497  1
  H+  H145  1  0.88462672  0.36526030  0.65761510  1
  H+  H146  1  0.97752499  0.37109090  0.84211288  1
  H+  H147  1  1.02356651  0.37019476  0.16460496  1
  H+  H148  1  0.63592347  0.75146919  0.67153311  1
  H+  H149  1  0.44596966  0.32802478  0.16594236  1
  H+  H150  1  0.35405323  0.13051542  1.00193947  1
  H+  H151  1  0.21049996  0.35638510  0.80858957  1
  H+  H152  1  0.60741798  0.95834202  0.32252621  1
  H+  H153  1  0.85535820  0.47596257  0.68155504  1
  H+  H154  1  0.32929921  0.91387994  0.77384336  1
  H+  H155  1  0.88634210  0.11112399  0.16796553  1
  H+  H156  1  0.83871204  0.19102797  0.29344596  1
  H+  H157  1  0.49279856  0.56845582  0.14683367  1
  H+  H158  1  0.21440284  0.09229719  0.50757496  1
  H+  H159  1  0.33622242  0.90649968  0.40342554  1
  H+  H160  1  0.39330850  0.78318440  1.00664051  1
  H+  H161  1  0.11748868  0.47239797  0.68122750  1
  H+  H162  1  0.29934378  0.40394122  0.16298859  1
  H+  H163  1  0.12100804  0.84790626  0.66048533  1
  H+  H164  1  0.39872871  0.63635037  0.85812233  1
  H+  H165  1  0.98289314  0.12447311  0.32358997  1
  H+  H166  1  0.63878369  0.82001895  0.49976744  1
  H+  H167  1  0.67576508  0.58130707  0.61340472  1
  H+  H168  1  1.02088715  0.12742025  1.02361215  1
  H+  H169  1  0.10810416  0.86816433  0.14918342  1
  H+  H170  1  0.42148742  0.33342549  1.05009741  1
  H+  H171  1  0.62339223  0.73137849  0.07225675  1
  H+  H172  1  0.62292482  0.27366632  0.34995284  1
  H+  H173  1  0.09878882  0.62624774  0.15952758  1
  H+  H174  1  0.62027958  0.05546255  0.64030675  1
  H+  H175  1  0.53354578  0.67715833  0.49517649  1
  H+  H176  1  0.13424261  0.60447269  0.65608205  1
  H+  H177  1  0.89398635  0.77008470  0.32485324  1
  H+  H178  1  0.64178388  0.27734608  0.84349213  1
  H+  H179  1  0.55572651  0.87820968  -0.00247205  1
  H+  H180  1  0.88348445  0.61214461  0.84283859  1
  H+  H181  1  0.13215482  0.35338801  1.00494430  1
  H+  H182  1  0.88172750  1.01298887  0.82824559  1
  H+  H183  1  0.88504712  0.77224061  0.99514251  1
  H+  H184  1  0.88626191  0.36764875  -0.00789465  1
  H+  H185  1  0.60993133  0.64640554  0.34738075  1
  H+  H186  1  0.22304013  0.61721300  0.47986331  1
  H+  H187  1  1.01963575  0.63340045  1.00828654  1
  H+  H188  1  0.72977285  0.84784444  0.66470006  1
  H+  H189  1  0.75912347  0.85944966  0.03717928  1
  H+  H190  1  0.78088221  0.66731346  0.17045162  1
  H+  H191  1  0.72912674  0.90239438  0.49990092  1
  H+  H192  1  0.36343018  0.20895993  0.68083722  1
  H+  H193  1  0.72262934  0.35902231  0.99664499  1
  H+  H194  1  0.12498108  0.86232457  0.32290806  1
  H+  H195  1  0.52841671  0.14223503  0.67476134  1
  H+  H196  1  0.27136751  0.39210787  0.48037661  1
  H+  H197  1  0.63883377  0.26054109  0.13581647  1
  H+  H198  1  0.77069441  0.87775697  0.82431898  1
  H+  H199  1  0.39562198  0.59858211  0.64879652  1
  H+  H200  1  0.61494905  0.38287417  0.00256606  1
  H+  H201  1  0.37649231  0.01999195  0.99238862  1
  H+  H202  1  0.39668347  0.55382556  0.49173387  1
  H+  H203  1  0.66905866  0.33290099  0.93511232  1
  H+  H204  1  -0.01274652  0.61780911  0.50324695  1
  H+  H205  1  0.13952485  0.62016139  0.31724705  1
  H+  H206  1  0.59317262  0.38536714  0.33119509  1
  H+  H207  1  0.88750419  0.52084730  0.33078526  1
  H+  H208  1  0.47346681  0.84955762  0.32066199  1
  H+  H209  1  0.97601456  0.86144432  0.66051506  1
  H+  H210  1  0.23415182  0.62108570  1.02696424  1
  H+  H211  1  0.87852067  0.60612956  0.17719277  1
  H+  H212  1  0.35631565  0.43763570  0.71845091  1
  H+  H213  1  0.64664705  0.02622402  0.99297376  1
  H+  H214  1  0.14648298  0.37050247  0.50087188  1
  H+  H215  1  0.27757716  0.96946442  0.71252498  1
  H+  H216  1  0.10936524  0.96740528  0.67303900  1
  H+  H217  1  0.37243403  0.88755748  0.34132893  1
  H+  H218  1  0.89356116  0.86913820  0.50925220  1
  H+  H219  1  0.10221435  0.13408595  0.82740291  1
  H+  H220  1  0.12652649  0.49046498  0.33332905  1
  H+  H221  1  0.62823448  0.02013102  0.84101108  1
  H+  H222  1  0.57340746  0.43788632  0.15245573  1
  H+  H223  1  0.75192725  0.12054859  0.50154551  1
  H+  H224  1  0.60761591  0.21912113  0.00203945  1
  H+  H225  1  0.90934377  0.90063002  0.18127127  1
  H+  H226  1  0.60657611  0.11821128  0.15019674  1
  H+  H227  1  0.83978740  0.41731179  0.06162356  1
  H+  H228  1  0.11997749  0.50489171  0.85289876  1
  H+  H229  1  0.12434135  0.10146836  -0.00214462  1
  H+  H230  1  0.66101305  0.86345354  0.94763053  1
  H+  H231  1  0.63665795  0.01041925  0.16923328  1
  H+  H232  1  0.39698943  0.62381602  1.00513645  1
  H+  H233  1  0.34652123  0.21670373  0.00709616  1
  H+  H234  1  0.77725896  0.88065483  0.34794629  1
  H+  H235  1  0.38408564  0.02095353  0.84167382  1
  H+  H236  1  0.41141246  0.30864049  0.45095556  1
  H+  H237  1  0.07835422  0.24440725  0.85367976  1
  H+  H238  1  0.97376149  0.86079451  0.84157134  1
  H+  H239  1  0.15391665  0.06852067  0.59965220  1
  H+  H240  1  0.39460018  0.02386093  0.65768937  1
  H+  H241  1  0.91206817  0.57660141  0.26911188  1
  H+  H242  1  0.22328301  0.85622971  0.84099178  1
  H+  H243  1  0.10220310  -0.02809681  1.00607426  1
  H+  H244  1  0.63717821  0.77395733  0.84728545  1
  H+  H245  1  0.35430186  0.12778478  0.35242678  1
  H+  H246  1  0.52174859  0.64999916  0.34545197  1
  H+  H247  1  0.38369386  0.00846907  0.34904920  1
  H+  H248  1  0.53870529  0.37986681  0.84182623  1
  H+  H249  1  0.22171353  0.09951470  0.65382979  1
  H+  H250  1  0.11422647  0.72758371  0.48745515  1
  H+  H251  1  0.11528870  0.63854869  0.48269743  1
  H+  H252  1  0.15150844  0.26790386  0.17792391  1
  H+  H253  1  0.11123654  0.63805886  0.02183157  1
  H+  H254  1  0.26776587  0.38709782  1.00952191  1
  H+  H255  1  0.89419605  0.36797103  0.50016483  1
  H+  H256  1  0.77849259  0.39110335  0.49505608  1
  H+  H257  1  0.33525948  0.42916158  0.06551408  1
  H+  H258  1  0.38094166  0.77368564  0.85255850  1
  H+  H259  1  0.61041816  0.14212902  0.34033761  1
  H+  H260  1  0.37812351  0.76402613  0.47175533  1
  H+  H261  1  0.44992707  0.35216626  0.31356710  1
  H+  H262  1  0.64702827  0.05715526  0.37684958  1
  H+  H263  1  0.34732185  0.38096044  0.33167324  1
  H+  H264  1  0.12282705  0.75991234  0.65817591  1
  H+  H265  1  0.77796386  0.38854101  0.83053466  1
  H+  H266  1  0.66805775  0.33978575  0.29731906  1
  H+  H267  1  0.35798841  0.36879757  0.82641598  1
  H+  H268  1  0.60400120  -0.07826279  0.47982150  1
  H+  H269  1  0.73992442  0.61827217  0.52290219  1
  H+  H270  1  0.97314460  0.61174001  0.84374650  1
  H+  H271  1  0.34642309  0.88250314  -0.00160652  1
  H+  H272  1  0.77241206  0.13303718  0.15945801  1
  H+  H273  1  0.54045603  0.13103278  0.49617379  1
  H+  H274  1  0.87419208  0.64419094  0.49643744  1
  H+  H275  1  0.22726567  0.62277239  0.32907017  1
  H+  H276  1  0.13493815  0.26549818  1.00763554  1
  H+  H277  1  0.87891862  -0.01850169  0.49435689  1
  H+  H278  1  0.73221635  0.60991587  0.67355340  1
  H+  H279  1  0.92348322  0.08966436  0.26306715  1
  H+  H280  1  0.47787036  0.34068403  0.70005285  1
  H+  H281  1  0.37288233  0.36563609  1.00798479  1
  H+  H282  1  0.14852089  0.28214153  0.50174825  1
  H+  H283  1  0.86293177  0.47709257  1.00285333  1
  H+  H284  1  0.36878428  0.71191513  0.64647887  1
  H+  H285  1  0.37124757  0.67350942  0.71009684  1
  H+  H286  1  0.60897336  0.13011684  -0.00167892  1
  H+  H287  1  0.51902043  0.14011196  0.83526799  1
  H+  H288  1  0.38458567  0.29818907  0.22666675  1
  H+  H289  1  0.58781512  0.41429575  0.77677942  1
  H+  H290  1  0.93037383  0.84454750  0.27139680  1
  H+  H291  1  0.07853818  0.90865797  0.73366963  1
  H+  H292  1  0.42828332  0.32651508  0.57292980  1
  H+  H293  1  0.91512614  0.58487670  0.93708099  1
  H+  H294  1  1.00812878  0.12293279  0.82175587  1
  H+  H295  1  0.66111861  0.11599730  0.50633460  1
  H+  H296  1  0.59437874  0.70511055  0.43866674  1
  H+  H297  1  0.42922483  0.60147296  0.91441905  1
  H+  H298  1  0.15112681  0.82581738  0.25840588  1
  H+  H299  1  0.91231490  0.83366767  0.93601297  1
  H+  H300  1  0.09078203  0.17621475  0.73322049  1
  H+  H301  1  0.63654108  0.63711161  0.17752634  1
  H+  H302  1  0.10951755  0.97043203  0.82713017  1
  H+  H303  1  0.42847374  0.58903937  0.55788485  1
  H+  H304  1  0.88958693  0.11181338  1.00788523  1
  H+  H305  1  0.17845981  0.34034464  0.60346465  1
  H+  H306  1  0.21807120  0.11131341  0.32052632  1
  H+  H307  1  0.40880268  0.08176651  0.90016166  1
  H+  H308  1  0.12456496  0.50851091  0.16844903  1
  H+  H309  1  0.73013568  0.37071910  0.23447792  1
  H+  H310  1  0.91949302  0.83329947  0.59899796  1
  H+  H311  1  0.71657399  0.40418028  0.23126449  1
  H+  H312  1  0.62014305  0.77355911  0.19239206  1
  H+  H313  1  0.40680696  0.81723400  0.26641181  1
  H+  H314  1  0.36790074  0.21598651  0.78594395  1
  H+  H315  1  0.29827298  0.47898641  0.78516773  1
  H+  H316  1  0.56430026  0.91529572  0.41534212  1
  H+  H317  1  0.84108827  0.91347424  0.43955517  1
  H+  H318  1  0.85307657  0.21525634  0.65904859  1
  H+  H319  1  0.31859053  0.12974956  0.72211974  1
  H+  H320  1  0.35394354  0.21612814  0.16027579  1
  H+  H321  1  0.88602813  0.77126930  0.84316984  1
  H+  H322  1  0.25798601  0.38575032  0.32965574  1
  H+  H323  1  0.57755892  0.17507269  0.77611979  1
  H+  H324  1  0.00040134  0.56661189  0.69541363  1
  H+  H325  1  0.89251673  0.77814261  0.50902491  1
  H+  H326  1  0.12511567  0.09767425  0.22751257  1
  H+  H327  1  0.25701391  0.88183082  -0.00081281  1
  H+  H328  1  0.07967896  0.39849307  0.10394113  1
  H+  H329  1  0.41010236  0.80417390  0.56925699  1
  H+  H330  1  0.91657139  0.34116605  0.90987573  1
  H+  H331  1  0.59711109  0.90564130  0.73760997  1
  H+  H332  1  0.28973826  0.38142752  0.66697806  1
  H+  H333  1  0.06354529  0.63967614  0.73969537  1
  H+  H334  1  0.16018604  0.82560501  0.56244568  1
  H+  H335  1  0.83040848  0.90824457  0.11099302  1
  H+  H336  1  0.55924959  0.39342586  0.08908979  1
  H+  H337  1  0.83502268  0.67029560  0.06691466  1
  H+  H338  1  0.14221130  0.55968399  0.91412444  1
  H+  H339  1  0.11274048  0.30320979  0.91361563  1
  H+  H340  1  0.86886948  0.48124242  0.49723250  1
  H+  H341  1  0.83950973  0.67165217  0.43910327  1
  H+  H342  1  0.63397434  0.45282969  0.43958939  1
  H+  H343  1  0.91236622  0.07880682  0.59001095  1
  H+  H344  1  0.67772692  0.33374896  0.56170568  1
  H+  H345  1  0.07532526  0.40950715  0.77669509  1
  H+  H346  1  0.22557410  0.60987975  0.65403791  1
  H+  H347  1  0.07511672  0.90298417  0.08006044  1
  H+  H348  1  0.67485609  0.61511747  0.27714380  1
  H+  H349  1  0.40403167  0.07478326  0.29391707  1
  H+  H350  1  0.87413132  0.11195698  0.65196642  1
  H+  H351  1  0.59455636  0.16674145  0.43597644  1
  H+  H352  1  0.46778525  0.85920359  0.48096024  1
  H+  H353  1  0.85132955  0.17739800  0.42269388  1
  H+  H354  1  0.91845358  0.33510048  0.23478967  1
  H+  H355  1  0.07057494  0.66403967  0.10372074  1
  H+  H356  1  0.44080114  0.31762233  0.92783673  1
  H+  H357  1  0.17904090  0.59206732  0.54794019  1
  H+  H358  1  0.58443713  0.66972138  0.77426223  1
  H+  H359  1  0.12489863  0.38901623  0.68490706  1
  H+  H360  1  0.32049372  0.41920145  0.40117183  1
  H+  H361  1  0.67702090  0.84021788  0.26650215  1
  H+  H362  1  0.83093020  0.91110828  0.72661409  1
  H+  H363  1  0.66629325  0.08347761  0.93343179  1
  H+  H364  1  0.84134696  0.42165567  0.40718796  1
  H+  H365  1  0.08871758  0.91505983  0.39615880  1
  H+  H366  1  0.31977084  0.16611493  0.40270942  1
  H+  H367  1  0.41756542  0.07238437  0.20569974  1
  H+  H368  1  0.08419522  0.67451701  0.39327432  1
  H+  H369  1  1.00278439  0.96638546  0.20419913  1
  H+  H370  1  0.68332680  0.06337375  0.58800705  1
  H+  H371  1  0.16941577  0.33648858  0.26199418  1
  H+  H372  1  0.31900347  0.15164283  0.09149679  1
  H+  H373  1  0.87344635  0.44455055  0.74327238  1
  H+  H374  1  0.88393660  0.32520194  0.59274878  1
  H+  H375  1  0.15131612  0.27893788  0.66253144  1
  H+  H376  1  0.75444115  0.32433226  0.63465624  1
  H+  H377  1  0.31450611  0.89664826  0.09338327  1
  H+  H378  1  0.67809185  0.59169858  0.93619550  1
  H+  H379  1  0.65738571  0.07169891  0.22742774  1
  H+  H380  1  0.09151566  0.42066630  0.42956546  1
  H+  H381  1  0.38454124  0.32278163  0.57255938  1
  H+  H382  1  0.86405429  0.63387448  0.34268186  1
  H+  H383  1  0.61109545  0.91189782  0.05675075  1
  O2-  O384  1  0.08324278  0.14705868  0.16467194  1
  O2-  O385  1  0.09293216  0.17476644  0.47833259  1
  O2-  O386  1  0.07186563  0.16260600  0.81084813  1
  O2-  O387  1  0.08388506  0.39942122  0.14935179  1
  O2-  O388  1  0.08941856  0.41796629  0.47493101  1
  O2-  O389  1  0.06489962  0.40783828  0.82230246  1
  O2-  O390  1  0.07092931  0.66148739  0.14931664  1
  O2-  O391  1  0.08292925  0.66823466  0.46953122  1
  O2-  O392  1  0.07734300  0.65701407  0.81759899  1
  O2-  O393  1  0.08063328  0.90052464  0.13056600  1
  O2-  O394  1  0.08132086  0.91218306  0.47367883  1
  O2-  O395  1  0.07861265  0.91011067  0.81114636  1
  O2-  O396  1  0.32375843  0.14838874  0.13758394  1
  O2-  O397  1  0.33447308  0.19127422  0.49006737  1
  O2-  O398  1  0.33100052  0.15933477  0.80452183  1
  O2-  O399  1  0.35591138  0.43171653  0.14188723  1
  O2-  O400  1  0.32802125  0.42649219  0.45667791  1
  O2-  O401  1  0.35834331  0.50552202  0.77333165  1
  O2-  O402  1  0.34096792  0.69381165  0.09372691  1
  O2-  O403  1  0.30977645  0.67509696  0.43840854  1
  O2-  O404  1  0.31438225  0.66469968  0.83372114  1
  O2-  O405  1  0.31771283  0.89814134  0.13886836  1
  O2-  O406  1  0.32412879  0.89758693  0.48013737  1
  O2-  O407  1  0.33180824  0.91416034  0.81888069  1
  O2-  O408  1  0.57479561  0.14617566  0.13348620  1
  O2-  O409  1  0.59998770  0.16804843  0.48115268  1
  O2-  O410  1  0.58011733  0.17178540  0.82105856  1
  O2-  O411  1  0.54503144  0.38082475  0.13409255  1
  O2-  O412  1  0.60292093  0.42889199  0.47738981  1
  O2-  O413  1  0.59418994  0.42009539  0.82186981  1
  O2-  O414  1  0.55611560  0.60761431  0.13122983  1
  O2-  O415  1  0.59451848  0.71442560  0.48289886  1
  O2-  O416  1  0.59023730  0.67599239  0.81939531  1
  O2-  O417  1  0.59568797  0.91565058  0.14365241  1
  O2-  O418  1  0.56068403  0.93161919  0.45783135  1
  O2-  O419  1  0.58342793  0.91421919  0.81565012  1
  O2-  O420  1  0.83285091  0.16418820  0.14466374  1
  O2-  O421  1  0.85331322  0.17634069  0.46721514  1
  O2-  O422  1  0.82870329  0.15730607  0.82627964  1
  O2-  O423  1  0.84199102  0.41271301  0.13906301  1
  O2-  O424  1  0.83972976  0.42143376  0.48082242  1
  O2-  O425  1  0.84099242  0.42068187  0.81921976  1
  O2-  O426  1  0.83571302  0.67560950  0.15255746  1
  O2-  O427  1  0.84246980  0.67393177  0.48435694  1
  O2-  O428  1  0.83638834  0.66594066  0.81611831  1
  O2-  O429  1  0.83276329  0.91241787  0.15691650  1
  O2-  O430  1  0.84613706  0.91930689  0.48568346  1
  O2-  O431  1  0.82618972  0.90154202  0.80242321  1
  O2-  O432  1  0.09640310  0.07705919  0.18743398  1
  O2-  O433  1  0.15422055  0.06864465  0.51928740  1
  O2-  O434  1  0.15865605  0.07449949  0.85382364  1
  O2-  O435  1  0.17982465  0.32965436  0.18805225  1
  O2-  O436  1  0.18140862  0.34383373  0.51424125  1
  O2-  O437  1  0.07471448  0.28986053  0.87786617  1
  O2-  O438  1  0.14989169  0.57178741  0.17330283  1
  O2-  O439  1  0.16703247  0.58630491  0.50375419  1
  O2-  O440  1  0.14973646  0.56536973  0.87014299  1
  O2-  O441  1  0.15648319  0.82468007  0.18417987  1
  O2-  O442  1  0.16159015  0.82815520  0.51733021  1
  O2-  O443  1  0.16105827  0.82462862  0.85188161  1
  O2-  O444  1  0.41450725  0.07202572  0.16153826  1
  O2-  O445  1  0.43080808  0.06742757  0.51828663  1
  O2-  O446  1  0.41195728  0.08255983  0.85454015  1
  O2-  O447  1  0.38610938  0.29063747  0.18145680  1
  O2-  O448  1  0.43674637  0.37077227  0.44796209  1
  O2-  O449  1  0.46330713  0.30098602  0.89292143  1
  O2-  O450  1  0.40238324  0.51310247  0.17072778  1
  O2-  O451  1  0.42570699  0.60653104  0.51557864  1
  O2-  O452  1  0.43351901  0.60972952  0.86812431  1
  O2-  O453  1  0.41921540  0.82684850  0.17921343  1
  O2-  O454  1  0.40766006  0.81836304  0.49740192  1
  O2-  O455  1  0.41788931  0.83619591  0.86080723  1
  O2-  O456  1  0.66289130  0.07321663  0.18321854  1
  O2-  O457  1  0.69554007  0.09149562  0.52238955  1
  O2-  O458  1  0.65716139  0.07947033  0.85806074  1
  O2-  O459  1  0.67095299  0.32308989  0.12781426  1
  O2-  O460  1  0.67179583  0.33528686  0.51633573  1
  O2-  O461  1  0.67824849  0.33820947  0.85729888  1
  O2-  O462  1  0.68948067  0.66290921  0.20493568  1
  O2-  O463  1  0.68350459  0.58575604  0.54346159  1
  O2-  O464  1  0.67350231  0.59004691  0.85539168  1
  O2-  O465  1  0.66743474  0.83261084  0.19109559  1
  O2-  O466  1  0.66855232  0.88336807  0.50851315  1
  O2-  O467  1  0.66789028  0.83606019  0.86221705  1
  O2-  O468  1  0.91595033  0.08100625  0.18473274  1
  O2-  O469  1  0.92803227  0.09273416  0.52025136  1
  O2-  O470  1  0.91506439  0.07134876  0.84516505  1
  O2-  O471  1  0.91653550  0.32766079  0.18998073  1
  O2-  O472  1  0.92136214  0.33492119  0.51558742  1
  O2-  O473  1  0.91445399  0.34251805  0.86148847  1
  O2-  O474  1  0.90724676  0.57426700  0.19107377  1
  O2-  O475  1  0.92674967  0.58748096  0.52024396  1
  O2-  O476  1  0.91268315  0.58088617  0.85922484  1
  O2-  O477  1  0.96363364  0.90379682  0.19852260  1
  O2-  O478  1  0.92546658  0.83877362  0.52418426  1
  O2-  O479  1  0.91383821  0.83198408  0.85774461  1
  O2-  O480  1  0.15778820  0.08385891  0.30633418  1
  O2-  O481  1  0.15922522  0.06935506  0.64474124  1
  O2-  O482  1  0.15086304  0.06838740  0.97966060  1
  O2-  O483  1  0.16748849  0.33857294  0.30792777  1
  O2-  O484  1  0.18372652  0.34130113  0.64815192  1
  O2-  O485  1  0.16317081  0.32429692  0.98947785  1
  O2-  O486  1  0.17274414  0.59247896  0.30481151  1
  O2-  O487  1  0.16667630  0.57949226  0.63715415  1
  O2-  O488  1  0.17171005  0.58628254  1.03717603  1
  O2-  O489  1  0.14833596  0.82450255  0.30469396  1
  O2-  O490  1  0.15403174  0.81995046  0.64475226  1
  O2-  O491  1  0.15476210  0.82689589  0.97520830  1
  O2-  O492  1  0.41000867  0.07621462  0.33791736  1
  O2-  O493  1  0.42964624  0.08247101  0.64054498  1
  O2-  O494  1  0.40744330  0.08111329  0.97816651  1
  O2-  O495  1  0.38771611  0.31826615  0.30319823  1
  O2-  O496  1  0.41560015  0.30520016  0.70841696  1
  O2-  O497  1  0.40453628  0.33064869  1.00756639  1
  O2-  O498  1  0.41823920  0.60180816  0.32817386  1
  O2-  O499  1  0.43397364  0.57602042  0.63682318  1
  O2-  O500  1  0.42244421  0.59269950  0.98525774  1
  O2-  O501  1  0.41044586  0.82298950  0.31124804  1
  O2-  O502  1  0.41248572  0.80110481  0.61515399  1
  O2-  O503  1  0.42256006  0.84467339  0.98919296  1
  O2-  O504  1  0.66454415  0.08079477  0.33577630  1
  O2-  O505  1  0.67127500  0.05070366  0.63430679  1
  O2-  O506  1  0.66907169  0.08665864  0.97917033  1
  O2-  O507  1  0.65376307  0.33728623  0.34068945  1
  O2-  O508  1  0.70287148  0.33116579  0.63596745  1
  O2-  O509  1  0.66267203  0.32902688  0.98050687  1
  O2-  O510  1  0.67244811  0.59853548  0.32077963  1
  O2-  O511  1  0.67160986  0.57872956  0.66013539  1
  O2-  O512  1  0.68171544  0.59126242  0.98134988  1
  O2-  O513  1  0.67629034  0.83972475  0.31259823  1
  O2-  O514  1  0.66559981  0.81427240  0.65616648  1
  O2-  O515  1  0.67699092  0.82426830  0.92758692  1
  O2-  O516  1  0.92284877  0.09626449  0.30802832  1
  O2-  O517  1  0.90288345  0.07417861  0.63640060  1
  O2-  O518  1  0.92140923  0.08032946  1.00767788  1
  O2-  O519  1  0.92725692  0.34661723  0.31704045  1
  O2-  O520  1  0.85399905  0.31262185  0.63276114  1
  O2-  O521  1  0.91764367  0.33806843  0.97580709  1
  O2-  O522  1  0.91652038  0.58086028  0.31463622  1
  O2-  O523  1  0.89048163  0.63127289  0.65829330  1
  O2-  O524  1  0.91686223  0.58347733  0.98259143  1
  O2-  O525  1  0.92748649  0.83300304  0.31557761  1
  O2-  O526  1  0.91542371  0.83068623  0.64507745  1
  O2-  O527  1  0.91443280  0.83394009  0.98167285  1
  O2-  O528  1  0.08498884  0.15679614  0.03318929  1
  O2-  O529  1  0.08613902  0.17406060  0.35481743  1
  O2-  O530  1  0.10038396  0.18317059  0.68830509  1
  O2-  O531  1  0.08098761  0.40998471  0.02629187  1
  O2-  O532  1  0.09739656  0.42963028  0.34880098  1
  O2-  O533  1  0.09456905  0.41718054  0.70294828  1
  O2-  O534  1  0.07867831  0.66923298  0.02614230  1
  O2-  O535  1  0.08180090  0.67581607  0.34736617  1
  O2-  O536  1  0.04886293  0.62679656  0.69567677  1
  O2-  O537  1  0.07167411  0.90947032  0.02056895  1
  O2-  O538  1  0.08878798  0.91543604  0.35037979  1
  O2-  O539  1  0.07912379  0.90639232  0.68796416  1
  O2-  O540  1  0.31831851  0.15484861  0.01850583  1
  O2-  O541  1  0.32354906  0.16101998  0.35853324  1
  O2-  O542  1  0.32956391  0.14355480  0.67820046  1
  O2-  O543  1  0.33050935  0.42077424  0.02030869  1
  O2-  O544  1  0.32056101  0.41501888  0.34676365  1
  O2-  O545  1  0.35211910  0.40892077  0.67872713  1
  O2-  O546  1  0.34705151  0.69029256  0.03314789  1
  O2-  O547  1  0.31824750  0.66973677  0.37212720  1
  O2-  O548  1  0.34198786  0.65570714  0.67111309  1
  O2-  O549  1  0.31766884  0.91298338  0.01496199  1
  O2-  O550  1  0.34614782  0.92026363  0.35903557  1
  O2-  O551  1  0.30319534  0.93572835  0.69855963  1
  O2-  O552  1  0.57498033  0.15708074  0.01372277  1
  O2-  O553  1  0.57941456  0.16948242  0.35854320  1
  O2-  O554  1  0.58458381  0.17998642  0.69590292  1
  O2-  O555  1  0.58738708  0.41637359  0.01850483  1
  O2-  O556  1  0.56330463  0.41657365  0.31626551  1
  O2-  O557  1  0.59504207  0.41379927  0.69668018  1
  O2-  O558  1  0.65721381  0.79381517  0.06885739  1
  O2-  O559  1  0.58448440  0.68270144  0.35644626  1
  O2-  O560  1  0.58595437  0.65934333  0.69486903  1
  O2-  O561  1  0.61313968  0.92008492  0.01191799  1
  O2-  O562  1  0.57652850  0.89945146  0.33819535  1
  O2-  O563  1  0.59978936  0.89694352  0.69303660  1
  O2-  O564  1  0.83619804  0.17882302  0.01887222  1
  O2-  O565  1  0.83844206  0.16690073  0.33335417  1
  O2-  O566  1  0.83491940  0.15588540  0.67266059  1
  O2-  O567  1  0.83429437  0.41548476  0.01613429  1
  O2-  O568  1  0.83668756  0.41766883  0.36120865  1
  O2-  O569  1  0.89632338  0.46302315  0.70116161  1
  O2-  O570  1  0.83853986  0.67028384  0.02207950  1
  O2-  O571  1  0.83946812  0.66932121  0.35797842  1
  O2-  O572  1  0.84962056  0.67398269  0.69001269  1
  O2-  O573  1  0.82166666  0.90282715  0.03625440  1
  O2-  O574  1  0.83432988  0.90481389  0.36772478  1
  O2-  O575  1  0.82999111  0.91294779  0.68071949  1
