# generated using pymatgen
data_H2O
_symmetry_space_group_name_H-M   'P 1'
_cell_length_a   17.99894191
_cell_length_b   17.99737822
_cell_length_c   22.00484575
_cell_angle_alpha   90.00046692
_cell_angle_beta   90.00363021
_cell_angle_gamma   120.00808541
_symmetry_Int_Tables_number   1
_chemical_formula_structural   H2O
_chemical_formula_sum   'H384 O192'
_cell_volume   6172.62350848
_cell_formula_units_Z   192
loop_
 _symmetry_equiv_pos_site_id
 _symmetry_equiv_pos_as_xyz
  1  'x, y, z'
loop_
 _atom_type_symbol
 _atom_type_oxidation_number
  H+  1.0
  O2-  -2.0
loop_
 _atom_site_type_symbol
 _atom_site_label
 _atom_site_symmetry_multiplicity
 _atom_site_fract_x
 _atom_site_fract_y
 _atom_site_fract_z
 _atom_site_occupancy
  H+  H0  1  0.64432874  0.53865460  0.32303132  1
  H+  H1  1  0.90555983  0.29977898  0.65547237  1
  H+  H2  1  0.63476737  0.79554154  0.18042392  1
  H+  H3  1  0.12716169  0.35478754  0.31324911  1
  H+  H4  1  0.13621864  0.75776359  0.50180131  1
  H+  H5  1  0.72311355  0.14051734  0.25920116  1
  H+  H6  1  0.86356071  0.47177840  1.00152548  1
  H+  H7  1  0.52940364  0.10990366  0.16521881  1
  H+  H8  1  0.33203477  0.61398261  0.49140125  1
  H+  H9  1  0.86315725  0.94363478  -0.00119637  1
  H+  H10  1  0.64699157  0.62595608  0.50824076  1
  H+  H11  1  0.01681249  0.63345178  0.67917343  1
  H+  H12  1  0.88014442  0.77574954  0.17092421  1
  H+  H13  1  0.12384218  0.98861648  0.82626229  1
  H+  H14  1  0.62862122  0.86466298  0.66695521  1
  H+  H15  1  0.24443663  0.12379678  0.49649692  1
  H+  H16  1  0.86026877  0.89375163  0.15490275  1
  H+  H17  1  0.09683631  0.46550715  0.54183637  1
  H+  H18  1  0.58430175  0.28147809  0.62906175  1
  H+  H19  1  0.33118588  0.15947236  0.72760427  1
  H+  H20  1  0.63417961  0.87943493  0.32778084  1
  H+  H21  1  0.62739824  0.60384948  0.98052375  1
  H+  H22  1  0.35351225  0.83995470  0.49876810  1
  H+  H23  1  0.88625460  0.52054843  0.50393327  1
  H+  H24  1  0.54392007  0.40703908  0.79644170  1
  H+  H25  1  0.85142105  -0.02081137  0.15846023  1
  H+  H26  1  0.21626026  0.61748360  0.15788453  1
  H+  H27  1  0.46017960  0.85162363  0.66684955  1
  H+  H28  1  0.28310366  0.63258609  0.82127885  1
  H+  H29  1  0.38078823  0.14088465  0.48338964  1
  H+  H30  1  0.40348852  0.31880106  0.90565931  1
  H+  H31  1  0.10972499  0.97819904  0.15672672  1
  H+  H32  1  0.35671170  0.88789553  0.30272038  1
  H+  H33  1  0.97425581  0.12027962  0.83401036  1
  H+  H34  1  0.44857671  0.60707704  0.50310854  1
  H+  H35  1  0.36335437  0.25708896  0.65384057  1
  H+  H36  1  0.44877535  0.34327410  0.64702316  1
  H+  H37  1  0.62264777  0.21672226  0.67355839  1
  H+  H38  1  0.38823326  0.69011483  0.16837788  1
  H+  H39  1  0.13522484  0.27708057  0.99020106  1
  H+  H40  1  0.27423648  0.88576499  0.15700762  1
  H+  H41  1  0.62008686  0.73860263  0.51257280  1
  H+  H42  1  0.76877924  0.88905234  0.67904479  1
  H+  H43  1  0.35475193  -0.02774189  0.66966020  1
  H+  H44  1  0.27222909  0.12889769  0.66742562  1
  H+  H45  1  0.16751028  0.33233901  0.22627963  1
  H+  H46  1  0.10423559  0.72394981  0.67809512  1
  H+  H47  1  0.56162007  0.27125087  0.34577352  1
  H+  H48  1  0.05976771  0.40925391  0.36267953  1
  H+  H49  1  0.86621139  0.11817182  0.16756918  1
  H+  H50  1  0.21849796  0.18292397  0.87548312  1
  H+  H51  1  0.57366029  0.95761211  0.70515191  1
  H+  H52  1  0.06024051  0.89361191  0.48782438  1
  H+  H53  1  0.76694854  0.62767474  0.47974212  1
  H+  H54  1  0.12899990  0.86004194  0.16891173  1
  H+  H55  1  0.75051002  0.63173793  0.65114215  1
  H+  H56  1  0.02466008  0.38800171  0.15399586  1
  H+  H57  1  0.47272170  0.61895346  0.98653641  1
  H+  H58  1  0.75158496  0.15124317  0.32765783  1
  H+  H59  1  0.39602648  -0.01465607  1.01148748  1
  H+  H60  1  0.13362921  0.86796368  0.85202734  1
  H+  H61  1  1.01798015  0.88950612  0.15737481  1
  H+  H62  1  0.09728768  0.63329527  0.15535175  1
  H+  H63  1  0.64599379  0.38218641  0.66263167  1
  H+  H64  1  0.02412523  0.15220968  0.00358893  1
  H+  H65  1  0.88596957  0.03192648  0.83915712  1
  H+  H66  1  0.63401794  0.20275595  0.49646346  1
  H+  H67  1  0.15020413  1.02748883  0.31921632  1
  H+  H68  1  0.27249167  0.12583498  0.82403399  1
  H+  H69  1  0.51424730  0.35594177  0.15082282  1
  H+  H70  1  0.64020877  0.03082992  0.85771835  1
  H+  H71  1  0.16262910  0.33312178  0.92880858  1
  H+  H72  1  0.13331517  0.52287291  0.15951071  1
  H+  H73  1  0.62138191  0.13822141  0.83558998  1
  H+  H74  1  0.80722389  0.17025571  0.66773729  1
  H+  H75  1  1.00659886  0.63082643  0.15814929  1
  H+  H76  1  0.21812703  0.85985688  0.66125345  1
  H+  H77  1  0.63712755  0.76200699  0.82339382  1
  H+  H78  1  0.73686316  0.88048734  0.32335370  1
  H+  H79  1  0.98903105  0.37533688  0.98819671  1
  H+  H80  1  0.64125237  0.38232481  -0.01615817  1
  H+  H81  1  1.02925982  0.39303200  0.82520684  1
  H+  H82  1  0.40877631  0.11936732  0.99154316  1
  H+  H83  1  0.94529563  0.59878965  0.81352558  1
  H+  H84  1  0.86731208  0.39086782  0.66555121  1
  H+  H85  1  0.37421198  0.22405296  0.46666893  1
  H+  H86  1  0.96487947  0.35127181  0.51497949  1
  H+  H87  1  0.38714997  0.77226806  0.84101569  1
  H+  H88  1  0.66121029  0.60136989  0.24039114  1
  H+  H89  1  0.64690443  0.86635381  0.50664473  1
  H+  H90  1  0.82864114  0.40866318  0.06026702  1
  H+  H91  1  0.14009559  0.36482619  0.83336459  1
  H+  H92  1  1.04578823  0.88721437  1.00722425  1
  H+  H93  1  0.60093934  0.73565526  0.67293897  1
  H+  H94  1  0.22841785  0.81313425  0.53027736  1
  H+  H95  1  0.36221764  0.97240128  0.16369233  1
  H+  H96  1  0.13906778  0.36495817  0.16736475  1
  H+  H97  1  0.88138464  0.52088803  0.66084485  1
  H+  H98  1  0.29160721  0.57711192  0.35213405  1
  H+  H99  1  0.12135413  0.75295960  0.99977372  1
  H+  H100  1  0.87298737  0.60109148  0.98783779  1
  H+  H101  1  0.28117203  0.37952772  0.15437227  1
  H+  H102  1  0.02834568  0.89915209  0.33264402  1
  H+  H103  1  0.26961506  0.39216432  0.99952708  1
  H+  H104  1  0.61320678  0.95870970  0.48988668  1
  H+  H105  1  0.36177785  0.38876394  0.67276934  1
  H+  H106  1  0.90181526  0.32848678  0.24642675  1
  H+  H107  1  0.86796168  0.97566960  0.33837813  1
  H+  H108  1  0.85278798  0.46858490  0.82059377  1
  H+  H109  1  0.87862341  0.13346856  0.34678392  1
  H+  H110  1  0.59600983  0.88307004  0.13686186  1
  H+  H111  1  0.19991006  0.13379652  0.31830847  1
  H+  H112  1  0.59480347  0.90124067  0.87979336  1
  H+  H113  1  0.15916926  1.03488555  0.49726286  1
  H+  H114  1  0.53356799  0.40926801  0.32906000  1
  H+  H115  1  0.13289698  0.27027286  0.32453141  1
  H+  H116  1  0.39166035  0.03470814  0.49470379  1
  H+  H117  1  0.11893557  0.60212204  0.50900926  1
  H+  H118  1  0.58043480  0.42138421  0.66623394  1
  H+  H119  1  0.77481783  0.12038935  0.49881869  1
  H+  H120  1  0.11208169  0.12567825  0.66655598  1
  H+  H121  1  0.65222208  1.07478529  0.18036842  1
  H+  H122  1  0.35953070  0.21158792  0.82454383  1
  H+  H123  1  0.89066389  0.10834586  0.51117636  1
  H+  H124  1  1.01211003  0.62439756  1.00331863  1
  H+  H125  1  0.86738320  0.73647932  0.82413123  1
  H+  H126  1  0.36776944  1.01070287  0.32215013  1
  H+  H127  1  0.71536751  0.86522011  -0.01716466  1
  H+  H128  1  0.47738730  0.18354531  0.34765861  1
  H+  H129  1  0.77773302  0.14682451  0.83247407  1
  H+  H130  1  0.14123646  0.11768802  0.16606165  1
  H+  H131  1  0.37995249  0.79624519  0.21923852  1
  H+  H132  1  0.46862729  0.32008978  0.85839827  1
  H+  H133  1  0.62264624  0.18928665  0.16866575  1
  H+  H134  1  0.11677380  0.23355355  0.15878329  1
  H+  H135  1  0.43411523  0.29320319  0.32738542  1
  H+  H136  1  0.13706343  0.61124942  -0.00537216  1
  H+  H137  1  0.75952638  0.63653259  0.16723470  1
  H+  H138  1  0.39153708  0.60734114  0.83344846  1
  H+  H139  1  0.69288246  0.05160646  0.66848829  1
  H+  H140  1  0.67951431  0.35502081  0.91702494  1
  H+  H141  1  0.38983031  0.35373498  0.32610407  1
  H+  H142  1  0.03102275  0.89872987  0.68135883  1
  H+  H143  1  0.36990336  0.47212332  0.83108703  1
  H+  H144  1  0.54932251  0.14581763  1.00938270  1
  H+  H145  1  0.88156166  0.07195261  0.99637316  1
  H+  H146  1  0.61262805  0.54436441  0.18202305  1
  H+  H147  1  0.89244653  0.27502821  0.15614318  1
  H+  H148  1  0.88939812  0.36803750  0.98922628  1
  H+  H149  1  0.16014966  0.61806107  0.83884259  1
  H+  H150  1  0.92620851  0.78378099  0.54623991  1
  H+  H151  1  0.78880070  0.14969061  0.05710879  1
  H+  H152  1  0.36813315  0.51203559  0.50585619  1
  H+  H153  1  0.36280727  0.21872378  -0.00118101  1
  H+  H154  1  0.35881777  0.48148493  1.00038471  1
  H+  H155  1  0.74102354  0.38223459  -0.01470239  1
  H+  H156  1  0.87474823  0.64486058  0.67592957  1
  H+  H157  1  0.38936373  0.52893214  0.66566465  1
  H+  H158  1  0.10837781  0.14287881  0.82150171  1
  H+  H159  1  -0.01260877  0.87591904  0.82712479  1
  H+  H160  1  0.85386172  0.46866482  0.15238524  1
  H+  H161  1  0.67602981  0.08936391  0.91701712  1
  H+  H162  1  0.37202915  0.97219836  0.82623018  1
  H+  H163  1  0.86625099  0.88635855  0.49426324  1
  H+  H164  1  0.39155759  0.10481057  0.83639762  1
  H+  H165  1  1.01505897  0.63378802  0.49028762  1
  H+  H166  1  0.53437147  0.85859530  0.49276623  1
  H+  H167  1  0.67695051  0.53637587  0.64827712  1
  H+  H168  1  0.63930643  0.09019316  0.50379671  1
  H+  H169  1  0.26708834  0.88351830  0.31642317  1
  H+  H170  1  0.63133274  0.31134231  0.50376402  1
  H+  H171  1  0.36103498  0.46679772  0.33935869  1
  H+  H172  1  0.35043101  0.38095759  0.48906474  1
  H+  H173  1  0.35377042  0.63765437  0.72371316  1
  H+  H174  1  0.48298612  0.10985424  0.83565956  1
  H+  H175  1  0.15429061  0.79013521  0.84669100  1
  H+  H176  1  0.63654599  0.85052629  0.82419869  1
  H+  H177  1  0.87683496  0.26278499  0.50259890  1
  H+  H178  1  0.90082741  0.83260598  0.98789315  1
  H+  H179  1  0.92253615  0.10560218  0.93125610  1
  H+  H180  1  0.33686212  0.40963770  0.09449467  1
  H+  H181  1  0.88695267  0.87244454  0.67969231  1
  H+  H182  1  0.63124524  0.31731677  0.16522847  1
  H+  H183  1  0.77787161  0.88827654  0.82387937  1
  H+  H184  1  0.22684159  0.36016746  0.83518101  1
  H+  H185  1  0.86656778  0.38820140  0.48354685  1
  H+  H186  1  0.82825906  0.26491311  0.29132417  1
  H+  H187  1  0.27084410  0.37980370  0.33470230  1
  H+  H188  1  0.40334055  0.87216559  1.00351081  1
  H+  H189  1  0.88200328  0.60662210  0.50225079  1
  H+  H190  1  0.87169655  0.89783392  0.82373950  1
  H+  H191  1  0.22954819  0.61804860  -0.00179678  1
  H+  H192  1  0.89583400  0.77852156  0.32131238  1
  H+  H193  1  0.12925572  0.02384082  0.98906224  1
  H+  H194  1  0.60373319  0.65628502  0.17532430  1
  H+  H195  1  0.73698647  0.86867040  0.51270410  1
  H+  H196  1  0.45840043  0.62769406  0.18676207  1
  H+  H197  1  0.38402835  0.86121198  0.83942176  1
  H+  H198  1  0.14195993  1.02373775  0.65283770  1
  H+  H199  1  0.36750083  0.22296003  0.15248244  1
  H+  H200  1  0.11373180  0.51754409  0.30245114  1
  H+  H201  1  0.37771409  0.36678781  -0.00958338  1
  H+  H202  1  0.77970426  0.38793169  0.48760814  1
  H+  H203  1  0.27658043  0.08412965  0.33120241  1
  H+  H204  1  0.11408979  0.47806539  0.00030607  1
  H+  H205  1  0.38414558  0.73928157  0.31795507  1
  H+  H206  1  0.46683971  0.36757539  0.49754417  1
  H+  H207  1  0.61479782  0.42397793  0.15213169  1
  H+  H208  1  0.13277040  0.61559071  0.66714611  1
  H+  H209  1  0.34869051  0.88125476  0.66849305  1
  H+  H210  1  0.43905811  0.08737288  0.93463173  1
  H+  H211  1  0.10516558  0.09916905  -0.01203139  1
  H+  H212  1  0.61851864  0.73032080  0.98300201  1
  H+  H213  1  0.65423597  0.11517004  0.66195287  1
  H+  H214  1  0.21877472  0.36180727  0.51425960  1
  H+  H215  1  0.12346681  0.14456438  0.49475410  1
  H+  H216  1  0.27207208  0.90229181  0.46507611  1
  H+  H217  1  0.38469231  0.62090956  0.99235197  1
  H+  H218  1  0.39475725  0.88130297  0.50440965  1
  H+  H219  1  0.48257918  0.60182109  0.33547776  1
  H+  H220  1  0.72861672  0.36029690  0.83184732  1
  H+  H221  1  0.60882200  0.49473220  0.48962253  1
  H+  H222  1  0.50162245  0.63898692  0.66970256  1
  H+  H223  1  0.12158953  0.47996425  0.82936772  1
  H+  H224  1  0.64839265  0.38739930  0.31483781  1
  H+  H225  1  0.14130236  0.40644999  0.67675932  1
  H+  H226  1  0.72470034  0.36829762  0.32267154  1
  H+  H227  1  0.03878116  0.39527843  0.59053151  1
  H+  H228  1  0.52314651  0.87537948  0.02836671  1
  H+  H229  1  0.89277198  0.36606814  0.15737694  1
  H+  H230  1  -0.01735594  0.11223643  0.50802638  1
  H+  H231  1  0.72575365  0.87879213  0.16710605  1
  H+  H232  1  0.27851535  0.13476960  0.14893545  1
  H+  H233  1  0.51937604  0.62855980  0.82303642  1
  H+  H234  1  0.10603260  0.63818952  0.33234259  1
  H+  H235  1  0.00129468  0.10909611  0.66196541  1
  H+  H236  1  0.77342256  0.37990491  0.66942801  1
  H+  H237  1  0.61717224  0.22387345  0.82665093  1
  H+  H238  1  0.40336132  0.73891796  0.50894032  1
  H+  H239  1  0.86524823  0.14553840  0.82713929  1
  H+  H240  1  0.13583852  0.86538372  0.31729462  1
  H+  H241  1  0.10883097  0.72829354  0.33548170  1
  H+  H242  1  0.08992903  0.12010781  0.35642323  1
  H+  H243  1  0.60723651  0.40759859  0.48809301  1
  H+  H244  1  0.50871293  0.87882593  0.84577662  1
  H+  H245  1  0.59650002  0.15865773  0.07245987  1
  H+  H246  1  0.20756829  0.60203835  0.50980711  1
  H+  H247  1  0.84312855  0.15855773  0.44384162  1
  H+  H248  1  0.12958323  0.35619022  0.53511583  1
  H+  H249  1  0.74792026  0.60967779  1.00225678  1
  H+  H250  1  0.87112345  0.60203370  0.17400510  1
  H+  H251  1  0.64675347  0.53044832  0.82898102  1
  H+  H252  1  0.02891952  0.14378592  0.15757521  1
  H+  H253  1  0.64173437  0.36499197  0.83020970  1
  H+  H254  1  -0.02205347  0.11287244  0.32118479  1
  H+  H255  1  0.53842318  0.12549777  0.49321030  1
  H+  H256  1  0.56152855  0.65450353  0.54908743  1
  H+  H257  1  0.10913708  0.38554076  -0.00267496  1
  H+  H258  1  0.89012484  0.27629923  0.84031268  1
  H+  H259  1  0.31897365  0.41038601  0.43161120  1
  H+  H260  1  0.85702110  0.38521887  0.32814217  1
  H+  H261  1  0.65243018  0.03163708  1.01519002  1
  H+  H262  1  0.36776051  0.73509145  0.00783717  1
  H+  H263  1  0.97543063  0.61301702  0.32122933  1
  H+  H264  1  0.86753748  0.63736455  0.32411488  1
  H+  H265  1  0.34238644  0.11953753  0.39501175  1
  H+  H266  1  0.88781153  0.22585112  0.35063182  1
  H+  H267  1  0.39301928  0.11185008  0.65827913  1
  H+  H268  1  0.06740022  0.65652313  0.83945849  1
  H+  H269  1  0.08646024  0.17499754  0.06188995  1
  H+  H270  1  0.89008706  1.01549165  0.65979426  1
  H+  H271  1  0.75096636  0.11853345  0.16854059  1
  H+  H272  1  0.14724215  0.89548758  0.48334674  1
  H+  H273  1  0.61663166  0.63764396  0.34854587  1
  H+  H274  1  0.36821436  0.38194334  0.82961019  1
  H+  H275  1  -0.00020243  0.37008096  0.30635053  1
  H+  H276  1  0.39099382  0.35813342  0.16286499  1
  H+  H277  1  0.85311960  0.71496233  0.47058719  1
  H+  H278  1  0.60313517  0.46722417  1.00114587  1
  H+  H279  1  0.73643649  0.62664641  0.31873989  1
  H+  H280  1  0.47919514  0.10586006  0.66037869  1
  H+  H281  1  0.10761808  0.22950129  0.81514986  1
  H+  H282  1  0.13555284  0.85448431  1.00639521  1
  H+  H283  1  0.88645066  0.52196900  0.32227476  1
  H+  H284  1  0.88008912  0.73820410  0.68148234  1
  H+  H285  1  0.83107620  0.75912666  0.55858384  1
  H+  H286  1  0.24047199  0.62030835  0.33111590  1
  H+  H287  1  0.52405527  0.86296883  0.33330240  1
  H+  H288  1  0.92285334  0.34215033  0.92394679  1
  H+  H289  1  0.16076583  0.58778621  0.60595776  1
  H+  H290  1  0.93151521  0.84452375  0.88639208  1
  H+  H291  1  0.34610579  0.42225251  0.73709065  1
  H+  H292  1  0.39142771  0.11361419  0.16916478  1
  H+  H293  1  0.83513649  0.91564584  0.39771245  1
  H+  H294  1  0.23919752  0.38338286  0.67297045  1
  H+  H295  1  0.87142449  0.61436730  0.83401212  1
  H+  H296  1  0.11508163  0.88943945  0.67361871  1
  H+  H297  1  0.18206097  0.58577826  0.90042868  1
  H+  H298  1  0.07822264  0.15671285  0.72632354  1
  H+  H299  1  0.82005038  0.93394772  0.06284747  1
  H+  H300  1  0.46484202  0.36080505  0.99034152  1
  H+  H301  1  0.72920683  0.62362926  0.83607162  1
  H+  H302  1  0.58114480  0.89929486  0.39556173  1
  H+  H303  1  0.62171285  0.43290858  0.75155901  1
  H+  H304  1  0.42763896  0.83625901  0.94364627  1
  H+  H305  1  0.57069071  0.66556717  0.73225719  1
  H+  H306  1  0.08458045  0.41577887  0.09539956  1
  H+  H307  1  0.10075340  0.93102646  0.76675533  1
  H+  H308  1  0.15467156  0.09283855  0.90412972  1
  H+  H309  1  0.82168554  0.69924547  0.02374115  1
  H+  H310  1  0.17884601  0.08646157  0.22030383  1
  H+  H311  1  0.41646036  0.58378532  0.89740864  1
  H+  H312  1  0.65382236  0.12107878  1.01007691  1
  H+  H313  1  0.15302550  0.82134273  0.93779552  1
  H+  H314  1  0.38984396  0.58743327  0.23639990  1
  H+  H315  1  0.58695664  0.43596730  0.39059554  1
  H+  H316  1  0.33615856  0.91215732  0.76781494  1
  H+  H317  1  0.30355715  0.64911532  0.43385542  1
  H+  H318  1  0.40518140  0.58596054  0.60590398  1
  H+  H319  1  0.35638559  0.92317367  0.06946264  1
  H+  H320  1  0.17422944  0.34212847  0.61688119  1
  H+  H321  1  0.15500203  0.58792788  0.25057054  1
  H+  H322  1  0.13462477  0.50450553  0.67512283  1
  H+  H323  1  0.06649609  0.65445481  0.06589059  1
  H+  H324  1  0.90771366  0.57856407  0.92742503  1
  H+  H325  1  0.09390669  0.91398062  0.07166648  1
  H+  H326  1  0.11607798  0.22957480  0.50319099  1
  H+  H327  1  0.77166446  0.37273980  0.15354647  1
  H+  H328  1  0.66431012  0.84099229  0.60612291  1
  H+  H329  1  0.83124178  0.92484153  0.73799205  1
  H+  H330  1  0.42286433  0.33125362  0.22398165  1
  H+  H331  1  0.67930734  0.86273700  0.25920368  1
  H+  H332  1  0.57618715  0.39641327  0.05608780  1
  H+  H333  1  0.15716403  0.82758417  0.25793790  1
  H+  H334  1  0.90164725  0.33861123  0.59128580  1
  H+  H335  1  0.07551726  0.66231120  0.43002996  1
  H+  H336  1  0.10011929  0.43485197  0.73679159  1
  H+  H337  1  0.57657795  0.64984096  0.40971108  1
  H+  H338  1  0.89025060  0.86470860  0.32535921  1
  H+  H339  1  0.34184322  0.15984112  0.05617151  1
  H+  H340  1  0.68477029  0.59178881  0.56115471  1
  H+  H341  1  0.83065282  0.40884882  0.76160421  1
  H+  H342  1  0.06143106  0.43200291  0.43720986  1
  H+  H343  1  0.91423960  0.83765148  0.22855551  1
  H+  H344  1  0.42260570  0.08286741  0.55965827  1
  H+  H345  1  0.08786947  0.40973129  0.43780226  1
  H+  H346  1  0.15623033  0.82496377  0.60337322  1
  H+  H347  1  0.07968654  0.17242719  0.40886895  1
  H+  H348  1  0.43631778  0.78118668  0.13465075  1
  H+  H349  1  0.80038482  0.04432894  0.20738545  1
  H+  H350  1  0.55774476  0.68422871  0.12527963  1
  H+  H351  1  0.60981632  0.62958580  0.81736526  1
  H+  H352  1  0.87219233  0.97790753  0.49418537  1
  H+  H353  1  0.12402806  0.76864675  0.16768281  1
  H+  H354  1  0.65969963  0.57135915  0.92473318  1
  H+  H355  1  0.09825839  0.67200420  0.76984768  1
  H+  H356  1  0.45327890  0.90240301  0.61209723  1
  H+  H357  1  0.56508633  0.89412273  0.75551015  1
  H+  H358  1  0.43847261  0.79136015  0.56921161  1
  H+  H359  1  0.90753609  0.57219801  0.22901789  1
  H+  H360  1  0.83454811  0.67329431  0.76686082  1
  H+  H361  1  0.40905177  0.08787289  0.23394413  1
  H+  H362  1  0.83464154  0.66154830  0.38388284  1
  H+  H363  1  0.39927925  0.32012644  0.55122775  1
  H+  H364  1  0.33322944  0.93723411  0.40875756  1
  H+  H365  1  0.59763274  0.67160959  0.04181736  1
  H+  H366  1  0.92544516  0.07376580  0.59679258  1
  H+  H367  1  0.90733876  0.08160690  0.26553456  1
  H+  H368  1  0.67317374  0.82755317  0.91758314  1
  H+  H369  1  0.17505276  0.08575102  0.59326045  1
  H+  H370  1  0.83586552  0.41751359  0.39133945  1
  H+  H371  1  0.88943803  0.36513734  0.83721434  1
  H+  H372  1  0.67317385  0.31949306  0.56943085  1
  H+  H373  1  0.92819380  0.76578920  0.96827300  1
  H+  H374  1  0.59482472  0.15854918  0.73378536  1
  H+  H375  1  0.67031858  0.31909889  0.23021525  1
  H+  H376  1  0.67223752  0.06507655  0.56377835  1
  H+  H377  1  0.81355647  0.64730656  0.10795799  1
  H+  H378  1  0.92015189  0.84999756  0.62077456  1
  H+  H379  1  0.40555254  0.61757951  0.33202074  1
  H+  H380  1  0.09605665  0.92795186  0.38868195  1
  H+  H381  1  0.34108764  0.68236562  0.06835710  1
  H+  H382  1  0.91346362  0.58111091  0.60195436  1
  H+  H383  1  0.85283396  0.19647523  0.73144880  1
  O2-  O384  1  0.08837000  0.17170548  0.14381192  1
  O2-  O385  1  0.08819840  0.17102237  0.48340588  1
  O2-  O386  1  0.07664012  0.16813564  0.80112200  1
  O2-  O387  1  0.08710995  0.41965545  0.14045593  1
  O2-  O388  1  0.06728463  0.40271012  0.55093495  1
  O2-  O389  1  0.08968094  0.42144264  0.81035790  1
  O2-  O390  1  0.06642853  0.66310832  0.14106745  1
  O2-  O391  1  0.07608776  0.66286804  0.47565792  1
  O2-  O392  1  0.11815807  0.68060211  0.81363598  1
  O2-  O393  1  0.07905798  0.91644598  0.14384744  1
  O2-  O394  1  0.11684215  0.92537289  0.46915071  1
  O2-  O395  1  0.09537583  0.92899291  0.81245150  1
  O2-  O396  1  0.33993361  0.16273605  0.13711205  1
  O2-  O397  1  0.34754269  0.16154531  0.45816679  1
  O2-  O398  1  0.33096902  0.15304229  0.80631429  1
  O2-  O399  1  0.34021459  0.40272619  0.13892740  1
  O2-  O400  1  0.31973313  0.41223211  0.47720819  1
  O2-  O401  1  0.33911346  0.41231862  0.81409374  1
  O2-  O402  1  0.37952636  0.73612000  0.14943286  1
  O2-  O403  1  0.30696467  0.65019742  0.47890819  1
  O2-  O404  1  0.34559341  0.66495819  0.80859533  1
  O2-  O405  1  0.33545838  0.91395887  0.14624038  1
  O2-  O406  1  0.31993937  0.95442345  0.44807261  1
  O2-  O407  1  0.34186295  0.91126751  0.81236823  1
  O2-  O408  1  0.58899792  0.13089280  0.15139395  1
  O2-  O409  1  0.59812286  0.14430955  0.48036426  1
  O2-  O410  1  0.59148166  0.16367240  0.81246523  1
  O2-  O411  1  0.57226137  0.37248958  0.13115765  1
  O2-  O412  1  0.57491683  0.43408772  0.47327034  1
  O2-  O413  1  0.60568754  0.42889987  0.79703384  1
  O2-  O414  1  0.57223050  0.68854191  0.16823045  1
  O2-  O415  1  0.58355568  0.67372297  0.50813500  1
  O2-  O416  1  0.57745613  0.65824967  0.80237477  1
  O2-  O417  1  0.54607135  0.87967713  0.11497154  1
  O2-  O418  1  0.58946128  0.89988582  0.47162632  1
  O2-  O419  1  0.57556962  0.90949339  0.84001724  1
  O2-  O420  1  0.84561638  0.18306398  0.13689559  1
  O2-  O421  1  0.83778013  0.15616983  0.48929613  1
  O2-  O422  1  0.83622817  0.17849645  0.81447550  1
  O2-  O423  1  0.82889545  0.41033507  0.13371242  1
  O2-  O424  1  0.83870545  0.42214232  0.47055922  1
  O2-  O425  1  0.82840756  0.40798361  0.80758219  1
  O2-  O426  1  0.81929031  0.65949452  0.15195653  1
  O2-  O427  1  0.82707513  0.65353080  0.46227348  1
  O2-  O428  1  0.83244348  0.67435772  0.81274189  1
  O2-  O429  1  0.82835591  0.92158911  0.13877929  1
  O2-  O430  1  0.83829127  0.91711244  0.47833669  1
  O2-  O431  1  0.83885421  0.92673398  0.81142745  1
  O2-  O432  1  0.16999198  0.08380264  0.17591442  1
  O2-  O433  1  0.18506321  0.09413706  0.51330032  1
  O2-  O434  1  0.18189503  0.12324265  0.86301342  1
  O2-  O435  1  0.16732422  0.33204259  0.18103708  1
  O2-  O436  1  0.16383816  0.32633710  0.53669079  1
  O2-  O437  1  0.16558755  0.32981153  0.84801442  1
  O2-  O438  1  0.15794049  0.58446059  0.17382271  1
  O2-  O439  1  0.14933611  0.57541014  0.52916059  1
  O2-  O440  1  0.18425193  0.58266938  0.85501082  1
  O2-  O441  1  0.15707620  0.82806612  0.18432982  1
  O2-  O442  1  0.17776414  0.81711818  0.51941669  1
  O2-  O443  1  0.15048964  0.83095010  0.87460268  1
  O2-  O444  1  0.41841440  0.08379614  0.19043213  1
  O2-  O445  1  0.42847432  0.09141271  0.51494047  1
  O2-  O446  1  0.42365288  0.07746919  0.85231380  1
  O2-  O447  1  0.42256694  0.32785603  0.17890580  1
  O2-  O448  1  0.40518647  0.32683494  0.50643460  1
  O2-  O449  1  0.41123742  0.31291025  0.85980324  1
  O2-  O450  1  0.39708069  0.60700235  0.19399969  1
  O2-  O451  1  0.39246572  0.57207089  0.52263249  1
  O2-  O452  1  0.42086799  0.57819055  0.85215409  1
  O2-  O453  1  0.38531280  0.82142519  0.26079578  1
  O2-  O454  1  0.45710116  0.77564291  0.53174158  1
  O2-  O455  1  0.41436130  0.83100864  0.85812597  1
  O2-  O456  1  0.70448274  0.07728015  0.19682967  1
  O2-  O457  1  0.66981716  0.05870393  0.51894095  1
  O2-  O458  1  0.67342041  0.09110128  0.87124378  1
  O2-  O459  1  0.67365986  0.30683657  0.18602871  1
  O2-  O460  1  0.68282276  0.31795458  0.52326240  1
  O2-  O461  1  0.66904261  0.33464147  0.84999542  1
  O2-  O462  1  0.65499639  0.60282634  0.19347227  1
  O2-  O463  1  0.67604331  0.59166444  0.51481602  1
  O2-  O464  1  0.66738095  0.58758541  0.84839064  1
  O2-  O465  1  0.66881050  0.85886120  0.18698373  1
  O2-  O466  1  0.67747198  0.84027509  0.52957890  1
  O2-  O467  1  0.67091564  0.82394186  0.83573468  1
  O2-  O468  1  0.86080583  0.06827623  0.19521189  1
  O2-  O469  1  0.92230888  0.07697542  0.52308627  1
  O2-  O470  1  0.91550806  0.09322282  0.85194305  1
  O2-  O471  1  0.92395995  0.33776430  0.17379589  1
  O2-  O472  1  0.90149876  0.32528969  0.51196226  1
  O2-  O473  1  0.92189516  0.33847755  0.85479932  1
  O2-  O474  1  0.90332907  0.57176742  0.18337314  1
  O2-  O475  1  0.91384079  0.58061827  0.52095532  1
  O2-  O476  1  0.89993529  0.57916884  0.84400139  1
  O2-  O477  1  0.91131021  0.83711248  0.18310825  1
  O2-  O478  1  0.88507940  0.80380671  0.54092136  1
  O2-  O479  1  0.92632013  0.84451081  0.84165520  1
  O2-  O480  1  0.19973791  0.08343519  0.30178726  1
  O2-  O481  1  0.17145411  0.08487569  0.63857845  1
  O2-  O482  1  0.10966488  0.05491471  0.96296930  1
  O2-  O483  1  0.16349156  0.32829314  0.30617101  1
  O2-  O484  1  0.17760838  0.35634861  0.66088132  1
  O2-  O485  1  0.16272045  0.33765788  0.97401775  1
  O2-  O486  1  0.14779796  0.58070139  0.29583934  1
  O2-  O487  1  0.16488671  0.58795487  0.65131133  1
  O2-  O488  1  0.17056961  0.58449818  0.97984961  1
  O2-  O489  1  0.16173078  0.83070940  0.30410293  1
  O2-  O490  1  0.15577414  0.82837755  0.64821388  1
  O2-  O491  1  0.15559646  0.81542407  0.98584271  1
  O2-  O492  1  0.38694343  0.07752880  0.32148427  1
  O2-  O493  1  0.42013012  0.07854969  0.64342358  1
  O2-  O494  1  0.44462986  0.09336412  0.97940319  1
  O2-  O495  1  0.43095220  0.33991304  0.30587235  1
  O2-  O496  1  0.38859204  0.31687286  0.63560563  1
  O2-  O497  1  0.40491013  0.33273757  0.97536652  1
  O2-  O498  1  0.42118007  0.57518746  0.31959904  1
  O2-  O499  1  0.41482440  0.58979037  0.65067246  1
  O2-  O500  1  0.41145144  0.58870037  0.97405578  1
  O2-  O501  1  0.43138510  0.78675331  0.29492446  1
  O2-  O502  1  0.42013228  0.84947799  0.63522778  1
  O2-  O503  1  0.42890331  0.83423088  0.98844889  1
  O2-  O504  1  0.73745909  0.17962850  0.29530966  1
  O2-  O505  1  0.69099344  0.09399253  0.64208528  1
  O2-  O506  1  0.68503341  0.08897849  0.99697775  1
  O2-  O507  1  0.66598932  0.34462175  0.30511453  1
  O2-  O508  1  0.64565769  0.31363961  0.63831971  1
  O2-  O509  1  0.68676860  0.37181078  0.96267145  1
  O2-  O510  1  0.67376307  0.60042461  0.30842883  1
  O2-  O511  1  0.69411660  0.59409861  0.63141823  1
  O2-  O512  1  0.65486956  0.56845031  0.97037140  1
  O2-  O513  1  0.67769222  0.85669100  0.30544812  1
  O2-  O514  1  0.65846011  0.83455796  0.65176403  1
  O2-  O515  1  0.66186468  0.82276513  0.96179659  1
  O2-  O516  1  0.91657444  0.07741220  0.31012266  1
  O2-  O517  1  0.92903409  0.07429976  0.64279051  1
  O2-  O518  1  0.93038030  0.11903994  0.97538698  1
  O2-  O519  1  0.88836333  0.31905013  0.29156344  1
  O2-  O520  1  0.92298482  0.35557748  0.63365636  1
  O2-  O521  1  0.92579122  0.34476850  0.97124804  1
  O2-  O522  1  0.91541392  0.58184958  0.30496060  1
  O2-  O523  1  0.91360771  0.58235328  0.64735234  1
  O2-  O524  1  0.90743152  0.57577680  0.97247094  1
  O2-  O525  1  0.92509080  0.84025937  0.30842951  1
  O2-  O526  1  0.92319314  0.84739023  0.66526894  1
  O2-  O527  1  0.94413992  0.82619953  0.96546416  1
  O2-  O528  1  0.08611878  0.17573073  0.01679379  1
  O2-  O529  1  0.07728370  0.16617972  0.36284506  1
  O2-  O530  1  0.07460361  0.14897108  0.68074645  1
  O2-  O531  1  0.07822172  0.41607116  0.01245003  1
  O2-  O532  1  0.06157346  0.40430577  0.31824468  1
  O2-  O533  1  0.10875731  0.43998326  0.69116973  1
  O2-  O534  1  0.07149657  0.65446823  0.02006310  1
  O2-  O535  1  0.07803702  0.66813716  0.35165244  1
  O2-  O536  1  0.07652445  0.66497198  0.69580419  1
  O2-  O537  1  0.10296764  0.91248500  0.02623966  1
  O2-  O538  1  0.09107950  0.93200647  0.34406929  1
  O2-  O539  1  0.09384244  0.92750301  0.69027460  1
  O2-  O540  1  0.34357141  0.15918991  0.01106496  1
  O2-  O541  1  0.31781187  0.07429560  0.35913178  1
  O2-  O542  1  0.33320539  0.16200781  0.68209260  1
  O2-  O543  1  0.33053661  0.42026645  0.01356253  1
  O2-  O544  1  0.32904343  0.40570771  0.35322097  1
  O2-  O545  1  0.34479140  0.42819163  0.69177286  1
  O2-  O546  1  0.33411969  0.67366212  0.02385293  1
  O2-  O547  1  0.29519519  0.63310452  0.35316971  1
  O2-  O548  1  0.34306188  0.68081260  0.74296920  1
  O2-  O549  1  0.36483790  0.92434657  0.02444235  1
  O2-  O550  1  0.33045809  0.91630463  0.32590517  1
  O2-  O551  1  0.31946174  0.91171577  0.68427036  1
  O2-  O552  1  0.60731975  0.17270480  0.02845352  1
  O2-  O553  1  0.50209880  0.24322102  0.36117612  1
  O2-  O554  1  0.59458972  0.15574599  0.68827221  1
  O2-  O555  1  0.57762058  0.40468621  0.01078149  1
  O2-  O556  1  0.59343997  0.44122365  0.34575821  1
  O2-  O557  1  0.63675151  0.43575087  0.68179623  1
  O2-  O558  1  0.58644943  0.66694013  -0.00164969  1
  O2-  O559  1  0.57541358  0.65386232  0.36559058  1
  O2-  O560  1  0.56676188  0.67275746  0.68600596  1
  O2-  O561  1  0.57881277  0.90004975  0.05175518  1
  O2-  O562  1  0.58286096  0.90127452  0.34978205  1
  O2-  O563  1  0.56340367  0.89940870  0.71082415  1
  O2-  O564  1  0.84951506  0.18114538  0.07000138  1
  O2-  O565  1  0.85982467  0.16911565  0.36984437  1
  O2-  O566  1  0.86353787  0.20479781  0.68721774  1
  O2-  O567  1  0.83158150  0.40987485  0.01374034  1
  O2-  O568  1  0.83282049  0.41981623  0.34602893  1
  O2-  O569  1  0.83181384  0.41472390  0.68544404  1
  O2-  O570  1  0.80750651  0.63945284  0.02170766  1
  O2-  O571  1  0.83931905  0.67036355  0.33902509  1
  O2-  O572  1  0.84588926  0.67620766  0.69226050  1
  O2-  O573  1  0.81387438  0.94200352  0.01836290  1
  O2-  O574  1  0.83462182  0.91452822  0.35235601  1
  O2-  O575  1  0.82986232  0.91942338  0.69203954  1
