# generated using pymatgen
data_H2O
_symmetry_space_group_name_H-M   'P 1'
_cell_length_a   17.97604778
_cell_length_b   17.98777057
_cell_length_c   21.98797399
_cell_angle_alpha   89.98781767
_cell_angle_beta   90.03714341
_cell_angle_gamma   119.97457980
_symmetry_Int_Tables_number   1
_chemical_formula_structural   H2O
_chemical_formula_sum   'H384 O192'
_cell_volume   6158.83391637
_cell_formula_units_Z   192
loop_
 _symmetry_equiv_pos_site_id
 _symmetry_equiv_pos_as_xyz
  1  'x, y, z'
loop_
 _atom_type_symbol
 _atom_type_oxidation_number
  H+  1.0
  O2-  -2.0
loop_
 _atom_site_type_symbol
 _atom_site_label
 _atom_site_symmetry_multiplicity
 _atom_site_fract_x
 _atom_site_fract_y
 _atom_site_fract_z
 _atom_site_occupancy
  H+  H0  1  0.62278680  0.26566664  0.83632313  1
  H+  H1  1  0.02230344  0.37778105  -0.02604240  1
  H+  H2  1  0.39145123  0.11236898  -0.01411994  1
  H+  H3  1  0.77334362  0.38548419  0.33707787  1
  H+  H4  1  0.64160155  0.15416028  0.15660942  1
  H+  H5  1  0.35588029  0.87721399  0.34010339  1
  H+  H6  1  0.35229671  0.12605389  0.14945832  1
  H+  H7  1  0.90080175  1.02193366  0.67338506  1
  H+  H8  1  0.65766885  0.29620947  0.17171533  1
  H+  H9  1  0.60989063  0.71785617  0.49580687  1
  H+  H10  1  0.75365859  0.55344253  0.38775921  1
  H+  H11  1  0.91989198  0.92365113  0.32127376  1
  H+  H12  1  0.13256570  0.25930605  0.16543371  1
  H+  H13  1  0.13727435  0.74653912  0.50714888  1
  H+  H14  1  0.33374095  -0.05638709  0.15876004  1
  H+  H15  1  0.10872487  0.87163800  0.67047487  1
  H+  H16  1  0.62679446  0.59710441  0.67618856  1
  H+  H17  1  0.22638716  0.37130828  0.41279659  1
  H+  H18  1  0.45957063  0.85650896  0.17501277  1
  H+  H19  1  0.52438609  0.38945787  0.67591390  1
  H+  H20  1  0.91451278  0.74574238  0.48011962  1
  H+  H21  1  0.87886280  0.39357434  0.18619386  1
  H+  H22  1  0.36013869  0.72825926  0.34028802  1
  H+  H23  1  1.00699628  0.11086975  0.80578030  1
  H+  H24  1  0.38435647  0.51720188  0.17334543  1
  H+  H25  1  0.48875469  0.87308836  0.51595214  1
  H+  H26  1  0.13301512  0.51479935  0.98772422  1
  H+  H27  1  0.89526223  0.36518932  0.32542342  1
  H+  H28  1  0.46882463  0.36972980  0.99134542  1
  H+  H29  1  0.36743904  0.48935014  0.67660770  1
  H+  H30  1  0.13486916  0.10330284  0.65580342  1
  H+  H31  1  0.23329169  0.85123019  0.17037725  1
  H+  H32  1  0.02957267  0.63426131  0.83096481  1
  H+  H33  1  0.27507565  0.88253427  -0.00262462  1
  H+  H34  1  0.35935330  0.38052667  0.15684157  1
  H+  H35  1  0.11348948  0.13330982  0.17270265  1
  H+  H36  1  0.36889937  0.63502612  0.15522978  1
  H+  H37  1  0.37684196  0.71260897  0.84216970  1
  H+  H38  1  0.02719292  0.63835143  0.00650394  1
  H+  H39  1  0.01798950  0.40028099  0.43202387  1
  H+  H40  1  0.88514193  0.60312926  0.33497273  1
  H+  H41  1  0.37020133  0.10182182  0.67421905  1
  H+  H42  1  0.33056969  0.38562675  0.48957833  1
  H+  H43  1  0.66017833  0.28466314  0.50297316  1
  H+  H44  1  0.85820282  0.39260582  0.67899318  1
  H+  H45  1  0.72015586  0.35865630  0.66097018  1
  H+  H46  1  0.39152707  0.54435927  -0.01504003  1
  H+  H47  1  0.56056141  0.17586856  0.16168673  1
  H+  H48  1  0.62931511  0.50847758  0.67334484  1
  H+  H49  1  0.37321930  0.11397741  0.49917113  1
  H+  H50  1  0.21738803  0.84561666  0.32514587  1
  H+  H51  1  0.86395582  0.14160601  0.16164303  1
  H+  H52  1  0.63404524  0.74889685  0.81538729  1
  H+  H53  1  0.77024482  0.63108645  0.67559424  1
  H+  H54  1  0.15402293  0.36794564  0.66507791  1
  H+  H55  1  0.85528654  0.25351030  0.47555050  1
  H+  H56  1  0.03986150  0.62127877  0.49851564  1
  H+  H57  1  0.61228849  0.89348767  0.34422932  1
  H+  H58  1  0.40601525  0.34247641  0.93263894  1
  H+  H59  1  0.89338040  1.02853475  0.17780586  1
  H+  H60  1  0.37049207  0.73157038  0.68622262  1
  H+  H61  1  0.89612285  0.53699491  0.18438346  1
  H+  H62  1  0.63841802  0.11244034  0.99797799  1
  H+  H63  1  0.63184454  0.52516898  -0.00979053  1
  H+  H64  1  0.51615569  0.64505364  0.65828634  1
  H+  H65  1  0.38938497  0.63087338  -0.00960062  1
  H+  H66  1  0.60850849  0.68221416  0.62930452  1
  H+  H67  1  -0.00817388  0.11483050  0.66996124  1
  H+  H68  1  0.51888731  0.88062661  0.83051205  1
  H+  H69  1  0.12638830  0.35300890  0.14762231  1
  H+  H70  1  0.60431715  0.22215578  0.67074961  1
  H+  H71  1  0.72227551  0.61031977  -0.00066024  1
  H+  H72  1  0.60666669  0.47351961  0.29296941  1
  H+  H73  1  0.36134854  0.63939957  0.33831388  1
  H+  H74  1  0.66518838  0.64193252  0.83330586  1
  H+  H75  1  0.42001817  0.08374985  0.92662989  1
  H+  H76  1  0.09687066  0.15257647  0.50836651  1
  H+  H77  1  0.22597242  0.11841599  -0.01418908  1
  H+  H78  1  0.40423766  0.58144238  0.59665664  1
  H+  H79  1  0.59516877  0.13088821  0.82830655  1
  H+  H80  1  0.02084238  0.64287393  0.15465599  1
  H+  H81  1  0.89344120  0.38302232  0.47677858  1
  H+  H82  1  0.73631001  0.88216315  0.83599671  1
  H+  H83  1  0.52668466  0.64744024  1.00306724  1
  H+  H84  1  0.34658378  0.66577269  0.74245340  1
  H+  H85  1  0.36538861  0.40573482  0.00302785  1
  H+  H86  1  0.61539589  0.89580575  0.82573020  1
  H+  H87  1  0.34876981  0.27645338  0.32102609  1
  H+  H88  1  0.12992947  0.22908230  0.66727702  1
  H+  H89  1  0.22448520  0.35768042  0.16092701  1
  H+  H90  1  0.89859788  0.62025098  0.84456525  1
  H+  H91  1  -0.05777470  0.11418778  0.52724018  1
  H+  H92  1  0.69098283  0.58484462  0.52403702  1
  H+  H93  1  0.13950950  0.85889134  0.83723529  1
  H+  H94  1  0.83821941  0.17050328  0.06575268  1
  H+  H95  1  0.12080798  0.86022869  0.49806326  1
  H+  H96  1  0.45087750  0.10315087  0.51791581  1
  H+  H97  1  0.22150780  0.10355571  0.17400184  1
  H+  H98  1  0.14194380  0.77008870  0.83770862  1
  H+  H99  1  0.09474491  0.37864539  0.81186525  1
  H+  H100  1  0.36351766  0.97152072  -0.00324937  1
  H+  H101  1  0.86895723  0.47912209  -0.00274753  1
  H+  H102  1  0.61963854  0.66334490  0.34363370  1
  H+  H103  1  0.14279070  0.52109467  0.33931850  1
  H+  H104  1  0.86960139  0.48828210  0.48852543  1
  H+  H105  1  0.93671171  1.09187286  0.75616304  1
  H+  H106  1  0.76561936  0.63300099  0.34845851  1
  H+  H107  1  0.74278067  0.87742691  0.64662397  1
  H+  H108  1  0.64166647  0.10982961  0.30840858  1
  H+  H109  1  0.76055658  0.74198875  0.30644173  1
  H+  H110  1  0.38732785  0.26791819  0.17098572  1
  H+  H111  1  0.15075056  0.06242070  0.48108532  1
  H+  H112  1  0.39585066  0.10657200  0.31770822  1
  H+  H113  1  0.86592727  0.88566523  0.81822443  1
  H+  H114  1  0.11321071  0.71552385  0.33957942  1
  H+  H115  1  0.37973708  0.01764420  0.83910428  1
  H+  H116  1  0.64250132  0.97395260  0.50264102  1
  H+  H117  1  0.34136755  0.95841617  0.33753021  1
  H+  H118  1  0.14999183  0.63791813  0.17336587  1
  H+  H119  1  0.59406146  0.62149478  0.50106508  1
  H+  H120  1  0.71134867  0.65987866  0.26390637  1
  H+  H121  1  0.74080913  0.38442784  0.18891574  1
  H+  H122  1  0.89240547  0.11168713  -0.01115679  1
  H+  H123  1  0.36768704  0.28425618  0.50972528  1
  H+  H124  1  0.86048761  0.22013769  0.00264344  1
  H+  H125  1  0.63592610  0.78387708  0.34438861  1
  H+  H126  1  0.58619701  0.36716756  0.83203982  1
  H+  H127  1  0.56665633  0.32612262  0.35986850  1
  H+  H128  1  0.92609442  0.62645870  0.49821960  1
  H+  H129  1  0.87063193  0.15135126  0.69106470  1
  H+  H130  1  0.58968404  0.98257912  0.67238125  1
  H+  H131  1  0.66297211  0.34011161  0.27186998  1
  H+  H132  1  0.92031615  0.82958664  0.59745379  1
  H+  H133  1  0.47481139  0.86554763  0.32815728  1
  H+  H134  1  0.10384368  0.47069541  0.81831220  1
  H+  H135  1  0.39925369  0.38470770  0.66948828  1
  H+  H136  1  0.79887400  0.60574690  0.54407031  1
  H+  H137  1  0.13660125  0.22675988  0.81474983  1
  H+  H138  1  0.88335562  0.89034331  0.15815225  1
  H+  H139  1  0.27611659  0.88065968  0.83154476  1
  H+  H140  1  0.22690771  0.59637448  0.84273852  1
  H+  H141  1  0.33884359  0.25614857  0.01337016  1
  H+  H142  1  0.24279324  0.36753222  0.66471965  1
  H+  H143  1  0.72535094  0.10834094  0.99548289  1
  H+  H144  1  0.60964737  0.47740638  0.14877733  1
  H+  H145  1  0.13977415  0.85753229  0.98872002  1
  H+  H146  1  0.41796447  0.23246690  0.43625912  1
  H+  H147  1  0.13288573  0.60452654  -0.00777306  1
  H+  H148  1  0.27680725  0.40528896  0.00668578  1
  H+  H149  1  0.89202977  0.52054830  0.32694094  1
  H+  H150  1  0.63741194  0.86740775  -0.00518452  1
  H+  H151  1  0.16652531  1.00123609  0.32591481  1
  H+  H152  1  0.13201653  1.01357513  0.17043121  1
  H+  H153  1  0.12324704  0.26082843  0.37621513  1
  H+  H154  1  0.46194416  0.36041807  0.84144358  1
  H+  H155  1  0.23448183  0.63367585  0.17562457  1
  H+  H156  1  -0.02445473  0.85255897  0.65900853  1
  H+  H157  1  0.85282757  0.47523366  0.66037403  1
  H+  H158  1  0.12632494  0.39224586  0.36158227  1
  H+  H159  1  0.29753123  0.05239984  0.29919125  1
  H+  H160  1  0.80709237  0.64577608  0.56064780  1
  H+  H161  1  0.38524108  0.61818690  0.65912720  1
  H+  H162  1  0.35190227  0.96875641  0.67804411  1
  H+  H163  1  0.38425575  0.84777422  0.84100734  1
  H+  H164  1  0.77625052  0.40069951  0.49013740  1
  H+  H165  1  0.39783548  0.86952257  0.51244975  1
  H+  H166  1  0.05623868  0.40276044  0.66308680  1
  H+  H167  1  0.89549935  0.76544915  0.33725040  1
  H+  H168  1  0.75671408  0.63703910  0.17623706  1
  H+  H169  1  0.12940608  0.84664255  0.32760098  1
  H+  H170  1  0.62152270  0.39580128  0.15806667  1
  H+  H171  1  0.84375138  0.93306716  0.40282937  1
  H+  H172  1  0.13672306  0.95120573  0.51481796  1
  H+  H173  1  0.77627419  0.05190183  0.55306498  1
  H+  H174  1  0.37386606  0.73322244  0.49965863  1
  H+  H175  1  0.90133660  0.28472625  0.91249668  1
  H+  H176  1  0.21363965  0.20956045  0.37055062  1
  H+  H177  1  0.11706167  0.63175547  0.82517055  1
  H+  H178  1  0.60868674  0.10045442  0.65102826  1
  H+  H179  1  0.89831604  0.29038208  0.69221708  1
  H+  H180  1  0.23362998  0.14017781  0.34045312  1
  H+  H181  1  0.62068004  0.14337575  0.49473657  1
  H+  H182  1  0.58727338  0.45338309  0.50177193  1
  H+  H183  1  0.13874387  0.25547694  0.97479984  1
  H+  H184  1  0.35532601  0.49344819  0.83076894  1
  H+  H185  1  0.92500308  0.16918210  0.82647479  1
  H+  H186  1  0.62026670  1.02512913  0.84215887  1
  H+  H187  1  0.47600926  0.35816679  0.16972991  1
  H+  H188  1  0.69289285  0.55550590  0.21832803  1
  H+  H189  1  0.15380505  0.53627390  0.65988514  1
  H+  H190  1  0.59084679  0.49822364  0.31117558  1
  H+  H191  1  0.72006410  0.36316390  -0.01443793  1
  H+  H192  1  0.08528633  0.38515486  0.54853019  1
  H+  H193  1  0.96509405  0.36986455  0.51318266  1
  H+  H194  1  0.41639531  0.35243451  0.60737529  1
  H+  H195  1  0.77124286  0.38745250  0.85248829  1
  H+  H196  1  0.89366512  0.27609856  0.16887739  1
  H+  H197  1  0.84661715  0.71775456  0.00586906  1
  H+  H198  1  0.22404224  0.84016694  0.50836015  1
  H+  H199  1  0.23132069  0.14282457  0.50631577  1
  H+  H200  1  0.64482597  0.80563986  0.65063628  1
  H+  H201  1  0.15048478  0.02126181  0.97762885  1
  H+  H202  1  0.82444666  0.41820241  0.91196409  1
  H+  H203  1  0.58672100  0.66243838  0.09701712  1
  H+  H204  1  0.90564327  0.07391247  0.59123887  1
  H+  H205  1  0.89106665  0.52854609  0.85883637  1
  H+  H206  1  0.37641930  0.61304902  0.50559647  1
  H+  H207  1  0.01456383  0.88652515  0.15160983  1
  H+  H208  1  0.02478536  0.62660669  0.34324499  1
  H+  H209  1  1.02373568  0.16679897  0.35990698  1
  H+  H210  1  0.75782005  0.11363140  0.51672164  1
  H+  H211  1  0.10770118  -0.03964202  0.67069334  1
  H+  H212  1  0.09751535  0.24330497  0.51431544  1
  H+  H213  1  0.54041521  0.13428604  0.35141481  1
  H+  H214  1  0.11279673  0.63307942  0.67190998  1
  H+  H215  1  0.34852178  -0.03394007  0.49413196  1
  H+  H216  1  0.33837951  0.85449871  0.16843271  1
  H+  H217  1  0.10968683  0.37555749  0.97996507  1
  H+  H218  1  0.22471869  0.31897306  0.93868297  1
  H+  H219  1  0.52834364  0.13927204  0.00622327  1
  H+  H220  1  0.27017210  0.63661116  0.00391791  1
  H+  H221  1  0.47301660  0.86118292  -0.00549713  1
  H+  H222  1  0.10377090  0.88328264  0.15301961  1
  H+  H223  1  -0.00770484  0.87125957  0.50743942  1
  H+  H224  1  0.21966270  0.36930415  0.82759142  1
  H+  H225  1  0.90053360  1.04758290  0.33756428  1
  H+  H226  1  0.47660136  0.60142271  0.16792296  1
  H+  H227  1  0.23990575  0.37442241  0.34057027  1
  H+  H228  1  0.64363659  0.27256712  0.32514379  1
  H+  H229  1  0.92439329  0.59657161  0.94110320  1
  H+  H230  1  0.89350169  0.13176631  0.33162985  1
  H+  H231  1  0.61112659  0.38237651  0.67839531  1
  H+  H232  1  0.13584168  0.61251521  0.33914114  1
  H+  H233  1  0.77161404  0.13711856  0.32663195  1
  H+  H234  1  0.61983996  0.63340883  0.15648672  1
  H+  H235  1  0.61275679  0.64043555  0.00404786  1
  H+  H236  1  0.86812577  0.38951123  -0.01180229  1
  H+  H237  1  0.34280858  0.12476438  0.83934848  1
  H+  H238  1  0.89278241  1.02435288  -0.00921845  1
  H+  H239  1  0.87901940  0.75245338  0.16094583  1
  H+  H240  1  0.25977775  0.11632393  0.68339328  1
  H+  H241  1  0.87073465  0.88439089  0.66641450  1
  H+  H242  1  0.78193178  0.88323823  0.49044795  1
  H+  H243  1  0.44314980  0.06507812  0.16934801  1
  H+  H244  1  0.64487045  0.85501091  0.49609557  1
  H+  H245  1  0.23717361  0.61878884  0.34037584  1
  H+  H246  1  0.78231975  0.90425249  0.34422839  1
  H+  H247  1  0.13207252  0.76100353  0.66283742  1
  H+  H248  1  0.63303465  0.27340051  0.99248404  1
  H+  H249  1  0.85858645  0.72101093  0.66958786  1
  H+  H250  1  0.89396488  0.77507160  0.82887369  1
  H+  H251  1  0.95301338  0.37017552  0.73342036  1
  H+  H252  1  0.11014382  0.12806415  0.97670505  1
  H+  H253  1  0.26478502  0.87650367  0.67665719  1
  H+  H254  1  0.85429396  0.42640185  0.24426302  1
  H+  H255  1  0.35241629  0.39258150  0.30296984  1
  H+  H256  1  0.48010487  0.32982335  0.35274226  1
  H+  H257  1  0.02595478  0.37218994  0.14241380  1
  H+  H258  1  0.36559877  0.27935228  0.84707418  1
  H+  H259  1  0.20354751  0.36720980  0.51321549  1
  H+  H260  1  0.97565955  0.61177204  0.65755168  1
  H+  H261  1  0.47328485  0.61838714  0.32707100  1
  H+  H262  1  0.79048036  0.64812760  0.82828993  1
  H+  H263  1  0.03017623  0.88123778  0.82639338  1
  H+  H264  1  0.12161123  0.76080339  0.16754886  1
  H+  H265  1  0.77218827  0.89256090  1.01001787  1
  H+  H266  1  0.87621656  0.97896828  0.80936511  1
  H+  H267  1  1.04126817  0.90842774  0.34443410  1
  H+  H268  1  0.87748536  0.65845973  0.16335567  1
  H+  H269  1  0.88962822  0.61718562  1.00270363  1
  H+  H270  1  0.07864171  0.46866274  0.55634421  1
  H+  H271  1  0.03265499  0.89300733  -0.00044408  1
  H+  H272  1  0.85111303  0.84764602  0.98555685  1
  H+  H273  1  0.35751801  0.72961583  1.00396761  1
  H+  H274  1  0.90246927  0.87146771  0.50247556  1
  H+  H275  1  0.59996404  0.74367686  0.18300687  1
  H+  H276  1  0.65994818  0.06725083  0.13289654  1
  H+  H277  1  0.50144905  0.88442660  0.68287329  1
  H+  H278  1  0.60188087  -0.03467518  0.17339666  1
  H+  H279  1  0.45370264  0.36886468  0.51294648  1
  H+  H280  1  0.61167615  0.97599077  0.01071436  1
  H+  H281  1  0.88750825  0.61443276  0.65495996  1
  H+  H282  1  0.91811349  0.75405462  0.31346873  1
  H+  H283  1  0.38422316  0.86381556  0.99051506  1
  H+  H284  1  0.23311397  0.62840679  0.66527753  1
  H+  H285  1  0.79408151  0.89506809  0.15999968  1
  H+  H286  1  0.62973223  0.35500650  0.50989418  1
  H+  H287  1  0.61193112  0.97997327  0.33272346  1
  H+  H288  1  0.57940033  0.91339116  0.06884068  1
  H+  H289  1  0.37765985  0.76145108  0.17354713  1
  H+  H290  1  0.83986213  0.91882973  0.06602830  1
  H+  H291  1  0.33941722  0.67602187  0.43981711  1
  H+  H292  1  0.16505216  0.33422634  0.58026178  1
  H+  H293  1  0.65748077  0.82986668  0.28111549  1
  H+  H294  1  0.40817600  0.32451043  0.26255922  1
  H+  H295  1  0.06841717  0.18751724  0.43403079  1
  H+  H296  1  0.34976121  0.47965726  0.30797863  1
  H+  H297  1  0.51255130  0.13422035  0.67230526  1
  H+  H298  1  0.36087486  0.40559026  0.83405014  1
  H+  H299  1  0.92644116  0.58272994  0.56300989  1
  H+  H300  1  0.11943245  0.72411287  0.00231519  1
  H+  H301  1  0.81379807  0.17844108  0.42573838  1
  H+  H302  1  0.83602774  0.91024338  0.72599387  1
  H+  H303  1  0.57052643  0.92463854  0.74371525  1
  H+  H304  1  0.31874534  0.17268102  0.10220048  1
  H+  H305  1  0.24863401  0.21786043  0.04636368  1
  H+  H306  1  0.40084563  0.61504681  0.89246698  1
  H+  H307  1  0.83492730  0.67359624  0.07160741  1
  H+  H308  1  0.09570152  0.65407145  0.43902124  1
  H+  H309  1  0.93027107  0.60355320  0.23662843  1
  H+  H310  1  0.10916587  0.16830513  0.72509846  1
  H+  H311  1  0.98206545  0.36097177  0.32696465  1
  H+  H312  1  0.08255784  0.67226165  0.09367099  1
  H+  H313  1  0.07442644  0.38804645  0.07721072  1
  H+  H314  1  0.37895206  0.05268521  0.22342755  1
  H+  H315  1  0.91996927  0.09069089  0.23677808  1
  H+  H316  1  0.77674633  0.14806986  0.15797416  1
  H+  H317  1  0.57412061  0.66445628  0.40624975  1
  H+  H318  1  0.59295688  0.17768741  0.06453900  1
  H+  H319  1  0.08636579  0.91999469  0.06085700  1
  H+  H320  1  0.33831306  0.43415168  0.73883564  1
  H+  H321  1  0.85565554  0.18811555  0.75134728  1
  H+  H322  1  0.02435976  0.13356782  -0.01294783  1
  H+  H323  1  0.99664777  0.97381101  0.27582192  1
  H+  H324  1  0.15216719  0.81758036  0.23250798  1
  H+  H325  1  0.42051985  0.59314120  0.26368128  1
  H+  H326  1  0.41130957  0.82908984  0.26961744  1
  H+  H327  1  0.02639101  0.13766630  0.16892143  1
  H+  H328  1  0.83571082  0.42065088  0.39446348  1
  H+  H329  1  0.65299315  0.08436000  0.90043881  1
  H+  H330  1  0.41617078  0.82502779  0.90242188  1
  H+  H331  1  0.16620654  0.07261647  0.59905201  1
  H+  H332  1  0.85901264  0.22908123  0.33271122  1
  H+  H333  1  0.14928456  0.32502441  0.87898825  1
  H+  H334  1  0.65909144  0.32867040  0.60363574  1
  H+  H335  1  0.92440485  0.38169764  0.90565065  1
  H+  H336  1  0.33377812  0.90921497  0.77202275  1
  H+  H337  1  0.41687185  0.83544502  0.60943202  1
  H+  H338  1  0.63968214  0.77996039  0.99247784  1
  H+  H339  1  0.31496914  0.15022340  0.74421929  1
  H+  H340  1  0.66344060  0.06876234  0.60752542  1
  H+  H341  1  0.90801330  0.83088384  0.88803788  1
  H+  H342  1  0.66974873  0.08199549  0.24753069  1
  H+  H343  1  0.39136279  0.07418417  0.61038452  1
  H+  H344  1  0.16367083  0.81614117  0.60152553  1
  H+  H345  1  0.67600811  0.85030849  0.89556936  1
  H+  H346  1  0.57709924  0.41300561  0.05795441  1
  H+  H347  1  0.45836769  0.60033662  0.50490614  1
  H+  H348  1  0.15722784  0.14825081  0.81612785  1
  H+  H349  1  0.46485448  0.11072549  0.83407034  1
  H+  H350  1  0.58951565  0.87069221  0.17281659  1
  H+  H351  1  0.10139019  0.42674433  0.72713406  1
  H+  H352  1  0.21608800  0.09707812  0.88518711  1
  H+  H353  1  0.53902051  0.75424243  0.22783493  1
  H+  H354  1  0.59403695  0.92891794  0.43992540  1
  H+  H355  1  0.86384511  0.97437066  0.50400674  1
  H+  H356  1  0.33443031  0.41933723  0.09887326  1
  H+  H357  1  0.32016610  0.18970230  0.42327870  1
  H+  H358  1  0.07916981  0.65893334  0.73174054  1
  H+  H359  1  0.62093227  0.17283865  0.39561650  1
  H+  H360  1  0.32792581  0.90588965  0.43578021  1
  H+  H361  1  0.68177334  0.60439152  0.89509846  1
  H+  H362  1  0.54848458  0.37846831  0.44883063  1
  H+  H363  1  0.16760818  0.82701332  0.92854376  1
  H+  H364  1  0.71656508  0.19348187  0.46902930  1
  H+  H365  1  0.87335407  0.67409464  0.42841351  1
  H+  H366  1  0.57024078  0.16007916  0.76540328  1
  H+  H367  1  0.67989308  0.83417059  0.55588091  1
  H+  H368  1  0.79589723  0.76966278  0.94213443  1
  H+  H369  1  0.93574507  0.33445993  0.22758513  1
  H+  H370  1  0.33870531  0.66820140  0.09659838  1
  H+  H371  1  0.63342844  0.55747304  0.58171394  1
  H+  H372  1  0.93119867  0.85055398  0.21924102  1
  H+  H373  1  0.56119358  0.40141321  0.77384161  1
  H+  H374  1  0.84534261  0.66618351  0.76687112  1
  H+  H375  1  0.37721006  0.86056350  0.66712963  1
  H+  H376  1  0.64756797  0.32221103  0.89698781  1
  H+  H377  1  0.08673027  0.90420902  0.76729874  1
  H+  H378  1  0.33132157  0.47369040  0.48691266  1
  H+  H379  1  0.18732569  0.05540051  0.26152980  1
  H+  H380  1  0.60473456  0.38459371  0.99769871  1
  H+  H381  1  0.16293564  0.57296039  0.89813513  1
  H+  H382  1  0.60956898  0.69318499  0.75539057  1
  H+  H383  1  0.09482668  0.91127589  0.40536219  1
  O2-  O384  1  0.08806979  0.16716053  0.15660643  1
  O2-  O385  1  0.06406585  0.18105308  0.49650998  1
  O2-  O386  1  0.11712411  0.16693266  0.80049940  1
  O2-  O387  1  0.08182564  0.38903558  0.12215970  1
  O2-  O388  1  0.08042773  0.43725621  0.42099534  1
  O2-  O389  1  0.07237139  0.41524343  0.79606836  1
  O2-  O390  1  0.08107566  0.67664111  0.13942795  1
  O2-  O391  1  0.10040562  0.65413149  0.48378055  1
  O2-  O392  1  0.08761585  0.66327027  0.81140683  1
  O2-  O393  1  0.07920106  0.91760987  0.13675673  1
  O2-  O394  1  0.10226298  0.90454685  0.48673081  1
  O2-  O395  1  0.09034409  0.90520720  0.81234313  1
  O2-  O396  1  0.32613865  0.16296351  0.14608586  1
  O2-  O397  1  0.36169005  0.19476260  0.45558354  1
  O2-  O398  1  0.31594223  0.16143561  0.82960325  1
  O2-  O399  1  0.32831954  0.41101734  0.14402109  1
  O2-  O400  1  0.29600708  0.41153689  0.47490225  1
  O2-  O401  1  0.32832735  0.43291933  0.81724624  1
  O2-  O402  1  0.34410727  0.67092770  0.14202605  1
  O2-  O403  1  0.34150244  0.67338643  0.48457535  1
  O2-  O404  1  0.34400945  0.65017069  0.82855424  1
  O2-  O405  1  0.30214039  0.88000340  0.15263308  1
  O2-  O406  1  0.33008566  0.90665736  0.48115008  1
  O2-  O407  1  0.33762955  0.91032012  0.81738662  1
  O2-  O408  1  0.61592592  0.19718931  0.14199086  1
  O2-  O409  1  0.65766284  0.19029410  0.46758273  1
  O2-  O410  1  0.56462452  0.16085571  0.81050369  1
  O2-  O411  1  0.58286983  0.41599968  0.14006599  1
  O2-  O412  1  0.55695048  0.39061198  0.49343381  1
  O2-  O413  1  0.55089132  0.39270012  0.81832116  1
  O2-  O414  1  0.58353583  0.65697773  0.14292920  1
  O2-  O415  1  0.57143131  0.65665333  0.48243566  1
  O2-  O416  1  0.61492908  0.69053569  0.79952294  1
  O2-  O417  1  0.56931677  0.90823915  0.15442264  1
  O2-  O418  1  0.59688774  0.91936138  0.48407860  1
  O2-  O419  1  0.57699465  0.91861632  0.81225332  1
  O2-  O420  1  0.83917105  0.17568914  0.14430508  1
  O2-  O421  1  0.80425094  0.19407106  0.46746881  1
  O2-  O422  1  0.91363851  0.21837109  0.82707469  1
  O2-  O423  1  0.84983246  0.42663732  0.19995145  1
  O2-  O424  1  0.83332075  0.42916182  0.46938916  1
  O2-  O425  1  0.83159288  0.42063124  0.86727315  1
  O2-  O426  1  0.84445254  0.68603291  0.14880321  1
  O2-  O427  1  0.92069749  0.70112226  0.45796212  1
  O2-  O428  1  0.85163311  0.67296982  0.81187334  1
  O2-  O429  1  0.85279128  0.92710505  0.14495985  1
  O2-  O430  1  0.84414900  0.92109277  0.47931853  1
  O2-  O431  1  0.83564960  0.91638523  0.80310013  1
  O2-  O432  1  0.16367045  0.06997184  0.19322421  1
  O2-  O433  1  0.16997029  0.10485627  0.51376738  1
  O2-  O434  1  0.22333550  0.10577655  0.83978494  1
  O2-  O435  1  0.16122343  0.32652528  0.17146351  1
  O2-  O436  1  0.14766193  0.33440944  0.53598153  1
  O2-  O437  1  0.15705136  0.32760660  0.83439718  1
  O2-  O438  1  0.18462520  0.62342806  0.20013590  1
  O2-  O439  1  0.04555593  0.40635174  0.55996948  1
  O2-  O440  1  0.16546278  0.57251236  0.85252154  1
  O2-  O441  1  0.15558011  0.82288530  0.18678922  1
  O2-  O442  1  0.16326107  0.80919661  0.52235830  1
  O2-  O443  1  0.17203401  0.82996886  0.85390722  1
  O2-  O444  1  0.38375489  0.04891704  0.17790593  1
  O2-  O445  1  0.38871551  0.07600828  0.52208434  1
  O2-  O446  1  0.40505982  0.07885743  0.85267230  1
  O2-  O447  1  0.41577384  0.32887953  0.18494847  1
  O2-  O448  1  0.39157227  0.34401217  0.52334108  1
  O2-  O449  1  0.40054787  0.34018840  0.85908561  1
  O2-  O450  1  0.41814098  0.57893362  0.18548976  1
  O2-  O451  1  0.39796245  0.57256485  0.51915164  1
  O2-  O452  1  0.39634105  0.61114557  0.84675126  1
  O2-  O453  1  0.40007554  0.82164597  0.19120113  1
  O2-  O454  1  0.42874351  0.84243510  0.53145836  1
  O2-  O455  1  0.41559521  0.81868962  0.85667389  1
  O2-  O456  1  0.67225576  0.10062032  0.17027693  1
  O2-  O457  1  0.72823969  0.06167575  0.54331056  1
  O2-  O458  1  0.64371424  0.08495060  0.85619996  1
  O2-  O459  1  0.67671177  0.35358759  0.19147283  1
  O2-  O460  1  0.67444847  0.34020844  0.52174848  1
  O2-  O461  1  0.65236979  0.32607836  0.85186908  1
  O2-  O462  1  0.69580211  0.60444302  0.19688453  1
  O2-  O463  1  0.63039286  0.55627935  0.53547918  1
  O2-  O464  1  0.69714798  0.61533612  0.85178133  1
  O2-  O465  1  0.59634224  0.78706186  0.21010407  1
  O2-  O466  1  0.67532241  0.82433825  0.51001233  1
  O2-  O467  1  0.67545686  0.85425476  0.85049852  1
  O2-  O468  1  0.91919299  0.08956759  0.19176444  1
  O2-  O469  1  0.89128934  0.06710047  0.54686755  1
  O2-  O470  1  0.94414755  0.08910689  0.80051660  1
  O2-  O471  1  0.93013025  0.33757447  0.18282052  1
  O2-  O472  1  0.92716081  0.35213007  0.47577151  1
  O2-  O473  1  0.86355435  0.20401035  0.87958490  1
  O2-  O474  1  0.92493205  0.60008116  0.19140073  1
  O2-  O475  1  0.93311651  0.57957553  0.51773918  1
  O2-  O476  1  0.92846961  0.59228021  0.86471698  1
  O2-  O477  1  0.92479009  0.84392487  0.17500033  1
  O2-  O478  1  0.93075617  0.83995017  0.51903938  1
  O2-  O479  1  0.91938076  0.83646320  0.84373727  1
  O2-  O480  1  0.21096201  0.05370711  0.30333457  1
  O2-  O481  1  0.15965152  0.06620519  0.64333420  1
  O2-  O482  1  0.17964450  0.07881165  0.95791021  1
  O2-  O483  1  0.19198188  0.35029915  0.37434183  1
  O2-  O484  1  0.18142523  0.33382880  0.65007915  1
  O2-  O485  1  0.17788400  0.31977419  0.96061662  1
  O2-  O486  1  0.17210558  0.58366161  0.32876233  1
  O2-  O487  1  0.17463699  0.59687053  0.64794477  1
  O2-  O488  1  0.16462988  0.57647042  0.97553162  1
  O2-  O489  1  0.15714488  0.81595598  0.30890680  1
  O2-  O490  1  0.16365218  0.82185149  0.64676092  1
  O2-  O491  1  0.16803166  0.82542586  0.97461182  1
  O2-  O492  1  0.35527697  0.05381581  0.29686658  1
  O2-  O493  1  0.40142653  0.07359196  0.65427478  1
  O2-  O494  1  0.42422468  0.08553148  0.97280277  1
  O2-  O495  1  0.40174686  0.32856552  0.30753601  1
  O2-  O496  1  0.43019734  0.35741479  0.65094407  1
  O2-  O497  1  0.40712509  0.34542784  0.97897112  1
  O2-  O498  1  0.41465544  0.59238460  0.30895589  1
  O2-  O499  1  0.41449216  0.58777932  0.64185834  1
  O2-  O500  1  0.42146442  0.60460033  0.97033186  1
  O2-  O501  1  0.41310910  0.83236465  0.31507595  1
  O2-  O502  1  0.41212885  0.83289914  0.65496367  1
  O2-  O503  1  0.41385428  0.83034830  0.97738374  1
  O2-  O504  1  0.66973696  0.07801561  0.29313353  1
  O2-  O505  1  0.61198894  0.05082895  0.63295411  1
  O2-  O506  1  0.66331562  0.07669061  0.98405468  1
  O2-  O507  1  0.66398370  0.33418282  0.31707517  1
  O2-  O508  1  0.65675531  0.32575066  0.64864193  1
  O2-  O509  1  0.65754074  0.33311784  0.97607023  1
  O2-  O510  1  0.71865634  0.68072830  0.30707376  1
  O2-  O511  1  0.65594552  0.57011407  0.65574860  1
  O2-  O512  1  0.66427987  0.58771600  0.98066185  1
  O2-  O513  1  0.67012442  0.84193624  0.32500544  1
  O2-  O514  1  0.68560292  0.85561220  0.62679476  1
  O2-  O515  1  0.67098147  0.84096627  0.97866189  1
  O2-  O516  1  0.93330762  0.10848901  0.32320588  1
  O2-  O517  1  0.92741710  0.08632303  0.66891340  1
  O2-  O518  1  0.92367778  0.08318899  0.97394612  1
  O2-  O519  1  0.92323079  0.33330821  0.30938981  1
  O2-  O520  1  0.93186119  0.35489271  0.69168440  1
  O2-  O521  1  0.92630258  0.34385105  0.93697445  1
  O2-  O522  1  0.92222730  0.58308029  0.31627026  1
  O2-  O523  1  0.91749189  0.58490826  0.63809195  1
  O2-  O524  1  0.92293041  0.59044554  0.98674458  1
  O2-  O525  1  0.96799144  0.92136794  0.29986299  1
  O2-  O526  1  0.91509763  0.82600898  0.64276862  1
  O2-  O527  1  0.85285842  0.80061568  0.96070170  1
  O2-  O528  1  0.08902884  0.16437538  -0.00542130  1
  O2-  O529  1  0.07952668  0.19526412  0.38495512  1
  O2-  O530  1  0.09907863  0.16700109  0.67999387  1
  O2-  O531  1  0.07765792  0.40144807  -0.00259158  1
  O2-  O532  1  0.08718610  0.41728003  0.35737051  1
  O2-  O533  1  0.11393413  0.42860938  0.68171532  1
  O2-  O534  1  0.08871000  0.66456093  0.01992042  1
  O2-  O535  1  0.08642581  0.65575411  0.35627270  1
  O2-  O536  1  0.07811903  0.66023273  0.68637658  1
  O2-  O537  1  0.09134527  0.92043726  0.01493183  1
  O2-  O538  1  0.09567999  0.91308995  0.36015805  1
  O2-  O539  1  0.07648499  0.90010261  0.68575929  1
  O2-  O540  1  0.29266110  0.20349959  0.03544626  1
  O2-  O541  1  0.25898825  0.19537777  0.36475958  1
  O2-  O542  1  0.31882236  0.14421195  0.70004398  1
  O2-  O543  1  0.33694862  0.43691646  0.02101345  1
  O2-  O544  1  0.31400703  0.41728375  0.29891001  1
  O2-  O545  1  0.33964032  0.42983496  0.69365911  1
  O2-  O546  1  0.33041665  0.66892648  0.01958792  1
  O2-  O547  1  0.33010802  0.66778317  0.35583394  1
  O2-  O548  1  0.34267731  0.66973759  0.69783185  1
  O2-  O549  1  0.33568697  0.91199891  0.01192684  1
  O2-  O550  1  0.31913046  0.90081994  0.35572252  1
  O2-  O551  1  0.32536872  0.90781166  0.69248287  1
  O2-  O552  1  0.58957321  0.17137917  0.01926684  1
  O2-  O553  1  0.60292726  0.16729919  0.35160530  1
  O2-  O554  1  0.57392166  0.16063165  0.68484035  1
  O2-  O555  1  0.57431427  0.41513591  0.01298881  1
  O2-  O556  1  0.51605316  0.31939812  0.38256812  1
  O2-  O557  1  0.58410100  0.41549025  0.69445120  1
  O2-  O558  1  0.58544365  0.67299007  0.02120962  1
  O2-  O559  1  0.57618647  0.67560028  0.36112699  1
  O2-  O560  1  0.58014084  0.67878153  0.66779570  1
  O2-  O561  1  0.58072273  0.91392673  0.02394737  1
  O2-  O562  1  0.58043120  0.92400014  0.35466628  1
  O2-  O563  1  0.56434030  0.92255543  0.69678577  1
  O2-  O564  1  0.83246609  0.16285572  0.02051689  1
  O2-  O565  1  0.82763809  0.16892010  0.34877682  1
  O2-  O566  1  0.84375135  0.18321263  0.70722766  1
  O2-  O567  1  0.83159507  0.41521078  -0.00443119  1
  O2-  O568  1  0.83561375  0.41506009  0.34858662  1
  O2-  O569  1  0.81827503  0.41551482  0.67541256  1
  O2-  O570  1  0.82856144  0.66209076  0.02672881  1
  O2-  O571  1  0.79660567  0.60771672  0.37015249  1
  O2-  O572  1  0.83208568  0.66167108  0.68674455  1
  O2-  O573  1  0.83419769  0.91596459  0.02069509  1
  O2-  O574  1  0.84346533  0.93847200  0.35723114  1
  O2-  O575  1  0.84273114  0.91771306  0.68064273  1
