# generated using pymatgen
data_H2O
_symmetry_space_group_name_H-M   'P 1'
_cell_length_a   17.99283211
_cell_length_b   17.98878624
_cell_length_c   21.99598688
_cell_angle_alpha   89.99174985
_cell_angle_beta   89.98670979
_cell_angle_gamma   120.00588185
_symmetry_Int_Tables_number   1
_chemical_formula_structural   H2O
_chemical_formula_sum   'H384 O192'
_cell_volume   6165.23588741
_cell_formula_units_Z   192
loop_
 _symmetry_equiv_pos_site_id
 _symmetry_equiv_pos_as_xyz
  1  'x, y, z'
loop_
 _atom_type_symbol
 _atom_type_oxidation_number
  H+  1.0
  O2-  -2.0
loop_
 _atom_site_type_symbol
 _atom_site_label
 _atom_site_symmetry_multiplicity
 _atom_site_fract_x
 _atom_site_fract_y
 _atom_site_fract_z
 _atom_site_occupancy
  H+  H0  1  0.11821657  0.72979250  0.15995918  1
  H+  H1  1  0.73077253  0.37216712  0.84516241  1
  H+  H2  1  -0.01351644  0.12917740  0.66415494  1
  H+  H3  1  0.87576184  0.52449061  0.65535402  1
  H+  H4  1  0.40817765  0.51295361  0.52502155  1
  H+  H5  1  0.35132606  0.62938948  0.17136384  1
  H+  H6  1  0.89007263  0.35369082  0.32559842  1
  H+  H7  1  0.62630031  0.76384039  -0.01613234  1
  H+  H8  1  0.61132274  0.73134937  0.83267886  1
  H+  H9  1  0.38567315  0.08265013  0.21328372  1
  H+  H10  1  0.09469473  0.68399287  0.43666613  1
  H+  H11  1  0.89504589  0.26841317  0.67502198  1
  H+  H12  1  0.38451745  0.76676806  0.65707621  1
  H+  H13  1  0.63613056  0.61254861  0.68539201  1
  H+  H14  1  0.38358270  0.77580804  0.00244324  1
  H+  H15  1  0.65370039  0.83178693  0.56759001  1
  H+  H16  1  0.72506752  0.86767527  0.84095625  1
  H+  H17  1  0.74900002  0.85900627  1.01094537  1
  H+  H18  1  0.12780401  0.23454951  0.82240205  1
  H+  H19  1  -0.03637813  0.36512599  -0.00878641  1
  H+  H20  1  0.38333328  0.51890907  0.19082516  1
  H+  H21  1  0.89698450  0.67510332  0.69843397  1
  H+  H22  1  0.64103479  0.82212579  0.13436218  1
  H+  H23  1  -0.05337240  0.11385852  0.16403824  1
  H+  H24  1  0.35925556  0.87877182  0.67078143  1
  H+  H25  1  0.13408505  0.23379996  0.66168681  1
  H+  H26  1  0.17129188  0.84062569  0.56429142  1
  H+  H27  1  0.61722692  0.46735774  0.81885567  1
  H+  H28  1  0.63348736  0.11428444  0.99263879  1
  H+  H29  1  0.10429285  0.63965175  0.68290325  1
  H+  H30  1  0.14233300  0.02743464  0.49909726  1
  H+  H31  1  0.62772715  0.72644453  0.49573569  1
  H+  H32  1  0.64270240  0.37626250  0.33289628  1
  H+  H33  1  0.08968802  0.37971747  0.99920744  1
  H+  H34  1  0.35965001  0.88575371  0.15279360  1
  H+  H35  1  0.58606990  0.18500477  0.34225239  1
  H+  H36  1  0.85788399  0.15579468  0.00158556  1
  H+  H37  1  0.61135858  0.38434160  0.16172272  1
  H+  H38  1  0.60599618  0.71419161  0.34222875  1
  H+  H39  1  0.11442458  0.89204315  0.33708148  1
  H+  H40  1  0.74651955  0.11690420  0.34924443  1
  H+  H41  1  0.18701408  0.38879397  0.84243358  1
  H+  H42  1  0.91727698  0.99701124  0.31448843  1
  H+  H43  1  0.47345526  0.86184254  1.00005911  1
  H+  H44  1  0.12350586  0.01224710  0.33053875  1
  H+  H45  1  0.46223390  0.84778562  0.32578949  1
  H+  H46  1  0.71758804  0.66968175  0.49540664  1
  H+  H47  1  0.35940902  0.21930304  -0.00602175  1
  H+  H48  1  0.25247075  0.34693024  0.60597044  1
  H+  H49  1  -0.03292704  0.82672935  0.34343264  1
  H+  H50  1  0.63070465  0.11071114  0.67463853  1
  H+  H51  1  0.51028948  0.13676381  0.15508248  1
  H+  H52  1  0.86463919  0.73856844  0.83904028  1
  H+  H53  1  0.78580237  0.39842390  0.33413333  1
  H+  H54  1  0.37396305  0.47736412  0.84460617  1
  H+  H55  1  0.24854983  0.85865656  0.82983018  1
  H+  H56  1  0.76456509  0.38844805  0.99205697  1
  H+  H57  1  0.76855494  0.36975870  0.15117128  1
  H+  H58  1  0.81894714  0.65584538  0.43138543  1
  H+  H59  1  0.11141415  0.76687925  0.99302660  1
  H+  H60  1  0.46656623  0.84889954  0.82637152  1
  H+  H61  1  0.63664747  1.02652739  -0.00219061  1
  H+  H62  1  0.52576860  0.63849122  0.67599235  1
  H+  H63  1  0.84661817  0.67482667  0.11512777  1
  H+  H64  1  0.11192317  0.13375888  0.48764773  1
  H+  H65  1  0.87146256  0.48751311  0.83193799  1
  H+  H66  1  0.49607967  0.59981279  0.51190020  1
  H+  H67  1  0.72795232  0.86092240  0.17087673  1
  H+  H68  1  0.86300735  0.98576080  0.50099499  1
  H+  H69  1  0.71571930  0.36119054  0.66304822  1
  H+  H70  1  0.90058975  0.12438850  0.81761219  1
  H+  H71  1  0.84115980  0.94088424  0.01878480  1
  H+  H72  1  0.23134312  0.87288085  0.32475431  1
  H+  H73  1  0.73955582  0.10015436  0.83756221  1
  H+  H74  1  0.83656250  0.93047990  0.60213990  1
  H+  H75  1  0.36361335  0.97083149  0.33803933  1
  H+  H76  1  0.09502169  0.07784615  0.12487249  1
  H+  H77  1  0.42541960  0.10222199  0.59058728  1
  H+  H78  1  0.31108843  0.39381302  0.02373492  1
  H+  H79  1  0.06805246  0.05711793  0.15280154  1
  H+  H80  1  0.13762906  0.87015538  0.65933618  1
  H+  H81  1  0.61380856  0.09159514  0.33799642  1
  H+  H82  1  0.16442324  0.33400691  0.59303293  1
  H+  H83  1  0.87644374  0.60509826  0.62777130  1
  H+  H84  1  0.64083179  0.41768157  0.49856080  1
  H+  H85  1  0.37738403  0.85487930  0.32705787  1
  H+  H86  1  0.85339053  0.22470769  0.16094705  1
  H+  H87  1  0.87772862  0.60083990  0.49399762  1
  H+  H88  1  0.85030210  -0.02539731  0.16418327  1
  H+  H89  1  -0.02493408  0.11307259  0.50722429  1
  H+  H90  1  0.10340147  0.59405697  0.81733260  1
  H+  H91  1  0.58014168  0.90967358  0.76681236  1
  H+  H92  1  0.37590829  0.38139740  0.17286257  1
  H+  H93  1  0.35695149  0.97381435  0.14953482  1
  H+  H94  1  0.12918843  0.03211122  0.99018493  1
  H+  H95  1  0.11494112  0.47920944  0.48193379  1
  H+  H96  1  0.24595139  0.58201720  0.84078154  1
  H+  H97  1  0.39369890  0.48967637  0.01933245  1
  H+  H98  1  0.60831089  0.88459018  0.67230283  1
  H+  H99  1  0.97862967  0.35528064  0.17438931  1
  H+  H100  1  0.42191793  0.59790051  1.05113056  1
  H+  H101  1  0.32760539  0.91199592  0.75665672  1
  H+  H102  1  0.86316877  0.23179135  0.80627590  1
  H+  H103  1  0.25294344  0.38976813  0.17487603  1
  H+  H104  1  0.50777937  0.86929160  0.48882812  1
  H+  H105  1  0.60333644  0.22406835  0.67696089  1
  H+  H106  1  0.62439138  1.02871589  0.17916658  1
  H+  H107  1  0.63289951  0.02460556  0.66945736  1
  H+  H108  1  0.28652807  0.62846605  0.49512426  1
  H+  H109  1  0.02429170  0.72407733  0.38019303  1
  H+  H110  1  0.90836996  0.62114687  0.99717897  1
  H+  H111  1  0.29225069  0.14634771  0.48679149  1
  H+  H112  1  0.60575923  0.87461759  0.49213879  1
  H+  H113  1  0.51898568  0.88324571  0.67245978  1
  H+  H114  1  0.74909500  0.77909271  0.40363306  1
  H+  H115  1  0.72045522  0.87086635  0.51255782  1
  H+  H116  1  0.73106409  0.60758017  0.01358161  1
  H+  H117  1  0.60667480  0.87662143  0.33973199  1
  H+  H118  1  0.15634214  0.31130253  0.17957172  1
  H+  H119  1  0.22867222  0.86310106  0.16735500  1
  H+  H120  1  0.35734244  0.22098749  0.14110108  1
  H+  H121  1  0.37314299  0.21430958  0.44790880  1
  H+  H122  1  0.38671708  0.85582654  0.50132483  1
  H+  H123  1  0.97772024  0.13778769  0.97880521  1
  H+  H124  1  0.52628269  0.14217145  0.99817354  1
  H+  H125  1  0.92835904  0.10595843  0.88143548  1
  H+  H126  1  0.66043628  0.29800799  0.33095476  1
  H+  H127  1  0.19050644  0.36272865  0.98931175  1
  H+  H128  1  0.89338484  0.87444217  0.65677161  1
  H+  H129  1  0.88947298  0.12004518  0.51113444  1
  H+  H130  1  0.02490159  0.88427392  0.49416256  1
  H+  H131  1  0.37941496  0.85202373  0.82124239  1
  H+  H132  1  0.48848336  0.11812195  0.50797485  1
  H+  H133  1  0.88641822  0.62457427  0.84514328  1
  H+  H134  1  0.11124600  0.63759490  0.16390854  1
  H+  H135  1  0.87223711  0.84418355  1.00067369  1
  H+  H136  1  0.86329821  0.25601229  0.33062810  1
  H+  H137  1  0.35579814  0.63248879  0.01184357  1
  H+  H138  1  0.47872896  0.09185867  0.32958483  1
  H+  H139  1  0.89363805  0.87401145  0.84465392  1
  H+  H140  1  0.96651275  0.72411448  0.06203685  1
  H+  H141  1  0.51491050  0.14026723  0.77759274  1
  H+  H142  1  0.62547317  0.27154717  0.17465912  1
  H+  H143  1  0.29001584  0.38333455  0.84322679  1
  H+  H144  1  0.66052736  0.19711233  0.47166853  1
  H+  H145  1  0.36001209  -0.02577433  0.81728131  1
  H+  H146  1  0.40094984  0.12244932  0.50268330  1
  H+  H147  1  0.58460231  0.57345974  0.95579736  1
  H+  H148  1  0.87159315  0.27709209  0.99243890  1
  H+  H149  1  0.77665425  0.63758734  0.17001151  1
  H+  H150  1  0.61140086  0.71604096  0.18425787  1
  H+  H151  1  0.28035798  0.89018452  0.49568400  1
  H+  H152  1  0.64157888  0.09633740  0.51895789  1
  H+  H153  1  0.64066037  0.27538455  0.99631671  1
  H+  H154  1  0.68555836  0.51309455  0.47450680  1
  H+  H155  1  0.60417627  0.89621763  0.17492094  1
  H+  H156  1  0.38736336  0.10893441  0.82361525  1
  H+  H157  1  0.98701242  0.60776459  0.99160230  1
  H+  H158  1  0.04524742  0.20684448  0.21688087  1
  H+  H159  1  0.10332688  0.89672715  0.00899180  1
  H+  H160  1  0.10837475  0.26126749  0.49783064  1
  H+  H161  1  0.00801325  0.67023796  0.82203773  1
  H+  H162  1  0.13109412  0.12198808  0.98290288  1
  H+  H163  1  0.14310942  0.24169381  0.33588851  1
  H+  H164  1  0.61458558  0.96305043  0.82902305  1
  H+  H165  1  0.89463263  0.62630678  0.18669746  1
  H+  H166  1  0.36967704  0.63670170  0.82636168  1
  H+  H167  1  0.40374565  0.36218510  0.99409600  1
  H+  H168  1  0.88490359  0.05598477  0.96827544  1
  H+  H169  1  0.26703726  0.13365978  -0.00968975  1
  H+  H170  1  0.60853281  0.64082573  0.82510240  1
  H+  H171  1  0.13913172  0.86240819  0.17119736  1
  H+  H172  1  0.36130955  0.63166157  0.66844227  1
  H+  H173  1  0.47736755  0.33555761  0.37825138  1
  H+  H174  1  0.86565997  0.48598667  -0.01207062  1
  H+  H175  1  0.88767673  0.36436486  0.51019016  1
  H+  H176  1  0.26571224  0.62966929  1.01160022  1
  H+  H177  1  0.24430073  0.09960261  0.18341145  1
  H+  H178  1  0.14378609  0.11765481  0.83086253  1
  H+  H179  1  0.89871625  0.66483997  0.34709522  1
  H+  H180  1  0.51172097  0.62464361  0.00074779  1
  H+  H181  1  0.10154649  0.47387522  0.68064496  1
  H+  H182  1  0.72198423  0.86379068  0.65416896  1
  H+  H183  1  0.01553968  0.63628134  0.66432066  1
  H+  H184  1  0.64022044  0.60197428  0.19214972  1
  H+  H185  1  0.36626231  0.42421159  0.11235442  1
  H+  H186  1  0.02309216  0.39503887  0.48129925  1
  H+  H187  1  0.47802096  0.61650340  0.85383755  1
  H+  H188  1  0.13114006  0.77825715  0.65623406  1
  H+  H189  1  0.36716922  0.22466984  0.81874160  1
  H+  H190  1  0.38828898  0.76509721  0.50207785  1
  H+  H191  1  0.63862217  0.36476570  -0.00158126  1
  H+  H192  1  0.37914515  0.28285187  0.64655438  1
  H+  H193  1  0.96184291  0.23342271  0.28610361  1
  H+  H194  1  0.23943667  0.33976176  0.50150505  1
  H+  H195  1  0.62731582  0.27918810  0.50649045  1
  H+  H196  1  0.63328775  0.59858899  0.33489000  1
  H+  H197  1  0.10247267  0.24275120  -0.01013977  1
  H+  H198  1  0.98169147  0.87184736  0.84523498  1
  H+  H199  1  0.98164466  0.62343923  0.18225068  1
  H+  H200  1  0.35789764  0.71994959  0.81835310  1
  H+  H201  1  0.08205577  0.91483210  0.39921466  1
  H+  H202  1  0.14250386  1.02831773  0.65619999  1
  H+  H203  1  0.37172571  0.97661496  0.49558182  1
  H+  H204  1  0.52241190  0.36801895  0.00996127  1
  H+  H205  1  0.75145910  0.61430032  0.98270789  1
  H+  H206  1  0.12462566  0.40435301  0.15634631  1
  H+  H207  1  0.46321700  0.60969027  0.20281050  1
  H+  H208  1  0.64117590  0.51551723  0.17895777  1
  H+  H209  1  0.77053442  0.47679677  0.71580748  1
  H+  H210  1  0.61720989  0.47169501  0.68548350  1
  H+  H211  1  0.83593515  0.11896903  0.35134349  1
  H+  H212  1  0.12256462  0.62305521  0.84445929  1
  H+  H213  1  0.48328024  0.35395146  0.83767107  1
  H+  H214  1  1.02063311  0.90355558  1.01357808  1
  H+  H215  1  1.02862320  0.89564428  0.67567456  1
  H+  H216  1  0.07421920  0.34714792  0.82144997  1
  H+  H217  1  0.66233150  0.57945230  0.77177416  1
  H+  H218  1  0.39703608  0.50828316  0.35323433  1
  H+  H219  1  0.11462004  0.88555749  0.49247900  1
  H+  H220  1  0.36976735  0.11136045  0.14946985  1
  H+  H221  1  0.71265634  0.11772815  0.17788791  1
  H+  H222  1  0.10494661  0.47974348  0.15695787  1
  H+  H223  1  0.47553019  0.12864043  0.66057812  1
  H+  H224  1  0.87096865  0.98812168  0.82282855  1
  H+  H225  1  0.85870932  0.13876236  0.70822538  1
  H+  H226  1  0.52121134  0.62221530  0.35264769  1
  H+  H227  1  0.11785448  0.89583785  0.83169143  1
  H+  H228  1  0.71812185  0.84038547  0.33184524  1
  H+  H229  1  0.61341299  0.37656609  0.67300432  1
  H+  H230  1  0.11721686  0.75817145  0.82055655  1
  H+  H231  1  0.37952168  0.76937011  0.17282752  1
  H+  H232  1  0.82053511  0.43542331  0.74335817  1
  H+  H233  1  0.27213097  0.88235825  0.66895774  1
  H+  H234  1  0.11152259  0.75735340  0.34504672  1
  H+  H235  1  0.61343904  0.88716126  0.01169165  1
  H+  H236  1  0.04921335  0.16949823  0.32494042  1
  H+  H237  1  0.33421871  0.71013073  0.33942359  1
  H+  H238  1  0.96367016  0.36031270  0.83664262  1
  H+  H239  1  0.20641702  0.77649737  0.87629940  1
  H+  H240  1  0.91857863  0.31815598  0.60665240  1
  H+  H241  1  0.90514364  0.02021844  0.33735436  1
  H+  H242  1  0.85479169  0.46801199  0.48531097  1
  H+  H243  1  0.62320792  0.37861444  0.82907167  1
  H+  H244  1  -0.00198682  0.36754050  0.66766589  1
  H+  H245  1  0.23189675  0.51373898  0.89068301  1
  H+  H246  1  0.60816747  0.46611194  0.34520904  1
  H+  H247  1  0.59540199  0.45900350  0.99631367  1
  H+  H248  1  0.08579542  0.66463840  0.06811451  1
  H+  H249  1  0.60293389  0.96485146  0.34142598  1
  H+  H250  1  0.47646869  0.34818039  0.17232844  1
  H+  H251  1  0.14517812  0.77815292  0.50698011  1
  H+  H252  1  0.11928822  0.35668435  0.49181129  1
  H+  H253  1  0.14300292  0.11765799  0.65328981  1
  H+  H254  1  0.37001752  0.89609499  0.99624726  1
  H+  H255  1  0.85199342  0.36410547  0.15334348  1
  H+  H256  1  0.86163120  0.38692659  -0.01142954  1
  H+  H257  1  0.51159599  0.88660892  0.16623736  1
  H+  H258  1  0.39041197  0.23895131  0.31937591  1
  H+  H259  1  0.39425105  0.52983942  0.66774880  1
  H+  H260  1  0.89687079  0.78205070  0.18451875  1
  H+  H261  1  0.11680525  0.63688060  0.00746560  1
  H+  H262  1  0.11423083  0.44785955  0.82881153  1
  H+  H263  1  0.89189766  0.87401638  0.51754574  1
  H+  H264  1  0.13744323  0.11213685  0.32098114  1
  H+  H265  1  0.02858732  0.89029809  0.16727648  1
  H+  H266  1  0.39883722  0.36179140  0.84165554  1
  H+  H267  1  0.76334191  0.14358791  0.00525723  1
  H+  H268  1  0.90973755  0.74590638  0.01979166  1
  H+  H269  1  0.33688845  0.92925129  0.04987930  1
  H+  H270  1  0.86417837  0.39372803  0.82791814  1
  H+  H271  1  0.21721889  0.60737672  0.18255609  1
  H+  H272  1  0.60402449  0.66487834  0.43781154  1
  H+  H273  1  0.87435331  0.74616781  0.67863024  1
  H+  H274  1  0.97867847  0.61804912  0.33140000  1
  H+  H275  1  0.63572640  0.77160175  0.66251200  1
  H+  H276  1  0.72280543  0.35941154  0.50578404  1
  H+  H277  1  0.38718154  0.37163801  0.66464453  1
  H+  H278  1  0.27666706  0.13751124  0.81767447  1
  H+  H279  1  0.81596353  0.17007841  0.09955540  1
  H+  H280  1  0.29083999  0.37989710  0.35678320  1
  H+  H281  1  0.38272427  0.13367194  0.65265274  1
  H+  H282  1  0.39363571  0.11425852  0.97464929  1
  H+  H283  1  0.14687109  0.61815698  0.49921390  1
  H+  H284  1  0.89798559  0.87021731  0.18416689  1
  H+  H285  1  0.72759098  0.61532492  0.68318656  1
  H+  H286  1  1.03332444  0.63838752  0.49141149  1
  H+  H287  1  0.16215195  0.58780770  0.73852076  1
  H+  H288  1  0.07045096  0.41381700  0.06273268  1
  H+  H289  1  0.63254179  0.86188044  0.83835141  1
  H+  H290  1  0.10252285  0.44631230  0.38267584  1
  H+  H291  1  0.40888605  0.28088243  0.22178645  1
  H+  H292  1  0.92108060  0.59129552  0.27104589  1
  H+  H293  1  0.32282975  0.65524209  0.39884494  1
  H+  H294  1  0.92334555  0.83668858  0.60392022  1
  H+  H295  1  0.57752251  0.16781004  0.06230898  1
  H+  H296  1  0.89251295  0.27894527  0.50926486  1
  H+  H297  1  0.40588679  0.82895435  0.23151067  1
  H+  H298  1  0.32050419  0.15915889  0.08103306  1
  H+  H299  1  0.22448331  0.61163849  0.68345280  1
  H+  H300  1  0.86885912  0.77785253  0.51786955  1
  H+  H301  1  0.91698691  0.32161535  0.23424448  1
  H+  H302  1  0.32321698  0.65673744  0.10903617  1
  H+  H303  1  0.42797575  0.58374105  0.60508139  1
  H+  H304  1  0.83490567  0.81757678  0.36807027  1
  H+  H305  1  0.68646438  0.07373991  0.90043928  1
  H+  H306  1  0.57323253  0.89966705  0.42459893  1
  H+  H307  1  0.42475033  0.32741713  0.93213213  1
  H+  H308  1  0.66313706  0.33649538  0.23198856  1
  H+  H309  1  0.28165721  0.40085659  0.68802406  1
  H+  H310  1  0.87075623  0.99530642  0.65568206  1
  H+  H311  1  0.40784289  0.56594665  0.29517297  1
  H+  H312  1  0.67847985  0.08999218  0.58305228  1
  H+  H313  1  0.08126753  0.16151467  0.42793548  1
  H+  H314  1  0.34106781  0.42664787  0.74786947  1
  H+  H315  1  0.92933124  0.14377067  0.25147637  1
  H+  H316  1  0.11896693  0.98471046  0.82820629  1
  H+  H317  1  0.42783593  0.08505237  0.87927345  1
  H+  H318  1  0.36928540  0.36767409  0.57288913  1
  H+  H319  1  0.27284601  0.13853576  0.66311947  1
  H+  H320  1  0.66853215  0.82964865  0.26933545  1
  H+  H321  1  0.38814103  0.33217485  0.38071435  1
  H+  H322  1  0.15949597  0.33333804  0.90858159  1
  H+  H323  1  0.20658154  0.57638202  0.33752968  1
  H+  H324  1  0.33671934  0.66092694  0.73004117  1
  H+  H325  1  0.20319315  0.36064677  0.26985648  1
  H+  H326  1  0.82643689  0.90597552  0.45210879  1
  H+  H327  1  0.87561107  0.48240871  0.34044721  1
  H+  H328  1  0.15940525  0.00441099  0.18779761  1
  H+  H329  1  0.90208607  0.32723289  0.89447590  1
  H+  H330  1  0.91651675  0.83438350  0.93970218  1
  H+  H331  1  0.10233839  0.17984669  0.72416952  1
  H+  H332  1  0.59929853  0.13697202  0.16266464  1
  H+  H333  1  0.66810783  0.56845488  0.27881042  1
  H+  H334  1  0.07289966  0.40158785  0.73165256  1
  H+  H335  1  0.40226450  0.16806887  0.28687358  1
  H+  H336  1  0.92277448  0.10578472  0.60858361  1
  H+  H337  1  0.16844048  0.08793556  0.89262539  1
  H+  H338  1  0.18179655  0.06894546  0.26505362  1
  H+  H339  1  0.91579942  0.57405732  0.54923085  1
  H+  H340  1  0.17329196  0.84329816  0.26330873  1
  H+  H341  1  0.12507498  0.51548923  0.99594647  1
  H+  H342  1  0.82724915  0.40665712  0.42852007  1
  H+  H343  1  0.60828040  0.65261468  0.02984844  1
  H+  H344  1  0.09203058  0.16696385  0.17971575  1
  H+  H345  1  0.17330587  0.38715937  0.32856009  1
  H+  H346  1  0.41975681  0.58983837  0.91366774  1
  H+  H347  1  0.66160946  0.32942873  0.60029148  1
  H+  H348  1  0.65259434  0.07444315  0.27572759  1
  H+  H349  1  0.66689736  0.33859946  0.90243014  1
  H+  H350  1  0.82800845  0.16639494  0.44526629  1
  H+  H351  1  0.57898372  0.67312468  0.73783532  1
  H+  H352  1  0.39857450  0.02883490  0.97759002  1
  H+  H353  1  0.37631290  0.62949305  0.49539659  1
  H+  H354  1  0.16715058  0.57216111  0.93707533  1
  H+  H355  1  0.06287583  0.69668996  0.75517263  1
  H+  H356  1  0.57965850  0.15053969  0.42632786  1
  H+  H357  1  0.15134985  0.56389882  0.23793921  1
  H+  H358  1  0.61952555  0.53775888  0.90493931  1
  H+  H359  1  0.16875305  0.58040976  0.55700505  1
  H+  H360  1  0.85632878  0.10945606  0.16504540  1
  H+  H361  1  0.08726431  0.92624046  0.10633052  1
  H+  H362  1  0.82466386  0.90384142  0.11083657  1
  H+  H363  1  0.33375198  0.91553859  0.40021741  1
  H+  H364  1  0.41619878  0.82659426  0.59801725  1
  H+  H365  1  0.08956789  0.92477995  0.73411497  1
  H+  H366  1  0.92966593  0.59888528  0.89954265  1
  H+  H367  1  0.72647061  0.61638050  0.82680235  1
  H+  H368  1  0.44343141  0.04635944  0.26587191  1
  H+  H369  1  0.33453637  0.17084548  0.72276457  1
  H+  H370  1  0.66501005  0.83693547  0.93343777  1
  H+  H371  1  0.03772137  0.14759629  0.81546297  1
  H+  H372  1  0.16352533  0.84145230  0.94587235  1
  H+  H373  1  0.58520835  0.91937674  0.07123502  1
  H+  H374  1  0.58368911  0.41744306  0.10287474  1
  H+  H375  1  0.33041944  0.39266773  0.42342523  1
  H+  H376  1  0.83611446  0.91938092  0.77012706  1
  H+  H377  1  0.17297996  0.08774789  0.55700601  1
  H+  H378  1  0.84078756  0.68569642  0.77725784  1
  H+  H379  1  0.60374522  0.42325809  0.40821634  1
  H+  H380  1  0.07335456  0.17842731  0.04899045  1
  H+  H381  1  0.58854057  0.40301117  0.74613501  1
  H+  H382  1  0.56532291  0.64165289  0.13706448  1
  H+  H383  1  0.78075688  0.14286379  0.50988869  1
  O2-  O384  1  0.06808184  0.20494835  0.17581805  1
  O2-  O385  1  0.07543073  0.15799748  0.47280697  1
  O2-  O386  1  0.09946243  0.17663382  0.80322171  1
  O2-  O387  1  0.08266606  0.42027790  0.14041133  1
  O2-  O388  1  0.08135375  0.42155067  0.46283720  1
  O2-  O389  1  0.06741250  0.39540509  0.80785654  1
  O2-  O390  1  0.08538515  0.66933348  0.14428023  1
  O2-  O391  1  0.09543684  0.67084795  0.48120313  1
  O2-  O392  1  0.05658484  0.71848476  0.79646006  1
  O2-  O393  1  0.08974357  0.91853921  0.15102962  1
  O2-  O394  1  0.08343968  0.91461447  0.47650233  1
  O2-  O395  1  0.08587216  0.92188278  0.81515572  1
  O2-  O396  1  0.32154226  0.16011533  0.12697646  1
  O2-  O397  1  0.35480125  0.17216723  0.48154616  1
  O2-  O398  1  0.33550537  0.16634287  0.79968805  1
  O2-  O399  1  0.35582288  0.42083530  0.15706324  1
  O2-  O400  1  0.29813397  0.34531580  0.49711410  1
  O2-  O401  1  0.34860108  0.41901227  0.82580075  1
  O2-  O402  1  0.32278856  0.66030335  0.15437112  1
  O2-  O403  1  0.34738976  0.66114456  0.48156912  1
  O2-  O404  1  0.33112124  0.65494641  0.80754230  1
  O2-  O405  1  0.32731729  0.91279239  0.13610844  1
  O2-  O406  1  0.34087512  0.91651521  0.48034460  1
  O2-  O407  1  0.32698326  0.91234092  0.80365105  1
  O2-  O408  1  0.57205717  0.16777184  0.14338304  1
  O2-  O409  1  0.59809134  0.16913266  0.47245524  1
  O2-  O410  1  0.56569147  0.19062097  0.75901360  1
  O2-  O411  1  0.58081794  0.41603930  0.14815158  1
  O2-  O412  1  0.63009488  0.45957453  0.47700049  1
  O2-  O413  1  0.58889407  0.40549589  0.80729453  1
  O2-  O414  1  0.57592310  0.65234002  0.18049344  1
  O2-  O415  1  0.61786074  0.66948128  0.48263230  1
  O2-  O416  1  0.57549259  0.67057487  0.81761659  1
  O2-  O417  1  0.57436633  0.92220326  0.15420675  1
  O2-  O418  1  0.57058302  0.89892011  0.47210332  1
  O2-  O419  1  0.57753295  0.90375341  0.81219971  1
  O2-  O420  1  0.81434828  0.16449673  0.14482171  1
  O2-  O421  1  0.83964249  0.17375566  0.48966213  1
  O2-  O422  1  0.84489230  0.17259861  0.79047652  1
  O2-  O423  1  0.81771525  0.37862716  0.12628696  1
  O2-  O424  1  0.82286128  0.40592002  0.47436635  1
  O2-  O425  1  0.83694098  0.42850343  0.81535808  1
  O2-  O426  1  0.83861246  0.67611218  0.15941779  1
  O2-  O427  1  0.78984563  0.62099807  0.46854370  1
  O2-  O428  1  0.83546311  0.67833703  0.82219594  1
  O2-  O429  1  0.82524155  0.91169508  0.15567168  1
  O2-  O430  1  0.82991831  0.92113461  0.49583116  1
  O2-  O431  1  0.83887942  0.92451138  0.81431859  1
  O2-  O432  1  0.20521219  0.05374458  0.21210486  1
  O2-  O433  1  0.17177866  0.08872970  0.51171314  1
  O2-  O434  1  0.17129323  0.08514618  0.84710472  1
  O2-  O435  1  0.19439279  0.37197711  0.19145959  1
  O2-  O436  1  0.13989369  0.32146637  0.51341956  1
  O2-  O437  1  0.17831331  0.33512367  0.85971016  1
  O2-  O438  1  0.15503216  0.57684131  0.19378786  1
  O2-  O439  1  0.17485000  0.58419105  0.51295377  1
  O2-  O440  1  0.19923375  0.53088240  0.86446887  1
  O2-  O441  1  0.16998566  0.83273035  0.18655748  1
  O2-  O442  1  0.17402318  0.84001783  0.51879033  1
  O2-  O443  1  0.18931878  0.81197608  0.85326057  1
  O2-  O444  1  0.39876647  0.08161150  0.17028762  1
  O2-  O445  1  0.42856118  0.09020668  0.52239914  1
  O2-  O446  1  0.41954602  0.07886950  0.83411278  1
  O2-  O447  1  0.41411271  0.31272787  0.18298961  1
  O2-  O448  1  0.34254489  0.39868768  0.55019984  1
  O2-  O449  1  0.42350238  0.32486394  0.85343513  1
  O2-  O450  1  0.40032354  0.57660995  0.20811350  1
  O2-  O451  1  0.43664478  0.57649133  0.52694296  1
  O2-  O452  1  0.41728291  0.58363584  0.86915209  1
  O2-  O453  1  0.40989255  0.83095047  0.18592035  1
  O2-  O454  1  0.41935697  0.82705349  0.51536356  1
  O2-  O455  1  0.40305751  0.81415791  0.83077352  1
  O2-  O456  1  0.65361768  0.08825263  0.19579684  1
  O2-  O457  1  0.68593576  0.08762849  0.53769118  1
  O2-  O458  1  0.69455073  0.05234018  0.86100527  1
  O2-  O459  1  0.65746460  0.33310743  0.18703070  1
  O2-  O460  1  0.66461887  0.33588253  0.52542605  1
  O2-  O461  1  0.66941707  0.34208640  0.85711129  1
  O2-  O462  1  0.67529907  0.57429324  0.19756210  1
  O2-  O463  1  0.77612411  0.67960579  0.50736310  1
  O2-  O464  1  0.66369387  0.58002194  0.81735183  1
  O2-  O465  1  0.66212965  0.82705573  0.17599842  1
  O2-  O466  1  0.65771473  0.83586198  0.52185198  1
  O2-  O467  1  0.66556055  0.83468918  0.85650662  1
  O2-  O468  1  0.88892261  0.08088238  0.18204012  1
  O2-  O469  1  0.91698156  0.08668297  0.52659149  1
  O2-  O470  1  0.92956790  0.09530376  0.83701087  1
  O2-  O471  1  0.91870333  0.31857929  0.18894320  1
  O2-  O472  1  0.92206508  0.33901381  0.52613478  1
  O2-  O473  1  0.90234519  0.32935834  0.84883964  1
  O2-  O474  1  0.92449655  0.59615279  0.20192491  1
  O2-  O475  1  0.91611825  0.57783609  0.50441097  1
  O2-  O476  1  0.92572509  0.60118515  0.85376481  1
  O2-  O477  1  0.93265889  0.84394044  0.19525249  1
  O2-  O478  1  0.91602316  0.83663517  0.52879939  1
  O2-  O479  1  0.92138764  0.84204708  0.86097713  1
  O2-  O480  1  0.16109879  0.07262966  0.31289728  1
  O2-  O481  1  0.17333521  0.08710878  0.63825369  1
  O2-  O482  1  0.15945265  0.08953087  0.96936956  1
  O2-  O483  1  0.19750422  0.35099842  0.31487890  1
  O2-  O484  1  0.19911220  0.33347278  0.62807030  1
  O2-  O485  1  0.13657183  0.32942505  0.96774089  1
  O2-  O486  1  0.14637098  0.53742631  0.32035406  1
  O2-  O487  1  0.16077535  0.58404493  0.69407974  1
  O2-  O488  1  0.16141659  0.57678459  0.98124062  1
  O2-  O489  1  0.17142751  0.84838996  0.30874169  1
  O2-  O490  1  0.16499102  0.83821232  0.64174855  1
  O2-  O491  1  0.11497693  0.81870120  0.97385380  1
  O2-  O492  1  0.42384604  0.06544196  0.30075001  1
  O2-  O493  1  0.41923200  0.10550160  0.63748068  1
  O2-  O494  1  0.42974300  0.09005580  0.96091099  1
  O2-  O495  1  0.41463600  0.29518040  0.38405221  1
  O2-  O496  1  0.40370354  0.34314889  0.63330863  1
  O2-  O497  1  0.42250417  0.32252966  0.97751191  1
  O2-  O498  1  0.42367174  0.56842611  0.33831326  1
  O2-  O499  1  0.42410841  0.58917722  0.65014192  1
  O2-  O500  1  0.42361696  0.58200580  1.00885922  1
  O2-  O501  1  0.40339409  0.82189050  0.30905951  1
  O2-  O502  1  0.41544355  0.82768752  0.64311536  1
  O2-  O503  1  0.41390188  0.83404676  0.98496999  1
  O2-  O504  1  0.65007554  0.06550141  0.32073384  1
  O2-  O505  1  0.66347385  0.08585353  0.65687927  1
  O2-  O506  1  0.66686420  0.08576216  0.98040910  1
  O2-  O507  1  0.67867752  0.35304392  0.31159226  1
  O2-  O508  1  0.65677466  0.32682530  0.64627284  1
  O2-  O509  1  0.67059968  0.33652844  0.98092499  1
  O2-  O510  1  0.66048285  0.56432320  0.32353321  1
  O2-  O511  1  0.66614255  0.57840818  0.69266570  1
  O2-  O512  1  0.58259509  0.52034164  0.94065635  1
  O2-  O513  1  0.66204807  0.82674817  0.31356014  1
  O2-  O514  1  0.66009517  0.83021289  0.64395695  1
  O2-  O515  1  0.66057514  0.82824110  0.97885121  1
  O2-  O516  1  0.97467040  0.18713638  0.27863966  1
  O2-  O517  1  0.92406193  0.10238484  0.65379502  1
  O2-  O518  1  0.91913371  0.11687641  0.95915102  1
  O2-  O519  1  0.90531990  0.31060445  0.31111142  1
  O2-  O520  1  0.92561038  0.32402353  0.65211099  1
  O2-  O521  1  0.90419517  0.33587692  0.97283296  1
  O2-  O522  1  0.91801729  0.58844697  0.31805405  1
  O2-  O523  1  0.91220168  0.57848653  0.63131338  1
  O2-  O524  1  0.92694757  0.58464188  0.97453297  1
  O2-  O525  1  0.90549347  0.77950076  0.34207796  1
  O2-  O526  1  0.92261292  0.84037536  0.64986980  1
  O2-  O527  1  0.91687053  0.83189510  0.98510469  1
  O2-  O528  1  0.07377768  0.17719680  0.00466024  1
  O2-  O529  1  0.10310047  0.17915189  0.34407398  1
  O2-  O530  1  0.09669141  0.17499772  0.67892758  1
  O2-  O531  1  0.06434000  0.41404286  0.01726353  1
  O2-  O532  1  0.12173230  0.44995371  0.33965639  1
  O2-  O533  1  0.07271976  0.41020911  0.68649658  1
  O2-  O534  1  0.08349413  0.66401359  0.02219139  1
  O2-  O535  1  0.06792515  0.70797182  0.37042705  1
  O2-  O536  1  0.07108134  0.67037384  0.68625704  1
  O2-  O537  1  0.08204951  0.93435452  0.02620980  1
  O2-  O538  1  0.07712005  0.91438057  0.35362750  1
  O2-  O539  1  0.08990919  0.92456288  0.68880844  1
  O2-  O540  1  0.32663260  0.15708055  0.00594352  1
  O2-  O541  1  0.38146681  0.20822663  0.27950946  1
  O2-  O542  1  0.33486200  0.17143928  0.67691004  1
  O2-  O543  1  0.37223909  0.42529581  0.03223468  1
  O2-  O544  1  0.34572846  0.40191320  0.37963686  1
  O2-  O545  1  0.34146825  0.43151499  0.70258150  1
  O2-  O546  1  0.32484922  0.66055256  0.02888183  1
  O2-  O547  1  0.29850032  0.65334194  0.35838486  1
  O2-  O548  1  0.32938534  0.66008468  0.68468718  1
  O2-  O549  1  0.34390774  0.93288681  0.00534028  1
  O2-  O550  1  0.33053953  0.91113785  0.35492642  1
  O2-  O551  1  0.33011525  0.90895197  0.68732917  1
  O2-  O552  1  0.58516065  0.17162964  0.01722499  1
  O2-  O553  1  0.56107819  0.12934981  0.36206762  1
  O2-  O554  1  0.56635842  0.16542170  0.69527028  1
  O2-  O555  1  0.58321102  0.40856777  0.02251898  1
  O2-  O556  1  0.58694792  0.40706182  0.36412424  1
  O2-  O557  1  0.58780656  0.40864616  0.69581394  1
  O2-  O558  1  0.58162049  0.65803106  -0.00713045  1
  O2-  O559  1  0.58546429  0.65857139  0.36280398  1
  O2-  O560  1  0.58592660  0.66939099  0.69293800  1
  O2-  O561  1  0.58734835  0.92130377  0.02619593  1
  O2-  O562  1  0.57370215  0.90306990  0.35650890  1
  O2-  O563  1  0.57860497  0.91405310  0.68919945  1
  O2-  O564  1  0.82458385  0.17967402  0.02089674  1
  O2-  O565  1  0.80757889  0.14978818  0.36563993  1
  O2-  O566  1  0.84143791  0.17997909  0.72361469  1
  O2-  O567  1  0.83121051  0.42190409  -0.00282106  1
  O2-  O568  1  0.84377799  0.42013592  0.35233707  1
  O2-  O569  1  0.80240808  0.44872992  0.70281187  1
  O2-  O570  1  0.90966322  0.69801283  0.04351203  1
  O2-  O571  1  0.90739858  0.71108660  0.37799905  1
  O2-  O572  1  0.84897399  0.68588372  0.69684088  1
  O2-  O573  1  0.80756188  0.88163369  0.03225588  1
  O2-  O574  1  0.79220926  0.83249451  0.38454291  1
  O2-  O575  1  0.83843902  0.93137101  0.64661804  1
