# generated using pymatgen
data_H2O
_symmetry_space_group_name_H-M   'P 1'
_cell_length_a   17.97517975
_cell_length_b   17.97737848
_cell_length_c   21.99138620
_cell_angle_alpha   90.03173406
_cell_angle_beta   90.00413941
_cell_angle_gamma   120.03912156
_symmetry_Int_Tables_number   1
_chemical_formula_structural   H2O
_chemical_formula_sum   'H384 O192'
_cell_volume   6151.93018836
_cell_formula_units_Z   192
loop_
 _symmetry_equiv_pos_site_id
 _symmetry_equiv_pos_as_xyz
  1  'x, y, z'
loop_
 _atom_type_symbol
 _atom_type_oxidation_number
  H+  1.0
  O2-  -2.0
loop_
 _atom_site_type_symbol
 _atom_site_label
 _atom_site_symmetry_multiplicity
 _atom_site_fract_x
 _atom_site_fract_y
 _atom_site_fract_z
 _atom_site_occupancy
  H+  H0  1  0.77512532  0.90597547  0.66940476  1
  H+  H1  1  0.01024938  0.88641267  0.17644978  1
  H+  H2  1  0.37962759  0.50862060  0.33667282  1
  H+  H3  1  0.15018807  0.01329383  0.32079830  1
  H+  H4  1  0.16306808  0.59468429  0.25593736  1
  H+  H5  1  0.48630924  0.00549985  0.80167974  1
  H+  H6  1  0.35823146  0.39830887  0.50277833  1
  H+  H7  1  0.59963358  0.47320996  0.47261191  1
  H+  H8  1  0.09634400  0.59984598  0.67982680  1
  H+  H9  1  0.81945826  0.66545095  0.64727248  1
  H+  H10  1  0.99680748  0.32671446  0.78550502  1
  H+  H11  1  0.07025507  0.40569973  0.44103638  1
  H+  H12  1  0.87762406  0.75514799  0.33407785  1
  H+  H13  1  0.36746904  0.89314620  0.50877749  1
  H+  H14  1  0.37612849  0.11665325  0.84712728  1
  H+  H15  1  0.36051183  0.23074528  0.99982147  1
  H+  H16  1  0.52468405  0.02811697  0.78123341  1
  H+  H17  1  0.64700191  0.24371138  0.16450353  1
  H+  H18  1  0.97117135  0.10891462  0.50997219  1
  H+  H19  1  0.71664799  0.08445992  0.85477402  1
  H+  H20  1  0.62527624  0.60145246  -0.00628575  1
  H+  H21  1  0.77006521  0.63202647  1.01402629  1
  H+  H22  1  0.15936800  0.66252985  0.31826402  1
  H+  H23  1  0.27250768  0.38929536  0.81851844  1
  H+  H24  1  0.37082695  0.81169695  0.16097960  1
  H+  H25  1  0.84951839  0.52206632  0.21385751  1
  H+  H26  1  0.28735921  0.64278895  0.48411818  1
  H+  H27  1  0.83004382  0.65887042  0.07361051  1
  H+  H28  1  0.58492895  0.71032040  0.31116439  1
  H+  H29  1  0.88530608  0.11728801  0.50955999  1
  H+  H30  1  0.63369582  1.01915346  0.17025084  1
  H+  H31  1  1.01373840  0.35442908  0.22440980  1
  H+  H32  1  0.49815874  0.77359925  0.61561031  1
  H+  H33  1  0.96698648  0.84497818  0.33501754  1
  H+  H34  1  0.85830895  0.62348673  0.53857336  1
  H+  H35  1  0.36830840  0.98148030  0.51473676  1
  H+  H36  1  0.62239722  0.59772157  0.31259688  1
  H+  H37  1  0.62648156  0.09007055  0.32722890  1
  H+  H38  1  0.64763115  0.28926880  0.47200869  1
  H+  H39  1  0.88572492  0.80459476  0.66940292  1
  H+  H40  1  0.81320286  -0.04680524  0.76042695  1
  H+  H41  1  0.72459438  0.38041158  0.45231157  1
  H+  H42  1  0.39555446  0.37191777  0.17961222  1
  H+  H43  1  0.86499955  0.96753549  0.01988846  1
  H+  H44  1  0.50926035  0.87341461  0.66999784  1
  H+  H45  1  0.23398910  0.34254749  0.35212452  1
  H+  H46  1  0.45228146  0.60399156  0.18793879  1
  H+  H47  1  0.85596215  0.63219598  0.17296557  1
  H+  H48  1  0.15194706  0.89801747  0.34910697  1
  H+  H49  1  0.63680081  0.01087918  1.01306755  1
  H+  H50  1  0.48275696  0.60983669  0.65585934  1
  H+  H51  1  0.35690287  0.85237208  0.65142784  1
  H+  H52  1  0.26088569  0.88210629  0.17313405  1
  H+  H53  1  0.43156005  1.03582234  0.15629461  1
  H+  H54  1  0.13006775  0.65733622  0.48416126  1
  H+  H55  1  0.34783490  0.46570497  0.17355296  1
  H+  H56  1  0.22458585  0.58982082  0.85689771  1
  H+  H57  1  0.10272718  0.94049661  0.73239323  1
  H+  H58  1  0.63803150  0.76810420  0.98865900  1
  H+  H59  1  0.62667883  0.76709888  0.18442382  1
  H+  H60  1  0.13870873  0.12254787  0.84847185  1
  H+  H61  1  0.01221276  0.35047307  0.35968131  1
  H+  H62  1  0.36354003  0.23155360  0.82929777  1
  H+  H63  1  0.38396946  0.15915474  0.16397886  1
  H+  H64  1  0.25315748  0.10064169  0.49996057  1
  H+  H65  1  -0.01004966  0.62899654  0.47974225  1
  H+  H66  1  0.30497005  0.67340914  0.17259628  1
  H+  H67  1  0.50418194  0.15254443  0.18637030  1
  H+  H68  1  0.89479905  0.36374861  0.71535851  1
  H+  H69  1  0.04789835  0.89810622  0.82606772  1
  H+  H70  1  0.31742248  0.90835745  0.66751607  1
  H+  H71  1  0.23194848  0.86958125  0.50533407  1
  H+  H72  1  0.71126593  0.39111401  0.20260027  1
  H+  H73  1  0.36756197  0.22448214  0.64956376  1
  H+  H74  1  0.10442441  0.35152745  0.36160771  1
  H+  H75  1  0.14318909  0.13087702  0.17494788  1
  H+  H76  1  0.75122998  0.91255219  0.81960035  1
  H+  H77  1  0.00394454  0.62896711  0.01168883  1
  H+  H78  1  0.84533403  0.22563893  0.49390255  1
  H+  H79  1  0.63378928  0.51717256  0.98913683  1
  H+  H80  1  0.85762824  0.72295141  0.16874869  1
  H+  H81  1  0.88390375  0.71761494  0.55936942  1
  H+  H82  1  0.62858172  0.85111221  0.65683428  1
  H+  H83  1  0.89208689  0.85036263  0.80364282  1
  H+  H84  1  0.88699542  1.01765059  0.18246562  1
  H+  H85  1  0.25825680  0.85053977  0.14942546  1
  H+  H86  1  0.61601520  0.28051986  0.82243516  1
  H+  H87  1  0.87526963  0.50097966  0.83812222  1
  H+  H88  1  0.76291128  0.11209122  0.34726567  1
  H+  H89  1  0.37519871  0.76666458  0.31544286  1
  H+  H90  1  0.46841030  0.37807993  0.50769407  1
  H+  H91  1  0.73193763  0.61806633  0.16540925  1
  H+  H92  1  0.59131012  0.15828201  0.78855121  1
  H+  H93  1  0.32923210  0.96290651  0.85199031  1
  H+  H94  1  0.11061732  0.73490185  0.85509539  1
  H+  H95  1  0.13056095  0.34205976  0.80913557  1
  H+  H96  1  0.77939598  0.37156627  0.17288229  1
  H+  H97  1  0.65416399  0.38504974  0.65243024  1
  H+  H98  1  0.91831143  0.07720674  0.27392783  1
  H+  H99  1  0.58270265  0.90926304  -0.03231409  1
  H+  H100  1  0.69874522  0.65200979  0.67734113  1
  H+  H101  1  0.05433769  0.67123083  0.33507515  1
  H+  H102  1  0.85072294  -0.02320190  0.49119787  1
  H+  H103  1  0.38290802  0.10381288  0.33323497  1
  H+  H104  1  0.88055176  0.71010108  0.82423077  1
  H+  H105  1  0.17651261  0.56158066  0.17728509  1
  H+  H106  1  0.61934814  0.73370870  0.47759850  1
  H+  H107  1  0.88394817  0.10402007  0.18170041  1
  H+  H108  1  0.37945730  0.37701513  -0.01146179  1
  H+  H109  1  0.03819407  0.90934216  0.67648083  1
  H+  H110  1  0.88880592  0.10193635  0.33619209  1
  H+  H111  1  0.38906957  0.99552047  0.00709479  1
  H+  H112  1  0.87619698  0.88042919  0.79510327  1
  H+  H113  1  1.02390902  0.88541559  1.00797165  1
  H+  H114  1  0.34730893  0.71651798  0.83307507  1
  H+  H115  1  0.87032884  0.84868657  0.18608725  1
  H+  H116  1  1.01551849  0.78742740  0.87124365  1
  H+  H117  1  0.32990262  0.87518609  0.85476271  1
  H+  H118  1  0.39158531  0.72349608  0.66348757  1
  H+  H119  1  0.13515552  0.75215408  0.48973798  1
  H+  H120  1  0.47393407  0.37055763  0.66237483  1
  H+  H121  1  0.38146885  0.51964406  0.99219771  1
  H+  H122  1  0.76769495  0.89003847  0.16909199  1
  H+  H123  1  1.03961912  0.14650664  1.02833195  1
  H+  H124  1  0.48734386  0.12331021  0.99304237  1
  H+  H125  1  0.40087973  0.63014524  0.49753843  1
  H+  H126  1  0.12338079  0.21727059  0.18226364  1
  H+  H127  1  0.76279351  0.37805418  0.81293757  1
  H+  H128  1  0.85853510  1.00149290  0.67063366  1
  H+  H129  1  0.10514153  0.76080122  0.00821222  1
  H+  H130  1  0.94776600  0.36464080  0.50242838  1
  H+  H131  1  0.45487422  0.85136763  0.85197277  1
  H+  H132  1  0.89754221  0.89756256  0.66986098  1
  H+  H133  1  0.09114810  0.36874100  0.49895384  1
  H+  H134  1  0.88988444  0.25929736  0.18271020  1
  H+  H135  1  0.11634554  0.86598649  1.00084970  1
  H+  H136  1  0.47954088  0.35860422  0.40963041  1
  H+  H137  1  0.14807943  0.74624951  0.69651092  1
  H+  H138  1  0.76245854  0.13153098  0.50045670  1
  H+  H139  1  0.34865834  0.18153447  0.10288073  1
  H+  H140  1  0.91044041  0.35654669  0.17628413  1
  H+  H141  1  0.14631090  0.50072547  0.50783386  1
  H+  H142  1  0.91111292  0.09675961  0.60029531  1
  H+  H143  1  0.07711102  0.39018903  0.28358597  1
  H+  H144  1  0.21457787  0.35716767  0.50200896  1
  H+  H145  1  0.60251929  0.39402473  0.82947205  1
  H+  H146  1  0.51156069  0.63001243  1.00167634  1
  H+  H147  1  0.59711424  0.49747305  0.67985882  1
  H+  H148  1  0.37190731  0.11380028  0.52016730  1
  H+  H149  1  0.00380514  0.15848839  0.68432771  1
  H+  H150  1  0.66337456  0.83485855  0.89784090  1
  H+  H151  1  -0.03180926  0.57579548  0.64949823  1
  H+  H152  1  0.85478925  0.12334768  0.84739905  1
  H+  H153  1  0.50906012  0.37792915  0.24627478  1
  H+  H154  1  0.59162023  0.19386470  0.33914815  1
  H+  H155  1  0.52188158  0.39679137  0.14704621  1
  H+  H156  1  0.77109078  0.12755896  0.16525111  1
  H+  H157  1  0.12560074  0.33502015  0.21900134  1
  H+  H158  1  0.14258427  0.66186146  0.99892178  1
  H+  H159  1  0.22252731  0.72869727  0.96056139  1
  H+  H160  1  0.61028335  0.48829434  0.83156604  1
  H+  H161  1  0.17657348  0.79076859  0.68329727  1
  H+  H162  1  0.11267432  0.22697672  0.83658198  1
  H+  H163  1  0.06996872  0.88958949  0.44460422  1
  H+  H164  1  0.59374672  0.14522038  0.65478524  1
  H+  H165  1  0.90039458  0.11513112  0.02085295  1
  H+  H166  1  0.85547947  0.23324473  0.81359791  1
  H+  H167  1  0.64589795  0.77344550  0.65999396  1
  H+  H168  1  0.61139085  0.40040228  0.14576654  1
  H+  H169  1  0.43279175  0.94515055  0.15850262  1
  H+  H170  1  0.90311033  0.48173889  0.13623748  1
  H+  H171  1  0.23028531  0.11269439  0.00012578  1
  H+  H172  1  0.39561989  0.61386337  0.65804121  1
  H+  H173  1  0.32974137  0.60155626  0.16971844  1
  H+  H174  1  0.85698788  0.96706661  0.33925381  1
  H+  H175  1  0.62893905  0.00281113  0.31972894  1
  H+  H176  1  0.01376642  0.35303184  -0.06312338  1
  H+  H177  1  0.99006210  0.84243380  0.52070039  1
  H+  H178  1  0.12134559  -0.01425787  0.50309122  1
  H+  H179  1  0.13026095  0.23679453  0.03219883  1
  H+  H180  1  0.11677032  0.97495263  0.00497700  1
  H+  H181  1  0.35688984  0.48672935  0.49544975  1
  H+  H182  1  0.10674806  0.20801166  0.49274406  1
  H+  H183  1  0.79072682  0.33483580  0.00222562  1
  H+  H184  1  0.61384423  0.72884625  0.82668681  1
  H+  H185  1  0.86137219  0.62697054  0.33910002  1
  H+  H186  1  0.47853790  0.86137833  0.49989459  1
  H+  H187  1  0.10927932  0.48091897  0.21788251  1
  H+  H188  1  0.54170480  0.31158001  0.01049791  1
  H+  H189  1  0.60323092  0.32502475  0.30026267  1
  H+  H190  1  0.88669957  0.35521511  0.99270488  1
  H+  H191  1  0.32443622  0.14040192  0.44617127  1
  H+  H192  1  0.38360038  0.38245557  0.83019663  1
  H+  H193  1  0.59170807  0.95968201  0.83503062  1
  H+  H194  1  0.86101131  0.40513518  0.44922017  1
  H+  H195  1  0.72543599  0.86871840  0.49704186  1
  H+  H196  1  0.25154381  0.38064998  1.02792430  1
  H+  H197  1  0.52570627  0.63868700  0.82770301  1
  H+  H198  1  0.62652317  0.01730732  0.49785254  1
  H+  H199  1  0.58167841  0.85807563  0.31008172  1
  H+  H200  1  0.87396059  0.24674334  0.35058456  1
  H+  H201  1  0.52037223  0.87822746  0.15222145  1
  H+  H202  1  0.48281331  0.38684784  0.83710847  1
  H+  H203  1  0.77422563  0.88044783  0.01020593  1
  H+  H204  1  0.27016891  0.39143948  0.66652914  1
  H+  H205  1  0.24661727  0.12035778  0.17782472  1
  H+  H206  1  0.18240758  0.83557376  0.85815504  1
  H+  H207  1  0.87163831  0.36082183  0.64539891  1
  H+  H208  1  0.21724969  0.34524615  0.19651389  1
  H+  H209  1  0.87707826  0.60057487  0.99602713  1
  H+  H210  1  0.13293853  0.28106085  0.66018754  1
  H+  H211  1  1.01954287  0.40110299  0.65879145  1
  H+  H212  1  0.53415185  0.64292044  0.47791077  1
  H+  H213  1  0.76916495  0.37148742  0.61059562  1
  H+  H214  1  0.10469217  0.97013811  0.17527453  1
  H+  H215  1  0.33759903  -0.03695316  0.31194653  1
  H+  H216  1  0.69682942  0.10709754  0.65757685  1
  H+  H217  1  0.65039933  0.62074956  0.47994086  1
  H+  H218  1  0.84004874  0.23179430  0.68192637  1
  H+  H219  1  0.62386556  0.14566418  0.16396047  1
  H+  H220  1  0.61824248  0.85421007  0.84100919  1
  H+  H221  1  0.24204446  0.61895875  0.66024317  1
  H+  H222  1  0.28411339  0.13927147  0.34746101  1
  H+  H223  1  0.76974843  0.62073765  0.33237455  1
  H+  H224  1  0.68110519  0.36144729  0.98771615  1
  H+  H225  1  0.16877350  0.37262700  1.06284641  1
  H+  H226  1  0.66092840  0.07194879  0.23275859  1
  H+  H227  1  -0.00611697  0.62723668  0.16561720  1
  H+  H228  1  0.93005853  0.26818117  -0.03970808  1
  H+  H229  1  0.57953539  0.90814658  0.42060141  1
  H+  H230  1  0.37717686  0.38481202  0.36634634  1
  H+  H231  1  0.43138369  0.10486543  0.23972410  1
  H+  H232  1  0.65297390  0.26252352  -0.00999174  1
  H+  H233  1  0.38798627  0.77557155  1.01429966  1
  H+  H234  1  0.36272452  0.47861724  0.66568804  1
  H+  H235  1  0.77242631  0.13737052  0.01825622  1
  H+  H236  1  0.63858061  0.85715550  0.99750195  1
  H+  H237  1  0.37438682  0.22380591  0.36711211  1
  H+  H238  1  0.50947521  0.87855017  0.32789142  1
  H+  H239  1  0.86134945  0.45514900  0.60304160  1
  H+  H240  1  0.45764755  0.10893104  0.83341349  1
  H+  H241  1  0.84210243  0.36234061  0.81398973  1
  H+  H242  1  0.37636928  0.60746389  0.99358257  1
  H+  H243  1  0.93714561  0.84425456  0.57893508  1
  H+  H244  1  0.85055411  0.87649467  0.34414493  1
  H+  H245  1  0.35766996  0.62844884  0.33542511  1
  H+  H246  1  0.46313805  0.36130799  0.97810129  1
  H+  H247  1  0.89896448  0.59730365  0.61771744  1
  H+  H248  1  0.52563462  0.14778225  0.49810017  1
  H+  H249  1  0.63610264  0.28938886  0.65066363  1
  H+  H250  1  0.37844185  0.12825317  0.62194975  1
  H+  H251  1  0.61257107  0.88510484  0.48144621  1
  H+  H252  1  0.09170830  0.86764619  0.29432910  1
  H+  H253  1  0.09687852  0.84887106  0.19961734  1
  H+  H254  1  0.58470610  0.45476302  0.28576772  1
  H+  H255  1  0.87206012  0.12677735  0.65572459  1
  H+  H256  1  0.98191619  0.11753647  0.86296873  1
  H+  H257  1  0.61625837  0.13048894  1.01738286  1
  H+  H258  1  0.27378076  0.65681170  0.01042233  1
  H+  H259  1  0.37191714  0.14753390  1.00439599  1
  H+  H260  1  0.37258207  0.73800065  0.48687338  1
  H+  H261  1  0.14588185  0.46562607  -0.08728701  1
  H+  H262  1  0.60248803  0.02210466  0.66148379  1
  H+  H263  1  0.13950595  0.09639798  0.32894519  1
  H+  H264  1  0.14352111  0.11502195  1.00614668  1
  H+  H265  1  0.38123321  0.36255453  0.66234223  1
  H+  H266  1  0.15035964  0.03952546  0.65581731  1
  H+  H267  1  0.64324783  0.65972644  0.14980452  1
  H+  H268  1  0.38908613  0.52780684  0.83652942  1
  H+  H269  1  0.24406827  0.64254412  0.31567574  1
  H+  H270  1  0.90591006  0.49978235  0.35895102  1
  H+  H271  1  0.66185187  0.83086781  0.55497851  1
  H+  H272  1  0.17399274  0.90865462  0.65444761  1
  H+  H273  1  0.38771247  0.90046425  1.01723536  1
  H+  H274  1  0.15359049  0.40403622  -0.03514378  1
  H+  H275  1  0.60664007  0.13484338  0.49223880  1
  H+  H276  1  0.11587087  0.48610701  0.65950474  1
  H+  H277  1  0.92416644  0.59916903  0.25601904  1
  H+  H278  1  0.07635022  0.71652017  0.17256541  1
  H+  H279  1  0.78196020  0.63599670  0.82178550  1
  H+  H280  1  0.88831606  0.85333261  -0.00367530  1
  H+  H281  1  0.12368748  0.99574551  0.82835582  1
  H+  H282  1  0.63621339  0.53568422  0.15422789  1
  H+  H283  1  0.48349011  0.86138643  1.00918906  1
  H+  H284  1  0.00887643  0.60165474  0.83703745  1
  H+  H285  1  0.12336287  0.08037471  0.50167869  1
  H+  H286  1  0.60889711  0.84993268  0.18161338  1
  H+  H287  1  0.02377691  0.11541324  0.34366663  1
  H+  H288  1  0.82071103  0.91759590  0.43056301  1
  H+  H289  1  0.86427625  0.35415239  0.53757926  1
  H+  H290  1  0.16883796  0.09180331  0.90768876  1
  H+  H291  1  0.65950527  0.32448217  0.88640674  1
  H+  H292  1  0.81822562  0.14314906  0.40961151  1
  H+  H293  1  0.48125838  0.35383911  0.33868073  1
  H+  H294  1  0.08498029  0.43132221  0.09620271  1
  H+  H295  1  0.57916629  0.43282227  0.73326024  1
  H+  H296  1  0.69181417  0.74770891  0.11470108  1
  H+  H297  1  0.94974786  0.80655971  0.90709150  1
  H+  H298  1  0.34368576  0.67097104  0.72773928  1
  H+  H299  1  0.15722315  0.31966388  0.56052916  1
  H+  H300  1  0.41518048  0.58329803  0.89807177  1
  H+  H301  1  0.59275226  0.66231341  0.73651837  1
  H+  H302  1  0.06671702  0.37770935  0.73276137  1
  H+  H303  1  0.55373434  0.18661088  0.73662183  1
  H+  H304  1  0.13427087  0.80822875  0.94117957  1
  H+  H305  1  0.82210729  0.90331330  0.10710830  1
  H+  H306  1  0.71593521  0.60540515  0.51879457  1
  H+  H307  1  0.39588192  0.56525351  0.24818326  1
  H+  H308  1  0.11678674  0.20076075  0.35258484  1
  H+  H309  1  0.87367985  0.49790450  0.45209796  1
  H+  H310  1  0.80836837  0.15554255  0.73002866  1
  H+  H311  1  0.58350151  0.67268220  0.37968034  1
  H+  H312  1  0.10338301  0.16550908  0.11440335  1
  H+  H313  1  0.31633650  0.64798218  0.07146219  1
  H+  H314  1  0.40150185  0.28626766  0.17312396  1
  H+  H315  1  0.93860930  0.57433689  0.53606305  1
  H+  H316  1  0.27381025  0.14533258  0.83694487  1
  H+  H317  1  0.19213762  0.86666754  0.59694867  1
  H+  H318  1  0.56695156  0.14067454  0.40046583  1
  H+  H319  1  0.51134403  0.15259823  0.63832383  1
  H+  H320  1  0.64534310  0.07008623  0.56099180  1
  H+  H321  1  0.88103117  0.59243815  0.83542231  1
  H+  H322  1  0.31354834  0.40237830  0.11637836  1
  H+  H323  1  0.90683672  0.56884693  0.93798008  1
  H+  H324  1  0.16927160  0.07745543  0.58966960  1
  H+  H325  1  0.47858515  0.93190896  0.69907003  1
  H+  H326  1  0.05354987  0.61072954  0.74010440  1
  H+  H327  1  0.66675866  0.07173696  0.95582102  1
  H+  H328  1  0.42840013  0.59770131  0.55761884  1
  H+  H329  1  0.13549483  0.36814195  0.64511680  1
  H+  H330  1  0.33436400  0.41890400  0.41358238  1
  H+  H331  1  0.42420017  0.09177833  0.93335245  1
  H+  H332  1  0.40481876  0.82328278  0.91486948  1
  H+  H333  1  0.41372033  0.35031980  0.56949251  1
  H+  H334  1  0.41242968  0.83651684  0.22881013  1
  H+  H335  1  0.05771417  0.66546616  0.07629806  1
  H+  H336  1  0.90247501  0.81888023  0.24522712  1
  H+  H337  1  0.88199504  0.33748689  0.36375724  1
  H+  H338  1  0.64209926  0.62047573  0.84059063  1
  H+  H339  1  0.13291691  0.86216421  0.50292091  1
  H+  H340  1  0.67205352  0.58894169  0.89913589  1
  H+  H341  1  0.88844810  0.03458150  0.86207415  1
  H+  H342  1  0.36144529  0.63653174  0.82747327  1
  H+  H343  1  0.18685176  0.08644168  0.23987116  1
  H+  H344  1  0.19721409  0.81200974  0.34750001  1
  H+  H345  1  0.06807148  0.16493218  0.78153693  1
  H+  H346  1  0.18605020  0.58510773  0.59979092  1
  H+  H347  1  0.04765466  0.38640592  0.09239013  1
  H+  H348  1  0.58550162  0.89799002  0.09676561  1
  H+  H349  1  0.43590630  0.81841734  0.56406263  1
  H+  H350  1  0.55190338  0.90966930  0.77242843  1
  H+  H351  1  0.18023806  0.59946622  0.91645487  1
  H+  H352  1  0.16955952  0.83423224  0.22865390  1
  H+  H353  1  0.59838222  0.38467164  0.47112808  1
  H+  H354  1  0.27509396  0.13418161  0.64389701  1
  H+  H355  1  0.41037857  0.35154585  0.89979509  1
  H+  H356  1  0.63825420  0.10053501  0.86536587  1
  H+  H357  1  0.56746862  0.39126353  0.05281399  1
  H+  H358  1  0.83512636  0.23573415  0.03204639  1
  H+  H359  1  0.39591168  0.44918177  0.05486077  1
  H+  H360  1  0.17311401  0.30644192  0.29444642  1
  H+  H361  1  0.23664326  0.52881702  0.53526893  1
  H+  H362  1  0.46696714  0.60083354  0.32703446  1
  H+  H363  1  0.33348913  0.42237961  0.75902093  1
  H+  H364  1  0.40007319  0.96573199  0.07961031  1
  H+  H365  1  0.46450680  0.08980956  0.33118713  1
  H+  H366  1  0.88882054  0.76542526  1.00339298  1
  H+  H367  1  0.04029111  0.24146194  0.72645990  1
  H+  H368  1  0.83375752  0.16343280  0.10773074  1
  H+  H369  1  0.07444188  0.14107410  0.43764687  1
  H+  H370  1  0.92830565  0.08811875  0.96053473  1
  H+  H371  1  0.59294363  0.17503345  0.07109797  1
  H+  H372  1  0.90924301  0.30120768  0.86479433  1
  H+  H373  1  0.86650059  0.40120618  0.08961042  1
  H+  H374  1  0.82203971  0.67379251  0.72105331  1
  H+  H375  1  0.11180992  0.69381976  0.39653570  1
  H+  H376  1  0.33612491  0.67166428  0.39187986  1
  H+  H377  1  0.79697489  0.05455013  0.80275815  1
  H+  H378  1  0.09707618  0.59914955  0.84048690  1
  H+  H379  1  0.36213200  0.84942810  0.30869658  1
  H+  H380  1  0.15877764  0.35963635  0.87671830  1
  H+  H381  1  0.57841964  0.66571599  0.05826105  1
  H+  H382  1  0.65996537  0.58032363  0.25300193  1
  H+  H383  1  0.67813838  0.30896243  0.28079836  1
  O2-  O384  1  0.10574206  0.16009365  0.16051081  1
  O2-  O385  1  0.07262837  0.14564895  0.48294723  1
  O2-  O386  1  0.07646146  0.16426345  0.82648709  1
  O2-  O387  1  0.07731935  0.38554456  0.23822527  1
  O2-  O388  1  0.06718946  0.40633859  0.48658013  1
  O2-  O389  1  0.05049772  0.33481217  0.76663009  1
  O2-  O390  1  0.05165308  0.66335590  0.14788765  1
  O2-  O391  1  0.10460548  0.68946231  0.46734042  1
  O2-  O392  1  0.07114927  0.63215197  0.82418594  1
  O2-  O393  1  0.07117973  0.90904112  0.16445115  1
  O2-  O394  1  0.08050057  0.89565035  0.48810368  1
  O2-  O395  1  0.10231220  0.94006964  0.80700702  1
  O2-  O396  1  0.34866071  0.18434100  0.14819306  1
  O2-  O397  1  0.31738023  0.13550232  0.49094439  1
  O2-  O398  1  0.33442142  0.16958022  0.82255849  1
  O2-  O399  1  0.31965294  0.40361619  0.16089685  1
  O2-  O400  1  0.32290050  0.42447140  0.48498837  1
  O2-  O401  1  0.33471601  0.42164822  0.80518259  1
  O2-  O402  1  0.29333303  0.62233197  0.14960590  1
  O2-  O403  1  0.34532787  0.67875885  0.46653406  1
  O2-  O404  1  0.32263317  0.65825588  0.81459837  1
  O2-  O405  1  0.44014064  0.99311943  0.13188575  1
  O2-  O406  1  0.33948652  0.92506611  0.49419688  1
  O2-  O407  1  0.29183660  0.89994283  0.85307835  1
  O2-  O408  1  0.60339870  0.18549632  0.15015144  1
  O2-  O409  1  0.57915258  0.16639946  0.47455886  1
  O2-  O410  1  0.55764018  0.18649968  0.78291636  1
  O2-  O411  1  0.58071196  0.42587541  0.12614876  1
  O2-  O412  1  0.56040554  0.41028848  0.46609601  1
  O2-  O413  1  0.57295178  0.42671485  0.81714427  1
  O2-  O414  1  0.63555128  0.70873778  0.13245600  1
  O2-  O415  1  0.59165163  0.67505882  0.45857025  1
  O2-  O416  1  0.58631247  0.66775160  0.81214011  1
  O2-  O417  1  0.58201347  0.89966841  0.14165668  1
  O2-  O418  1  0.58138936  0.91458550  0.46550538  1
  O2-  O419  1  0.55963302  0.90153510  0.81695363  1
  O2-  O420  1  0.83268615  0.15725086  0.15272377  1
  O2-  O421  1  0.82381004  0.16327041  0.48666302  1
  O2-  O422  1  0.80787290  0.11297995  0.81808210  1
  O2-  O423  1  0.87121494  0.41901048  0.13316841  1
  O2-  O424  1  0.84709375  0.44432614  0.42655140  1
  O2-  O425  1  0.82435419  0.40419167  0.80237854  1
  O2-  O426  1  0.82872842  0.66281345  0.15123258  1
  O2-  O427  1  0.84596867  0.65310469  0.57135583  1
  O2-  O428  1  0.83876143  0.65638809  0.80242656  1
  O2-  O429  1  0.82324456  0.90270447  0.15294624  1
  O2-  O430  1  0.81660188  0.91715889  0.47617514  1
  O2-  O431  1  0.80071786  0.96601159  0.80278053  1
  O2-  O432  1  0.18606023  0.08942818  0.19334475  1
  O2-  O433  1  0.15516038  0.05188559  0.51540557  1
  O2-  O434  1  0.17290082  0.09596929  0.86259454  1
  O2-  O435  1  0.16073908  0.30475377  0.21500224  1
  O2-  O436  1  0.15345200  0.31979725  0.51516212  1
  O2-  O437  1  0.16997374  0.33603622  0.83872946  1
  O2-  O438  1  0.13000527  0.54349452  0.20732024  1
  O2-  O439  1  0.20031601  0.55278316  0.52427875  1
  O2-  O440  1  0.17062173  0.56044498  0.88146913  1
  O2-  O441  1  0.10731640  0.80902687  0.22700233  1
  O2-  O442  1  0.17011989  0.83241623  0.51723876  1
  O2-  O443  1  0.12374478  0.79144608  0.87292807  1
  O2-  O444  1  0.44118402  0.11891636  0.19485376  1
  O2-  O445  1  0.41983813  0.09803000  0.53736742  1
  O2-  O446  1  0.40698413  0.08447429  0.86023584  1
  O2-  O447  1  0.43546882  0.34902520  0.18426917  1
  O2-  O448  1  0.41046942  0.35894328  0.52514049  1
  O2-  O449  1  0.41762917  0.35554312  0.85065081  1
  O2-  O450  1  0.39308154  0.56650892  0.20094029  1
  O2-  O451  1  0.42656890  0.59545309  0.51236614  1
  O2-  O452  1  0.42095717  0.58751811  0.85270018  1
  O2-  O453  1  0.42300921  0.85032993  0.18307217  1
  O2-  O454  1  0.42183153  0.82824019  0.52069949  1
  O2-  O455  1  0.39631897  0.81993445  0.87015562  1
  O2-  O456  1  0.66247646  0.07794960  0.18695435  1
  O2-  O457  1  0.65445057  0.07623017  0.51608910  1
  O2-  O458  1  0.65907088  0.06145372  0.87558904  1
  O2-  O459  1  0.72252679  0.34445015  0.19469590  1
  O2-  O460  1  0.67246264  0.35166439  0.47760177  1
  O2-  O461  1  0.65178687  0.33676005  0.84381994  1
  O2-  O462  1  0.66720149  0.59318725  0.17353206  1
  O2-  O463  1  0.67320193  0.58127505  0.48629646  1
  O2-  O464  1  0.67114171  0.58797230  0.85389244  1
  O2-  O465  1  0.63413979  0.81913923  0.20882948  1
  O2-  O466  1  0.66107198  0.83314891  0.51029891  1
  O2-  O467  1  0.65738543  0.83190895  0.85259731  1
  O2-  O468  1  0.91493645  0.07621158  0.19919118  1
  O2-  O469  1  0.91156809  0.08462066  0.52705118  1
  O2-  O470  1  0.92364828  0.09017809  0.88319847  1
  O2-  O471  1  0.92329045  0.31812456  0.20012268  1
  O2-  O472  1  0.88437526  0.33706016  0.50045458  1
  O2-  O473  1  0.89335891  0.29512755  0.82066415  1
  O2-  O474  1  0.89542740  0.58081841  0.20686276  1
  O2-  O475  1  0.93045967  0.58867289  0.49391523  1
  O2-  O476  1  0.90586203  0.56043950  0.85603036  1
  O2-  O477  1  0.90211559  0.81953636  0.19924897  1
  O2-  O478  1  0.93148586  0.81143574  0.54162675  1
  O2-  O479  1  0.96467833  0.79442769  0.86632031  1
  O2-  O480  1  0.17817334  0.07605459  0.31134239  1
  O2-  O481  1  0.18021134  0.09530717  0.63337127  1
  O2-  O482  1  0.16895570  0.08266794  0.98701307  1
  O2-  O483  1  0.17207924  0.30704760  0.33961035  1
  O2-  O484  1  0.16695388  0.33625696  0.63764719  1
  O2-  O485  1  0.18557245  0.35196289  1.02729884  1
  O2-  O486  1  0.19498229  0.64218899  0.29248929  1
  O2-  O487  1  0.18129886  0.58954204  0.64432799  1
  O2-  O488  1  0.19522816  0.66989443  0.97586530  1
  O2-  O489  1  0.23751676  0.87466664  0.35518708  1
  O2-  O490  1  0.21284575  0.88891144  0.63852866  1
  O2-  O491  1  0.14036112  0.82007149  0.98743741  1
  O2-  O492  1  0.40660354  0.07065906  0.31173795  1
  O2-  O493  1  0.41723461  0.09694114  0.60441292  1
  O2-  O494  1  0.42598026  0.09202308  0.97968238  1
  O2-  O495  1  0.44035780  0.33537109  0.37358222  1
  O2-  O496  1  0.41409559  0.33558234  0.64674519  1
  O2-  O497  1  0.40383334  0.34064843  0.96327583  1
  O2-  O498  1  0.40317125  0.56717219  0.31713408  1
  O2-  O499  1  0.42408651  0.58330643  0.63881466  1
  O2-  O500  1  0.40893128  0.58084554  0.97645272  1
  O2-  O501  1  0.40093040  0.82632195  0.29867057  1
  O2-  O502  1  0.46230185  0.79652953  0.62944587  1
  O2-  O503  1  0.41884115  0.83580677  0.99874738  1
  O2-  O504  1  0.66090706  0.06569971  0.30917347  1
  O2-  O505  1  0.63820503  0.07847202  0.63999079  1
  O2-  O506  1  0.66739549  0.07476461  1.00097125  1
  O2-  O507  1  0.63492012  0.29569983  0.31231216  1
  O2-  O508  1  0.68221704  0.35056494  0.64867904  1
  O2-  O509  1  0.69330509  0.31901310  0.96951397  1
  O2-  O510  1  0.64978669  0.56513697  0.29680100  1
  O2-  O511  1  0.63421235  0.61479989  0.67113661  1
  O2-  O512  1  0.66324462  0.57848961  0.97983283  1
  O2-  O513  1  0.57629685  0.78268440  0.26295383  1
  O2-  O514  1  0.66807348  0.83224445  0.64303976  1
  O2-  O515  1  0.67195290  0.83034987  0.97892056  1
  O2-  O516  1  0.92228179  0.07599979  0.31971092  1
  O2-  O517  1  0.90820935  0.10067724  0.64626344  1
  O2-  O518  1  0.93128180  0.08636174  1.00610921  1
  O2-  O519  1  0.91159217  0.31034362  0.34544140  1
  O2-  O520  1  0.90140382  0.34134632  0.67645899  1
  O2-  O521  1  0.94907785  0.32187519  0.93794862  1
  O2-  O522  1  0.94814058  0.60725505  0.31224972  1
  O2-  O523  1  0.92421704  0.55975138  0.61604600  1
  O2-  O524  1  0.90963273  0.57211306  0.98310750  1
  O2-  O525  1  0.90756550  0.81770462  0.32046716  1
  O2-  O526  1  0.92715664  0.86518224  0.65935409  1
  O2-  O527  1  0.92099497  0.82431995  0.98507942  1
  O2-  O528  1  0.10081470  0.17425917  0.04244631  1
  O2-  O529  1  0.08353162  0.13721504  0.36008620  1
  O2-  O530  1  0.05513451  0.19958108  0.70888791  1
  O2-  O531  1  0.12288030  0.40491969  -0.07217397  1
  O2-  O532  1  0.07693436  0.38756652  0.36383417  1
  O2-  O533  1  0.08157587  0.42180816  0.66457298  1
  O2-  O534  1  0.06345192  0.66769322  0.02996318  1
  O2-  O535  1  0.11556027  0.70098366  0.35023610  1
  O2-  O536  1  0.04139353  0.58833993  0.69805436  1
  O2-  O537  1  0.08653267  0.91368691  0.01862474  1
  O2-  O538  1  0.10262662  0.90177979  0.33211211  1
  O2-  O539  1  0.10027319  0.93908013  0.68665707  1
  O2-  O540  1  0.34021855  0.17538665  0.02139580  1
  O2-  O541  1  0.34095459  0.15943074  0.36678153  1
  O2-  O542  1  0.34067932  0.16097924  0.65279942  1
  O2-  O543  1  0.35165662  0.42392567  0.02360388  1
  O2-  O544  1  0.33993512  0.41159698  0.36806994  1
  O2-  O545  1  0.32945007  0.42012587  0.68435888  1
  O2-  O546  1  0.32822906  0.66364189  0.02778898  1
  O2-  O547  1  0.33262478  0.66559796  0.34609503  1
  O2-  O548  1  0.34510017  0.66476322  0.68312795  1
  O2-  O549  1  0.36955635  0.94259827  0.03385539  1
  O2-  O550  1  0.29916189  0.89891712  0.30480280  1
  O2-  O551  1  0.36574616  0.89891210  0.67856151  1
  O2-  O552  1  0.59103760  0.16844921  0.02573038  1
  O2-  O553  1  0.56513706  0.13357272  0.35492500  1
  O2-  O554  1  0.56584652  0.18004564  0.66350327  1
  O2-  O555  1  0.56311718  0.37335286  0.00912016  1
  O2-  O556  1  0.55218698  0.39103465  0.27869075  1
  O2-  O557  1  0.57981788  0.43707325  0.68833138  1
  O2-  O558  1  0.57383108  0.65618750  0.01386106  1
  O2-  O559  1  0.57118728  0.65759001  0.33545059  1
  O2-  O560  1  0.59546657  0.66630229  0.69021280  1
  O2-  O561  1  0.58431209  0.90632967  0.01205389  1
  O2-  O562  1  0.57038310  0.89742450  0.33705292  1
  O2-  O563  1  0.53163165  0.92762392  0.69852098  1
  O2-  O564  1  0.83395773  0.17978754  0.02895125  1
  O2-  O565  1  0.82224606  0.14119239  0.36429382  1
  O2-  O566  1  0.80826651  0.16732226  0.68648921  1
  O2-  O567  1  0.84152980  0.33904087  0.02383844  1
  O2-  O568  1  0.93350564  0.51870703  0.31833348  1
  O2-  O569  1  0.83002149  0.39117174  0.59734034  1
  O2-  O570  1  0.83055505  0.66046371  0.02803360  1
  O2-  O571  1  0.82727520  0.65433473  0.35040729  1
  O2-  O572  1  0.80470944  0.69015018  0.68258990  1
  O2-  O573  1  0.83189850  0.90558200  0.03054213  1
  O2-  O574  1  0.81990561  0.90752245  0.35457557  1
  O2-  O575  1  0.83181127  0.94211196  0.68902111  1
