# generated using pymatgen
data_H2O
_symmetry_space_group_name_H-M   'P 1'
_cell_length_a   17.98526862
_cell_length_b   17.98494821
_cell_length_c   21.99033914
_cell_angle_alpha   89.99677846
_cell_angle_beta   90.00135936
_cell_angle_gamma   120.01196896
_symmetry_Int_Tables_number   1
_chemical_formula_structural   H2O
_chemical_formula_sum   'H384 O192'
_cell_volume   6159.36990725
_cell_formula_units_Z   192
loop_
 _symmetry_equiv_pos_site_id
 _symmetry_equiv_pos_as_xyz
  1  'x, y, z'
loop_
 _atom_type_symbol
 _atom_type_oxidation_number
  H+  1.0
  O2-  -2.0
loop_
 _atom_site_type_symbol
 _atom_site_label
 _atom_site_symmetry_multiplicity
 _atom_site_fract_x
 _atom_site_fract_y
 _atom_site_fract_z
 _atom_site_occupancy
  H+  H0  1  0.86040650  0.71447266  0.99984618  1
  H+  H1  1  0.97796986  0.85616395  0.84144697  1
  H+  H2  1  0.22800437  0.42658181  0.20722633  1
  H+  H3  1  0.85988054  0.47221365  0.00470879  1
  H+  H4  1  0.85971109  0.49175288  0.82295015  1
  H+  H5  1  0.47887732  0.60085509  0.16953239  1
  H+  H6  1  0.62469915  0.62556379  0.66660814  1
  H+  H7  1  0.09496198  0.98593974  0.15445550  1
  H+  H8  1  0.61358906  0.48603555  0.32622958  1
  H+  H9  1  0.12324020  0.27627947  0.98660459  1
  H+  H10  1  0.21147038  0.12204635  0.16070365  1
  H+  H11  1  0.39968091  0.77381686  0.83052094  1
  H+  H12  1  0.91424125  0.06428101  0.59753403  1
  H+  H13  1  0.86691581  0.13735713  0.66296257  1
  H+  H14  1  0.01272147  0.62916915  0.00696316  1
  H+  H15  1  0.13190272  0.02237701  0.83870405  1
  H+  H16  1  0.35226095  0.86943674  0.82908966  1
  H+  H17  1  0.96860288  0.36177012  0.99274093  1
  H+  H18  1  0.90094189  0.15174224  0.85965807  1
  H+  H19  1  0.62247683  0.23471465  0.82608656  1
  H+  H20  1  0.15983409  0.08052551  0.92868811  1
  H+  H21  1  0.89035575  0.62405945  0.50546698  1
  H+  H22  1  0.64835515  0.89464875  0.46032358  1
  H+  H23  1  0.27555224  0.79958722  0.05133773  1
  H+  H24  1  0.10970761  0.73453495  0.67341978  1
  H+  H25  1  0.61089597  0.71920759  0.81875488  1
  H+  H26  1  0.96470262  0.86018709  0.17279242  1
  H+  H27  1  0.63527250  0.37263026  0.83278354  1
  H+  H28  1  0.65361959  0.35972048  0.49589924  1
  H+  H29  1  0.45831786  0.59002240  0.49151160  1
  H+  H30  1  0.34378723  0.14490851  0.15029486  1
  H+  H31  1  0.12019255  0.90270523  0.68002147  1
  H+  H32  1  0.91965612  0.15249072  0.16599005  1
  H+  H33  1  0.11710254  0.39248459  0.15935799  1
  H+  H34  1  0.93574104  0.07510182  0.24316369  1
  H+  H35  1  1.01956248  0.88423114  1.00399132  1
  H+  H36  1  0.72545770  0.35771509  0.17151643  1
  H+  H37  1  0.63363373  0.52237146  0.83625690  1
  H+  H38  1  0.73535279  0.10238735  0.66400767  1
  H+  H39  1  0.18059788  0.12697849  0.31621523  1
  H+  H40  1  0.69476873  0.05723916  0.13267713  1
  H+  H41  1  0.11034822  0.88071481  0.48939710  1
  H+  H42  1  0.79775042  0.39996671  0.47555165  1
  H+  H43  1  0.75345443  0.85888828  0.01702098  1
  H+  H44  1  0.78676173  0.16615711  0.85535571  1
  H+  H45  1  0.34398019  0.37533307  0.49790205  1
  H+  H46  1  0.88401590  0.85365126  -0.00746895  1
  H+  H47  1  0.89759301  0.87966690  0.51621909  1
  H+  H48  1  0.63268588  0.27461923  0.17023911  1
  H+  H49  1  0.08635749  0.92256821  0.77156290  1
  H+  H50  1  0.72907200  0.86177152  0.84221830  1
  H+  H51  1  0.11376506  0.23826853  0.83221498  1
  H+  H52  1  0.36147609  0.72651953  0.66587425  1
  H+  H53  1  0.37029895  0.47490182  0.14822417  1
  H+  H54  1  0.63229876  0.85243294  0.99500071  1
  H+  H55  1  0.14401770  0.37574457  0.66137889  1
  H+  H56  1  0.32237810  0.13160992  0.34767114  1
  H+  H57  1  0.68202215  0.24651617  0.65391217  1
  H+  H58  1  0.24050205  0.84907993  0.01261175  1
  H+  H59  1  0.17424786  0.07593580  0.55120574  1
  H+  H60  1  0.46078438  0.13159581  0.16067733  1
  H+  H61  1  0.27840106  0.54279804  0.39478391  1
  H+  H62  1  -0.00688550  0.14190427  0.84568680  1
  H+  H63  1  0.35550756  0.45129246  0.33721263  1
  H+  H64  1  0.26658113  0.11931348  -0.00779661  1
  H+  H65  1  0.88761017  0.76597611  0.84083966  1
  H+  H66  1  0.68000138  0.80079804  0.66371241  1
  H+  H67  1  0.39609121  0.83522817  0.17951111  1
  H+  H68  1  0.12608098  0.60785189  0.99976636  1
  H+  H69  1  0.60840856  0.21809955  0.47995775  1
  H+  H70  1  0.36921190  0.04469350  0.15730815  1
  H+  H71  1  0.13137295  0.11199405  0.83773460  1
  H+  H72  1  0.00458334  0.13682984  0.67332050  1
  H+  H73  1  0.53305092  0.89422833  0.83073650  1
  H+  H74  1  0.60037226  0.06371678  0.24819640  1
  H+  H75  1  0.52022852  0.90732518  0.49562573  1
  H+  H76  1  0.51754752  0.90340814  0.34075067  1
  H+  H77  1  0.26315831  0.62780062  0.00699354  1
  H+  H78  1  0.47135766  0.10385220  0.50437900  1
  H+  H79  1  0.40323714  0.31636171  0.03276536  1
  H+  H80  1  0.39326051  0.78667724  0.50482285  1
  H+  H81  1  0.88429238  0.90266401  0.68625110  1
  H+  H82  1  0.73694474  0.89724385  0.46154885  1
  H+  H83  1  0.76072746  0.39487729  0.82232447  1
  H+  H84  1  0.38987680  0.52597120  0.83977475  1
  H+  H85  1  0.38200825  0.27300365  0.84445632  1
  H+  H86  1  0.86443953  0.23432347  0.01030290  1
  H+  H87  1  0.86511548  0.22461462  0.66386111  1
  H+  H88  1  0.71607037  0.17899643  0.55326281  1
  H+  H89  1  0.51870890  0.63513674  1.00597251  1
  H+  H90  1  0.63967976  0.36075506  0.98943874  1
  H+  H91  1  0.86897152  0.46917367  0.16637243  1
  H+  H92  1  0.87343192  0.85125453  0.18370401  1
  H+  H93  1  0.90912634  0.37526625  0.66277192  1
  H+  H94  1  -0.01280506  0.60787890  0.28802994  1
  H+  H95  1  0.10116958  0.72196518  0.82780504  1
  H+  H96  1  0.89213354  0.78120523  0.66546968  1
  H+  H97  1  0.61758366  0.96352595  0.67868687  1
  H+  H98  1  0.23478928  0.86269310  0.49408677  1
  H+  H99  1  0.40370306  0.28050447  0.66492003  1
  H+  H100  1  0.86328838  0.88156622  0.84128878  1
  H+  H101  1  0.88187947  0.10802158  1.00122552  1
  H+  H102  1  0.47954406  0.82870718  0.17930754  1
  H+  H103  1  0.10909997  0.59859897  0.84591850  1
  H+  H104  1  0.65058227  0.03385838  0.83968826  1
  H+  H105  1  0.71453634  0.52910769  0.55885769  1
  H+  H106  1  1.02792435  0.39468019  0.15604132  1
  H+  H107  1  0.88795597  0.60230425  0.20112429  1
  H+  H108  1  0.34381499  0.58659407  0.34203735  1
  H+  H109  1  0.09937739  0.73369121  0.15677742  1
  H+  H110  1  0.39238909  0.86830810  0.32865398  1
  H+  H111  1  0.10708305  0.97888645  0.33553546  1
  H+  H112  1  0.38794135  0.34291592  0.33301958  1
  H+  H113  1  0.16084460  0.55093003  0.24532724  1
  H+  H114  1  0.79453996  0.81999074  0.06011056  1
  H+  H115  1  0.77986240  0.64680139  0.50809856  1
  H+  H116  1  -0.03258928  0.60984638  0.83343821  1
  H+  H117  1  0.71486482  0.84664701  0.19190002  1
  H+  H118  1  -0.02890744  0.61765535  0.65882321  1
  H+  H119  1  0.21957639  0.33299252  0.32612351  1
  H+  H120  1  0.13939421  0.50638345  0.67754850  1
  H+  H121  1  0.23304506  0.87223673  0.66880221  1
  H+  H122  1  0.63246611  1.00960827  -0.00202450  1
  H+  H123  1  0.67674027  0.33877314  0.42996478  1
  H+  H124  1  0.38724186  0.59830301  0.16876653  1
  H+  H125  1  0.36049277  0.97723489  0.48577517  1
  H+  H126  1  0.38895742  0.27736416  0.15097322  1
  H+  H127  1  0.39998576  0.37000189  0.15030280  1
  H+  H128  1  0.60932488  0.99844313  0.49825957  1
  H+  H129  1  0.10857009  0.97411823  0.00274275  1
  H+  H130  1  0.28311200  0.38548546  0.14726172  1
  H+  H131  1  0.42402279  0.84317460  0.60332664  1
  H+  H132  1  0.11816030  0.37026962  -0.01113982  1
  H+  H133  1  0.23290968  0.11002009  0.49292889  1
  H+  H134  1  0.46028965  0.60247337  0.66063260  1
  H+  H135  1  0.27480937  0.13811362  0.82814275  1
  H+  H136  1  0.67126655  0.57774117  0.58904958  1
  H+  H137  1  0.09864743  0.11012837  0.47496411  1
  H+  H138  1  0.53405892  0.38804629  0.14515868  1
  H+  H139  1  0.60833438  0.60834526  0.32548925  1
  H+  H140  1  0.88575364  0.22943884  0.30972590  1
  H+  H141  1  0.74534915  0.12896822  0.50758157  1
  H+  H142  1  0.45681862  0.36746831  0.50886086  1
  H+  H143  1  0.61792741  0.47500616  -0.00035112  1
  H+  H144  1  0.27458696  0.65212160  0.49360314  1
  H+  H145  1  0.52267398  0.12545705  0.00757623  1
  H+  H146  1  0.61532840  0.35250364  0.67134276  1
  H+  H147  1  0.57968584  0.94594022  0.40537353  1
  H+  H148  1  0.04670077  0.14546290  0.39205675  1
  H+  H149  1  0.13356315  0.36557860  0.83961711  1
  H+  H150  1  0.66556209  0.83676553  0.36306621  1
  H+  H151  1  0.42785045  0.11031182  0.31869995  1
  H+  H152  1  0.16352327  0.59425766  0.59538961  1
  H+  H153  1  0.19188763  0.48430275  0.72294002  1
  H+  H154  1  0.65176739  0.86543561  0.69173498  1
  H+  H155  1  0.35306145  0.38332126  0.83809594  1
  H+  H156  1  0.89322214  1.02258603  0.66464242  1
  H+  H157  1  0.49251026  0.36010174  0.99920252  1
  H+  H158  1  0.88675059  0.02245786  0.99736005  1
  H+  H159  1  0.62224887  0.14576324  0.83180777  1
  H+  H160  1  0.36276244  0.19959143  -0.00933083  1
  H+  H161  1  0.26106573  0.36321152  0.67987958  1
  H+  H162  1  0.22912698  0.37021216  0.84307808  1
  H+  H163  1  0.36351016  0.22609446  0.49993076  1
  H+  H164  1  0.61051238  0.70146140  0.33987149  1
  H+  H165  1  0.60741115  0.85406790  0.17153758  1
  H+  H166  1  0.38998069  0.10338575  0.66303104  1
  H+  H167  1  0.86761612  0.47823052  0.67096219  1
  H+  H168  1  0.38375202  0.99851052  -0.00435850  1
  H+  H169  1  0.72233379  0.09752626  0.99466350  1
  H+  H170  1  0.16977483  0.12626258  0.63677103  1
  H+  H171  1  0.47900676  0.86189682  0.66478551  1
  H+  H172  1  0.62368550  0.38844327  0.15247517  1
  H+  H173  1  0.79333438  0.56065835  0.37363212  1
  H+  H174  1  0.02981478  0.89991652  0.67714047  1
  H+  H175  1  0.85276911  0.63877840  0.67157756  1
  H+  H176  1  0.77313786  0.20386772  0.18060072  1
  H+  H177  1  0.13924887  0.08390562  0.25337809  1
  H+  H178  1  0.87665153  0.47012688  0.31817833  1
  H+  H179  1  0.59859342  0.47836654  0.49905040  1
  H+  H180  1  0.64773459  0.39268704  0.65517237  1
  H+  H181  1  0.22982407  0.59672609  0.18270152  1
  H+  H182  1  0.37995083  0.40643841  -0.00949341  1
  H+  H183  1  0.38969479  0.53286796  0.98604541  1
  H+  H184  1  0.13510548  0.62198388  0.49579300  1
  H+  H185  1  0.13359358  0.50704854  0.17372613  1
  H+  H186  1  0.11829400  -0.02648548  0.48787391  1
  H+  H187  1  0.11934204  0.25430711  0.32166017  1
  H+  H188  1  0.62633578  0.12442898  0.68212218  1
  H+  H189  1  0.62956499  0.76169214  0.99472526  1
  H+  H190  1  0.60848639  0.70883222  0.16632306  1
  H+  H191  1  0.87869448  0.89481685  0.32926227  1
  H+  H192  1  0.84062580  0.97075306  0.18420884  1
  H+  H193  1  0.77863779  0.18648192  0.21028544  1
  H+  H194  1  0.89518099  0.36690484  0.16456734  1
  H+  H195  1  0.48269871  0.61177567  0.83515646  1
  H+  H196  1  0.79747723  0.37546784  0.66627223  1
  H+  H197  1  0.61918448  0.00259532  0.33993705  1
  H+  H198  1  0.05172162  0.11572795  0.32555016  1
  H+  H199  1  0.89337422  0.53549342  0.49976904  1
  H+  H200  1  0.79736400  0.90404867  0.69902340  1
  H+  H201  1  -0.00261352  0.39189242  0.49859970  1
  H+  H202  1  0.64170619  0.52127696  0.16840185  1
  H+  H203  1  0.52490410  0.38828868  0.83121628  1
  H+  H204  1  0.38787379  0.87230016  0.50366782  1
  H+  H205  1  0.63725417  0.27055638  0.98754603  1
  H+  H206  1  0.35746289  0.88073562  0.67642362  1
  H+  H207  1  0.47749472  0.38260431  0.67062289  1
  H+  H208  1  0.35810989  -0.02944908  0.67512359  1
  H+  H209  1  0.42165282  0.59703536  0.92959838  1
  H+  H210  1  0.12263909  0.40380502  0.48436632  1
  H+  H211  1  0.38205339  0.75938431  0.99350886  1
  H+  H212  1  0.51822595  0.87314764  1.00752235  1
  H+  H213  1  0.37804726  0.64433335  0.81776291  1
  H+  H214  1  0.14106133  0.87026259  0.32426286  1
  H+  H215  1  0.20145053  0.87552975  0.16706400  1
  H+  H216  1  0.61069035  0.75571443  0.52187100  1
  H+  H217  1  0.38513914  0.10902515  0.50718004  1
  H+  H218  1  0.77147627  0.38213898  1.00563917  1
  H+  H219  1  0.53726858  0.49426213  0.46093445  1
  H+  H220  1  0.38250321  0.61271311  0.49979049  1
  H+  H221  1  0.20306535  0.56082131  0.33259727  1
  H+  H222  1  0.62441287  0.53815722  0.67532107  1
  H+  H223  1  0.86507901  0.73902579  0.49989866  1
  H+  H224  1  0.63077913  0.60690033  0.98958531  1
  H+  H225  1  0.87731196  0.60382739  0.99084617  1
  H+  H226  1  0.87671188  0.60984566  0.83527441  1
  H+  H227  1  0.61293384  0.13475213  0.49177782  1
  H+  H228  1  0.29357704  0.13963955  0.67322731  1
  H+  H229  1  0.04458701  0.20630573  0.13724958  1
  H+  H230  1  0.11773345  0.76214325  0.99536858  1
  H+  H231  1  0.37608497  0.08324885  0.99707555  1
  H+  H232  1  -0.00814874  0.36621387  0.65938892  1
  H+  H233  1  0.65277495  0.13105392  0.32921379  1
  H+  H234  1  0.35556667  0.70082638  0.16444804  1
  H+  H235  1  0.86580244  0.10026127  0.25109580  1
  H+  H236  1  0.77813739  0.61969025  0.18401390  1
  H+  H237  1  0.36834992  0.14613601  0.83377541  1
  H+  H238  1  1.02786395  0.14448305  1.00437938  1
  H+  H239  1  1.00314807  0.09202270  0.48130871  1
  H+  H240  1  0.10561204  0.72355518  0.46772261  1
  H+  H241  1  0.39699047  0.23070693  0.34567527  1
  H+  H242  1  0.57851751  0.65709594  0.06609911  1
  H+  H243  1  0.86646393  0.70833717  0.18690197  1
  H+  H244  1  0.10401763  0.72906109  0.32086096  1
  H+  H245  1  0.61463739  0.62312108  0.16051355  1
  H+  H246  1  0.35676657  0.63395102  0.66210717  1
  H+  H247  1  0.33672648  0.91623339  0.17111346  1
  H+  H248  1  0.13914771  0.11619347  -0.01079194  1
  H+  H249  1  0.10628410  0.47972047  1.00300169  1
  H+  H250  1  0.87826132  0.36040565  0.99489614  1
  H+  H251  1  0.41266000  0.56345476  0.26433734  1
  H+  H252  1  1.01777152  0.63791898  0.48015618  1
  H+  H253  1  0.73747054  0.37770182  0.34668236  1
  H+  H254  1  0.17225006  0.33735143  0.24090207  1
  H+  H255  1  0.14619778  0.02966240  0.65534932  1
  H+  H256  1  0.85536502  0.94758883  0.37595367  1
  H+  H257  1  0.91741148  0.82783820  0.93238537  1
  H+  H258  1  0.70871746  1.04366715  0.16094615  1
  H+  H259  1  0.62167569  0.89292265  0.83099179  1
  H+  H260  1  0.84962242  0.93023479  0.78749717  1
  H+  H261  1  0.21913891  0.85059875  0.83996653  1
  H+  H262  1  0.11474964  0.88724839  0.82952267  1
  H+  H263  1  0.38262161  0.84707769  0.99055647  1
  H+  H264  1  -0.02135895  0.86182325  0.32909805  1
  H+  H265  1  0.84530335  0.09473938  0.49268323  1
  H+  H266  1  0.12653858  0.85676790  0.99643487  1
  H+  H267  1  0.35500895  0.63105023  0.00496650  1
  H+  H268  1  0.34930541  0.36098429  0.68389329  1
  H+  H269  1  -0.00097176  0.35416989  0.82435333  1
  H+  H270  1  0.22808180  0.62725095  0.65270861  1
  H+  H271  1  0.59758947  0.63163061  0.48063003  1
  H+  H272  1  0.48363159  0.35843324  0.32687248  1
  H+  H273  1  0.11086613  0.86939507  0.17154167  1
  H+  H274  1  0.21098114  0.36195188  0.50099616  1
  H+  H275  1  0.12712909  0.12954799  0.16208238  1
  H+  H276  1  0.48727291  0.13220978  0.84569157  1
  H+  H277  1  0.76691602  0.63341771  0.82656547  1
  H+  H278  1  0.56697510  0.12249581  0.16923802  1
  H+  H279  1  0.59472219  0.72578311  0.54885762  1
  H+  H280  1  -0.01884242  0.87054296  0.50883772  1
  H+  H281  1  0.76961285  0.62811218  0.99741586  1
  H+  H282  1  0.70717786  0.59709263  0.31881780  1
  H+  H283  1  0.91837016  0.28842293  0.16588778  1
  H+  H284  1  0.27160886  0.88271743  0.33019318  1
  H+  H285  1  0.14329309  0.26547782  0.14876170  1
  H+  H286  1  0.47303243  0.59324421  0.32330722  1
  H+  H287  1  0.61272910  0.12959057  1.00806843  1
  H+  H288  1  0.55968836  0.61592775  0.41213290  1
  H+  H289  1  0.83653271  0.13738473  0.43296779  1
  H+  H290  1  0.50937402  0.05345209  0.25149733  1
  H+  H291  1  0.57389411  0.16173185  0.10077414  1
  H+  H292  1  0.17506687  0.79105698  0.54201055  1
  H+  H293  1  0.83000090  0.42332589  0.76031601  1
  H+  H294  1  0.51947327  0.48281211  0.72178960  1
  H+  H295  1  0.60419391  0.17148880  0.73494320  1
  H+  H296  1  0.67970626  0.88071449  0.57611164  1
  H+  H297  1  0.06542302  0.65837520  0.37251991  1
  H+  H298  1  0.64608885  0.38075809  0.34987134  1
  H+  H299  1  0.14470644  0.53889912  0.49783923  1
  H+  H300  1  0.59703197  0.41895556  0.06192757  1
  H+  H301  1  0.33216272  0.67110620  0.43518814  1
  H+  H302  1  0.66991097  0.34360120  0.89235568  1
  H+  H303  1  0.89453705  0.30639033  0.90270109  1
  H+  H304  1  0.58381257  0.91204422  0.74074974  1
  H+  H305  1  0.15201294  0.34219860  0.55895198  1
  H+  H306  1  0.76643582  0.64551851  0.67630610  1
  H+  H307  1  0.31306784  0.15958451  0.08640621  1
  H+  H308  1  0.92541455  0.09552034  0.90743894  1
  H+  H309  1  0.91409805  0.58669463  0.59871914  1
  H+  H310  1  0.66416000  0.82585076  0.89741586  1
  H+  H311  1  0.74372562  0.85299896  0.32509488  1
  H+  H312  1  0.42575160  0.08923732  0.90297354  1
  H+  H313  1  0.67061751  0.06852984  0.60833975  1
  H+  H314  1  0.31847566  0.64632884  0.10237026  1
  H+  H315  1  0.59952177  0.93845105  0.16570086  1
  H+  H316  1  0.35652494  0.17359688  0.43829890  1
  H+  H317  1  0.40792702  0.57977294  0.59754382  1
  H+  H318  1  0.63118460  0.23844044  0.34764907  1
  H+  H319  1  0.65773828  0.57321826  0.23280585  1
  H+  H320  1  0.06975152  0.92207467  0.09719599  1
  H+  H321  1  0.02630420  0.63732331  0.16531085  1
  H+  H322  1  0.90010988  0.36277362  0.32084731  1
  H+  H323  1  0.33372189  0.91795265  0.42451311  1
  H+  H324  1  0.57224099  0.65515804  0.75764292  1
  H+  H325  1  0.30969529  0.91021786  0.10117719  1
  H+  H326  1  0.34515043  0.67258687  0.75905408  1
  H+  H327  1  0.82789098  0.66571113  0.76733515  1
  H+  H328  1  0.07438924  0.66596387  0.76671103  1
  H+  H329  1  0.34430066  0.16833773  0.73623476  1
  H+  H330  1  0.12173839  0.27816372  0.65888742  1
  H+  H331  1  0.42874699  0.82909586  0.27830067  1
  H+  H332  1  0.93563433  0.14164167  0.34995673  1
  H+  H333  1  0.56906569  0.70665363  0.68343884  1
  H+  H334  1  0.09813310  0.19074081  0.05693388  1
  H+  H335  1  0.16051181  0.84071523  0.26109434  1
  H+  H336  1  0.65439057  0.81293701  0.25029109  1
  H+  H337  1  0.34175877  0.42517649  0.04927480  1
  H+  H338  1  0.69520332  0.31232475  0.60090558  1
  H+  H339  1  0.58739571  0.16142477  0.39386640  1
  H+  H340  1  0.93382821  0.34441665  0.25877548  1
  H+  H341  1  0.07049499  0.41032708  0.77330178  1
  H+  H342  1  0.83918554  0.41856763  0.10179947  1
  H+  H343  1  0.90965653  0.57390190  0.93265415  1
  H+  H344  1  0.15700231  0.82542156  0.89862270  1
  H+  H345  1  0.10156982  0.50662415  0.85101498  1
  H+  H346  1  0.63336759  0.61205771  0.83246875  1
  H+  H347  1  0.66003562  0.58068198  0.92776623  1
  H+  H348  1  0.91640698  0.82713979  0.27228554  1
  H+  H349  1  0.08743616  0.92123163  0.39639158  1
  H+  H350  1  0.93938294  0.36079188  0.55863213  1
  H+  H351  1  0.41204002  0.32831024  0.90535658  1
  H+  H352  1  0.57791981  0.43172671  0.39069387  1
  H+  H353  1  0.08811149  0.13577205  0.69346270  1
  H+  H354  1  0.66653036  0.08230498  0.90237604  1
  H+  H355  1  0.36257128  0.96979465  0.32543771  1
  H+  H356  1  0.40587787  0.06568101  0.60166742  1
  H+  H357  1  0.81581048  0.64613980  0.40605863  1
  H+  H358  1  0.71085699  0.92737504  0.58195074  1
  H+  H359  1  0.80284836  0.17322052  0.06316351  1
  H+  H360  1  0.40953123  0.33279514  0.57311085  1
  H+  H361  1  0.34632024  0.46538268  0.49059996  1
  H+  H362  1  0.15682063  0.34137908  0.92386350  1
  H+  H363  1  0.91608874  0.18465041  0.09851374  1
  H+  H364  1  0.08152350  0.41753125  0.06154580  1
  H+  H365  1  0.40678403  0.08021767  0.25014238  1
  H+  H366  1  0.57600984  0.89510045  0.06764563  1
  H+  H367  1  0.32303071  0.39713986  0.39889895  1
  H+  H368  1  0.31875954  0.40028881  0.77576969  1
  H+  H369  1  0.32028936  0.90031717  0.77248037  1
  H+  H370  1  0.92476439  0.84303210  0.60720065  1
  H+  H371  1  0.89123441  0.41157731  0.48615475  1
  H+  H372  1  0.06857694  0.17768558  0.77328694  1
  H+  H373  1  0.73420220  0.11615277  0.31197770  1
  H+  H374  1  0.04585036  0.41516692  0.32084716  1
  H+  H375  1  0.81849051  0.91769079  0.12144269  1
  H+  H376  1  0.57022536  0.43036723  0.76548942  1
  H+  H377  1  0.07140899  0.66456033  0.06786968  1
  H+  H378  1  0.14861586  0.57581347  0.93773914  1
  H+  H379  1  0.42202545  0.82558898  0.89351910  1
  H+  H380  1  0.17496727  0.86331416  0.61068741  1
  H+  H381  1  0.10150699  0.43932945  0.42213074  1
  H+  H382  1  0.86208538  0.43284242  0.38718451  1
  H+  H383  1  0.11150109  0.64678746  0.66920554  1
  O2-  O384  1  0.10129987  0.20921596  0.13185420  1
  O2-  O385  1  0.05819330  0.12822789  0.46032114  1
  O2-  O386  1  0.07598423  0.17672478  0.81859982  1
  O2-  O387  1  0.08996106  0.42382859  0.14045069  1
  O2-  O388  1  0.10045831  0.44220786  0.46688265  1
  O2-  O389  1  0.06078878  0.39485856  0.81694344  1
  O2-  O390  1  0.07864641  0.67452898  0.14159448  1
  O2-  O391  1  0.07459049  0.66147920  0.45891468  1
  O2-  O392  1  0.06817067  0.66142715  0.81184402  1
  O2-  O393  1  0.06565808  0.92418110  0.14257818  1
  O2-  O394  1  0.08117309  0.91154893  0.47510173  1
  O2-  O395  1  0.08431143  0.91908429  0.81691575  1
  O2-  O396  1  0.30989046  0.16933266  0.13065863  1
  O2-  O397  1  0.33946763  0.16681567  0.48232082  1
  O2-  O398  1  0.33527348  0.17227548  0.81458579  1
  O2-  O399  1  0.33960514  0.41697653  0.12749777  1
  O2-  O400  1  0.31666267  0.40443839  0.47617413  1
  O2-  O401  1  0.32191801  0.41199276  0.82143507  1
  O2-  O402  1  0.31987437  0.64132430  0.14802641  1
  O2-  O403  1  0.33618050  0.68116568  0.47943622  1
  O2-  O404  1  0.35270422  0.67937265  0.80373960  1
  O2-  O405  1  0.30990451  0.93616626  0.14189090  1
  O2-  O406  1  0.33141612  0.91611507  0.47008627  1
  O2-  O407  1  0.31398085  0.89201619  0.81717428  1
  O2-  O408  1  0.56235877  0.16688946  0.14447921  1
  O2-  O409  1  0.57483726  0.15461145  0.47412775  1
  O2-  O410  1  0.59074492  0.17317635  0.81432143  1
  O2-  O411  1  0.59666672  0.42073076  0.13353385  1
  O2-  O412  1  0.54945730  0.44701951  0.47096389  1
  O2-  O413  1  0.58244547  0.41822586  0.81216882  1
  O2-  O414  1  0.58085736  0.65202445  0.14586884  1
  O2-  O415  1  0.54622199  0.59430233  0.45720160  1
  O2-  O416  1  0.58071223  0.65801947  0.80637394  1
  O2-  O417  1  0.57408720  0.87972480  0.15030420  1
  O2-  O418  1  0.57896956  0.94378557  0.47650604  1
  O2-  O419  1  0.59465339  0.92721078  0.81692528  1
  O2-  O420  1  0.94689112  0.20279934  0.13752506  1
  O2-  O421  1  0.82490427  0.13293073  0.47703690  1
  O2-  O422  1  0.84986763  0.19448945  0.86648612  1
  O2-  O423  1  0.84112007  0.41143019  0.14671995  1
  O2-  O424  1  0.85911881  0.43930406  0.46632720  1
  O2-  O425  1  0.82443589  0.42729771  0.80662134  1
  O2-  O426  1  0.84197734  0.64568470  0.18242545  1
  O2-  O427  1  0.83575295  0.67760951  0.48665388  1
  O2-  O428  1  0.82892166  0.66241450  0.81280490  1
  O2-  O429  1  0.81668239  0.91272089  0.16621150  1
  O2-  O430  1  0.84914532  0.94615381  0.50130584  1
  O2-  O431  1  0.83608476  0.91624075  0.83104567  1
  O2-  O432  1  0.15090532  0.09382780  0.17718636  1
  O2-  O433  1  0.17112136  0.07537741  0.50618105  1
  O2-  O434  1  0.16240660  0.08374081  0.85351227  1
  O2-  O435  1  0.18590229  0.36714546  0.19715666  1
  O2-  O436  1  0.15145259  0.34427482  0.51405639  1
  O2-  O437  1  0.16535469  0.33825036  0.85772520  1
  O2-  O438  1  0.16796718  0.56362883  0.19878461  1
  O2-  O439  1  0.16951299  0.59868344  0.51521197  1
  O2-  O440  1  0.13240673  0.56565848  0.86680197  1
  O2-  O441  1  0.14347996  0.84024547  0.18468021  1
  O2-  O442  1  0.17373990  0.82919271  0.51110497  1
  O2-  O443  1  0.15627729  0.82540772  0.85350689  1
  O2-  O444  1  0.39929034  0.10287559  0.17573048  1
  O2-  O445  1  0.41046921  0.07231845  0.51857069  1
  O2-  O446  1  0.42967205  0.11468942  0.86280316  1
  O2-  O447  1  0.43074213  0.33841218  0.15889263  1
  O2-  O448  1  0.40007227  0.32735974  0.52755533  1
  O2-  O449  1  0.41020547  0.33325916  0.86103052  1
  O2-  O450  1  0.41696830  0.56778876  0.18360324  1
  O2-  O451  1  0.40235089  0.57244898  0.51207007  1
  O2-  O452  1  0.42291598  0.58686004  0.85290585  1
  O2-  O453  1  0.41886677  0.80067855  0.19644741  1
  O2-  O454  1  0.42199260  0.84694494  0.52060304  1
  O2-  O455  1  0.42684994  0.83403362  0.84906178  1
  O2-  O456  1  0.54820130  0.04599749  0.22327704  1
  O2-  O457  1  0.69346595  0.12533980  0.53006972  1
  O2-  O458  1  0.67782702  0.09303324  0.85804263  1
  O2-  O459  1  0.66518474  0.33531049  0.18367750  1
  O2-  O460  1  0.67974917  0.32983856  0.47634453  1
  O2-  O461  1  0.67172076  0.34649737  0.84689793  1
  O2-  O462  1  0.66743916  0.58022545  0.18596342  1
  O2-  O463  1  0.68593143  0.56083086  0.54723828  1
  O2-  O464  1  0.66521336  0.58385162  0.85051340  1
  O2-  O465  1  0.65315887  0.81219414  0.20438114  1
  O2-  O466  1  0.67956431  0.86803015  0.44269913  1
  O2-  O467  1  0.66593880  0.83113115  0.85257086  1
  O2-  O468  1  0.88956738  0.07628778  0.22064980  1
  O2-  O469  1  0.89310271  0.02855019  0.51648139  1
  O2-  O470  1  0.92962138  0.11360698  0.86368755  1
  O2-  O471  1  0.93518746  0.34638477  0.18088756  1
  O2-  O472  1  0.93758215  0.36640573  0.51411389  1
  O2-  O473  1  0.88810664  0.28769864  0.85881266  1
  O2-  O474  1  0.92430476  0.57040930  0.20685459  1
  O2-  O475  1  0.92162003  0.59402014  0.51924559  1
  O2-  O476  1  0.90570199  0.57630177  0.84812138  1
  O2-  O477  1  0.90757865  0.82327475  0.19207216  1
  O2-  O478  1  0.92294535  0.84361649  0.52806160  1
  O2-  O479  1  0.91852096  0.82519549  0.85847573  1
  O2-  O480  1  0.12930161  0.07896454  0.29866198  1
  O2-  O481  1  0.18715782  0.08336138  0.63200268  1
  O2-  O482  1  0.16249448  0.07987512  0.97454485  1
  O2-  O483  1  0.16471094  0.30821768  0.30277380  1
  O2-  O484  1  0.15929423  0.33581330  0.64144829  1
  O2-  O485  1  0.14818402  0.33789000  0.97130566  1
  O2-  O486  1  0.14410249  0.53486939  0.31329890  1
  O2-  O487  1  0.16488599  0.59627080  0.64085540  1
  O2-  O488  1  0.15567456  0.57697478  0.98399925  1
  O2-  O489  1  0.16894073  0.83920066  0.30601847  1
  O2-  O490  1  0.17034582  0.84899199  0.65388800  1
  O2-  O491  1  0.15434125  0.82377069  0.98149109  1
  O2-  O492  1  0.42244958  0.06531005  0.29020331  1
  O2-  O493  1  0.40483176  0.06106715  0.64648272  1
  O2-  O494  1  0.41468761  0.05976833  0.98677785  1
  O2-  O495  1  0.42151154  0.31595580  0.31937861  1
  O2-  O496  1  0.42145661  0.33836505  0.64829498  1
  O2-  O497  1  0.42733520  0.32454715  0.99185853  1
  O2-  O498  1  0.41083820  0.56145051  0.30956368  1
  O2-  O499  1  0.40196249  0.58249223  0.64192354  1
  O2-  O500  1  0.41821198  0.59603313  0.97541169  1
  O2-  O501  1  0.43373715  0.84679216  0.32132989  1
  O2-  O502  1  0.41928034  0.83655102  0.64822572  1
  O2-  O503  1  0.41640112  0.82017481  0.97836662  1
  O2-  O504  1  0.67088792  0.08900728  0.31197697  1
  O2-  O505  1  0.67229584  0.06394781  0.65286226  1
  O2-  O506  1  0.66173825  0.07014320  0.98232982  1
  O2-  O507  1  0.67669285  0.34738923  0.36086155  1
  O2-  O508  1  0.72707486  0.29223103  0.62493884  1
  O2-  O509  1  0.66961856  0.33066718  0.97236157  1
  O2-  O510  1  0.64853549  0.56842294  0.30162153  1
  O2-  O511  1  0.66145378  0.59741177  0.65532696  1
  O2-  O512  1  0.66088825  0.57725572  0.97338815  1
  O2-  O513  1  0.67899445  0.81714585  0.32446444  1
  O2-  O514  1  0.69353310  0.84379117  0.69506013  1
  O2-  O515  1  0.66442367  0.82352446  0.98126051  1
  O2-  O516  1  0.87578660  0.13118014  0.35845611  1
  O2-  O517  1  0.91851410  0.07923231  0.64131983  1
  O2-  O518  1  0.91521003  0.08245836  0.98405978  1
  O2-  O519  1  0.93496660  0.33783990  0.30382367  1
  O2-  O520  1  0.93417487  0.34282665  0.64293115  1
  O2-  O521  1  0.90702207  0.32707245  0.98043807  1
  O2-  O522  1  0.92770738  0.56096638  0.27307948  1
  O2-  O523  1  0.91039597  0.58427453  0.64421284  1
  O2-  O524  1  0.90962265  0.57287992  0.97767002  1
  O2-  O525  1  0.91764612  0.83517269  0.31697771  1
  O2-  O526  1  0.92680938  0.84268350  0.65270724  1
  O2-  O527  1  0.91881191  0.82860983  0.97843974  1
  O2-  O528  1  0.09043897  0.18186919  0.01162439  1
  O2-  O529  1  0.03560746  0.15354185  0.34742354  1
  O2-  O530  1  0.06192673  0.17164078  0.69651748  1
  O2-  O531  1  0.07621200  0.41615554  0.01623851  1
  O2-  O532  1  0.10775738  0.44491929  0.33396902  1
  O2-  O533  1  0.13523930  0.45784208  0.70382240  1
  O2-  O534  1  0.07352412  0.66230064  0.02175780  1
  O2-  O535  1  0.07010148  0.66604775  0.32798989  1
  O2-  O536  1  0.07820685  0.67325109  0.68596227  1
  O2-  O537  1  0.07995701  0.91514906  0.02040786  1
  O2-  O538  1  0.08952487  0.92065278  0.35101257  1
  O2-  O539  1  0.09073257  0.93534831  0.69197815  1
  O2-  O540  1  0.32648487  0.14194190  0.00835886  1
  O2-  O541  1  0.37946421  0.16994089  0.36378253  1
  O2-  O542  1  0.35165128  0.17006773  0.69100731  1
  O2-  O543  1  0.34563540  0.43180392  0.00420599  1
  O2-  O544  1  0.32382966  0.39174836  0.35352894  1
  O2-  O545  1  0.30660985  0.36909333  0.70778534  1
  O2-  O546  1  0.32286098  0.65795143  0.02412931  1
  O2-  O547  1  0.29795936  0.59069328  0.36635773  1
  O2-  O548  1  0.32567359  0.66504303  0.67779684  1
  O2-  O549  1  0.29452550  0.85724262  0.03567691  1
  O2-  O550  1  0.33235798  0.91218182  0.34593497  1
  O2-  O551  1  0.32509812  0.90869964  0.69143748  1
  O2-  O552  1  0.58337152  0.16134237  0.02118566  1
  O2-  O553  1  0.60308022  0.17470289  0.35029517  1
  O2-  O554  1  0.61344576  0.17101956  0.69040201  1
  O2-  O555  1  0.59153368  0.41454539  0.01541910  1
  O2-  O556  1  0.58754710  0.42304849  0.34771723  1
  O2-  O557  1  0.55040472  0.45373803  0.70884481  1
  O2-  O558  1  0.57968029  0.66110016  0.02067088  1
  O2-  O559  1  0.57355955  0.63882790  0.34642420  1
  O2-  O560  1  0.55906931  0.64956941  0.69277767  1
  O2-  O561  1  0.57891576  0.90411780  0.02299919  1
  O2-  O562  1  0.58142280  0.94187139  0.35906834  1
  O2-  O563  1  0.58315277  0.90375464  0.69541644  1
  O2-  O564  1  0.83872847  0.17412768  0.02944496  1
  O2-  O565  1  0.85183844  0.16415527  0.30552876  1
  O2-  O566  1  0.83538130  0.16510715  0.67928029  1
  O2-  O567  1  0.83183384  0.41187394  0.02151951  1
  O2-  O568  1  0.84913815  0.41673084  0.34318862  1
  O2-  O569  1  0.84795508  0.42088106  0.69029059  1
  O2-  O570  1  0.82993998  0.65323731  0.01164501  1
  O2-  O571  1  0.80315036  0.61813344  0.36575286  1
  O2-  O572  1  0.82870725  0.67336156  0.68895835  1
  O2-  O573  1  0.80823115  0.87448254  0.04100489  1
  O2-  O574  1  0.84840706  0.92985800  0.33346181  1
  O2-  O575  1  0.86180049  0.93860677  0.70399092  1
