# generated using pymatgen
data_H2O
_symmetry_space_group_name_H-M   'P 1'
_cell_length_a   17.98646046
_cell_length_b   17.98933736
_cell_length_c   22.00285726
_cell_angle_alpha   90.00208479
_cell_angle_beta   89.98466071
_cell_angle_gamma   119.99190122
_symmetry_Int_Tables_number   1
_chemical_formula_structural   H2O
_chemical_formula_sum   'H384 O192'
_cell_volume   6166.03527316
_cell_formula_units_Z   192
loop_
 _symmetry_equiv_pos_site_id
 _symmetry_equiv_pos_as_xyz
  1  'x, y, z'
loop_
 _atom_type_symbol
 _atom_type_oxidation_number
  H+  1.0
  O2-  -2.0
loop_
 _atom_site_type_symbol
 _atom_site_label
 _atom_site_symmetry_multiplicity
 _atom_site_fract_x
 _atom_site_fract_y
 _atom_site_fract_z
 _atom_site_occupancy
  H+  H0  1  0.90187434  0.13379415  0.49210474  1
  H+  H1  1  0.11070455  0.99079462  0.67276228  1
  H+  H2  1  0.07524771  0.41695268  0.06447550  1
  H+  H3  1  1.02959738  0.38489611  0.34378292  1
  H+  H4  1  0.86265649  0.38455012  0.00525643  1
  H+  H5  1  0.52478219  0.38282262  0.67147050  1
  H+  H6  1  0.36328387  0.97514020  0.66895390  1
  H+  H7  1  0.78491530  0.87546287  0.14304886  1
  H+  H8  1  0.16130694  0.33336734  0.22878197  1
  H+  H9  1  0.09257052  0.92559509  0.73011831  1
  H+  H10  1  0.22411853  0.36590176  0.51091670  1
  H+  H11  1  0.61861469  -0.02860429  0.66972168  1
  H+  H12  1  0.86298233  0.94580417  0.72386892  1
  H+  H13  1  0.63704595  0.60631513  0.50532899  1
  H+  H14  1  0.36444049  0.30797585  0.19040110  1
  H+  H15  1  0.12866841  0.75448297  0.85464468  1
  H+  H16  1  0.37492620  0.61578250  0.84005748  1
  H+  H17  1  0.82511646  0.15699253  0.09372463  1
  H+  H18  1  0.37301623  0.23456013  0.67352426  1
  H+  H19  1  0.19385013  0.59543999  0.33195760  1
  H+  H20  1  0.63414537  0.26485058  0.33268652  1
  H+  H21  1  0.12854446  0.38615376  0.68349021  1
  H+  H22  1  0.38622376  0.75926838  0.84086556  1
  H+  H23  1  0.16339172  0.83123167  0.24492431  1
  H+  H24  1  0.10660362  0.63294856  0.49984207  1
  H+  H25  1  0.13149038  0.43156840  0.84488934  1
  H+  H26  1  0.88586973  0.75880369  0.83318657  1
  H+  H27  1  0.53884207  0.63283481  0.82387307  1
  H+  H28  1  0.86608978  0.89902940  0.34214083  1
  H+  H29  1  0.63219107  0.10474358  0.66447998  1
  H+  H30  1  0.19388011  0.61144381  0.97481158  1
  H+  H31  1  0.63261619  0.54035548  0.33537656  1
  H+  H32  1  0.53293709  0.63526747  0.50725847  1
  H+  H33  1  0.16828167  0.07921556  0.89080829  1
  H+  H34  1  0.32437817  0.92463067  0.06416636  1
  H+  H35  1  0.38684098  0.28706099  0.34686273  1
  H+  H36  1  0.60615013  0.90207881  0.15140779  1
  H+  H37  1  0.59585426  0.49276481  0.18700147  1
  H+  H38  1  -0.01853822  0.12521188  0.16787337  1
  H+  H39  1  0.14107479  0.87331234  0.65860809  1
  H+  H40  1  0.52108853  0.12748757  0.82341223  1
  H+  H41  1  0.11330862  0.23770441  0.15562400  1
  H+  H42  1  0.85233306  0.13195410  0.15589644  1
  H+  H43  1  0.21531028  0.86891740  0.99415421  1
  H+  H44  1  0.32819377  0.42461011  0.40529221  1
  H+  H45  1  0.63216599  0.35205601  0.51117088  1
  H+  H46  1  0.22944244  0.61556858  0.66251014  1
  H+  H47  1  0.35479169  0.37942255  0.49409632  1
  H+  H48  1  0.12443639  1.02122307  -0.01799862  1
  H+  H49  1  0.46751033  0.35284837  0.50484300  1
  H+  H50  1  0.98205527  0.87351051  0.34059185  1
  H+  H51  1  0.36458309  0.13352498  0.32415310  1
  H+  H52  1  0.50000275  0.34995589  0.18323848  1
  H+  H53  1  0.40570295  0.78408620  0.30801286  1
  H+  H54  1  0.66761874  0.02911223  0.51565000  1
  H+  H55  1  0.88463891  0.02313568  0.98375345  1
  H+  H56  1  0.10907169  0.38647401  0.50411704  1
  H+  H57  1  0.98831450  0.87243749  0.66489237  1
  H+  H58  1  0.11056162  0.97710355  0.34721593  1
  H+  H59  1  0.38063341  0.87790686  0.98786556  1
  H+  H60  1  0.90874731  1.02826925  0.64429605  1
  H+  H61  1  0.66495231  0.57277103  0.56370986  1
  H+  H62  1  0.36320549  0.22621631  0.82247226  1
  H+  H63  1  0.13215489  0.86179010  0.33999628  1
  H+  H64  1  0.48643311  0.61262042  0.15468521  1
  H+  H65  1  0.85623840  0.47456613  0.34726817  1
  H+  H66  1  0.77704682  0.90078007  0.34597415  1
  H+  H67  1  0.47901643  0.10607966  0.33404802  1
  H+  H68  1  0.35906985  0.88125012  0.34403477  1
  H+  H69  1  0.42796936  0.07851999  0.24093850  1
  H+  H70  1  0.99143586  0.37740188  0.82754445  1
  H+  H71  1  0.86037957  0.76275780  0.51162511  1
  H+  H72  1  0.65925767  0.62232409  0.98843547  1
  H+  H73  1  0.78181689  0.14793184  0.33437349  1
  H+  H74  1  0.59901755  0.64575693  0.34774527  1
  H+  H75  1  0.59656104  0.36858420  0.17270404  1
  H+  H76  1  0.09222752  0.88322059  0.50113053  1
  H+  H77  1  0.63486302  0.11464438  0.98678580  1
  H+  H78  1  0.77362191  0.13565743  -0.00058694  1
  H+  H79  1  0.87245194  0.87168457  0.13671567  1
  H+  H80  1  0.13017163  0.36273892  0.99826595  1
  H+  H81  1  0.22376316  0.36142131  0.32624836  1
  H+  H82  1  0.97102752  0.60118950  0.65934617  1
  H+  H83  1  0.38635023  0.35927041  0.66209071  1
  H+  H84  1  0.10801239  0.47932457  0.15553098  1
  H+  H85  1  0.49692983  0.12031300  0.17312260  1
  H+  H86  1  0.75647531  0.86802703  0.99815541  1
  H+  H87  1  0.63659993  0.35676622  0.66263371  1
  H+  H88  1  0.20269038  0.85946177  0.49903075  1
  H+  H89  1  0.37510723  0.78861492  0.97358388  1
  H+  H90  1  0.51821543  0.63196298  0.71908885  1
  H+  H91  1  0.87097131  0.14718973  0.33515254  1
  H+  H92  1  0.99827626  0.85967922  0.14723244  1
  H+  H93  1  0.86508385  0.26454983  0.66963757  1
  H+  H94  1  0.34046958  0.63247358  0.17127281  1
  H+  H95  1  0.39097482  0.86530192  0.65633660  1
  H+  H96  1  0.76781029  0.64920934  0.34127848  1
  H+  H97  1  0.63115754  0.03852368  0.16768858  1
  H+  H98  1  0.13944303  0.09550003  0.82508426  1
  H+  H99  1  0.97584011  0.36264821  0.99237566  1
  H+  H100  1  0.63554361  0.87914849  0.33917599  1
  H+  H101  1  0.10105442  0.88171178  0.99393818  1
  H+  H102  1  0.37349953  0.26753168  0.50847018  1
  H+  H103  1  0.32436138  0.91575358  0.76651736  1
  H+  H104  1  0.20740894  0.62209176  0.18011483  1
  H+  H105  1  1.00755360  0.89023009  0.50204536  1
  H+  H106  1  1.02134597  0.13720003  1.00208566  1
  H+  H107  1  0.77018021  0.38029184  0.49787128  1
  H+  H108  1  0.38938988  0.57649639  0.24284718  1
  H+  H109  1  0.47466667  0.52360879  0.55966617  1
  H+  H110  1  0.41151022  0.46258791  0.14096163  1
  H+  H111  1  0.48011908  0.86309803  0.65746000  1
  H+  H112  1  0.37611514  0.14152800  0.67506655  1
  H+  H113  1  0.96279568  0.59590371  0.18692621  1
  H+  H114  1  0.17140662  0.35197731  0.91123319  1
  H+  H115  1  0.85992558  0.73420509  0.68583257  1
  H+  H116  1  0.24867544  0.60687855  0.49933762  1
  H+  H117  1  0.27493527  0.37794307  0.67435055  1
  H+  H118  1  0.34829156  0.13901498  0.15507611  1
  H+  H119  1  0.37638499  0.25550552  -0.01343815  1
  H+  H120  1  0.06009057  0.90974630  0.04836928  1
  H+  H121  1  0.37967546  0.01897907  0.83730045  1
  H+  H122  1  0.53865469  0.62207131  0.99744896  1
  H+  H123  1  0.79174959  0.14121191  0.49240504  1
  H+  H124  1  0.27434833  0.88643879  0.66588617  1
  H+  H125  1  0.11294517  0.13988982  0.49633338  1
  H+  H126  1  0.63265291  0.76542119  -0.00265329  1
  H+  H127  1  0.22061437  1.10678332  0.32112529  1
  H+  H128  1  0.46878631  0.87109850  0.16327748  1
  H+  H129  1  0.52213385  0.38176923  0.82532028  1
  H+  H130  1  0.17443514  0.65280713  0.84147690  1
  H+  H131  1  0.88252740  0.63230346  -0.04892359  1
  H+  H132  1  0.64589721  0.03963031  0.31492700  1
  H+  H133  1  0.82883765  0.40919435  0.43755117  1
  H+  H134  1  0.61024382  0.21430796  0.82326324  1
  H+  H135  1  0.94076596  0.09367075  0.58877187  1
  H+  H136  1  -0.11865486  0.51784463  0.50380786  1
  H+  H137  1  0.96539979  0.86086372  0.97734317  1
  H+  H138  1  0.61786815  0.13779746  0.34101179  1
  H+  H139  1  0.32180994  0.88880249  0.53070632  1
  H+  H140  1  0.72665749  0.35897484  0.66299788  1
  H+  H141  1  0.62691442  0.59836063  0.65512296  1
  H+  H142  1  0.27395929  0.13315688  0.81998309  1
  H+  H143  1  0.27788370  0.39369014  0.83111333  1
  H+  H144  1  0.89902037  1.03227592  0.16949841  1
  H+  H145  1  0.88978455  0.36943698  0.17413693  1
  H+  H146  1  0.22022955  0.85935430  0.33937543  1
  H+  H147  1  0.72468926  0.12250136  0.16314962  1
  H+  H148  1  0.76900529  0.38353828  0.82874764  1
  H+  H149  1  0.87663472  0.22576839  0.83188739  1
  H+  H150  1  0.12230385  1.03062746  0.51776618  1
  H+  H151  1  0.88283172  0.60835100  0.50466204  1
  H+  H152  1  0.09799101  0.47305329  0.00287404  1
  H+  H153  1  0.63670077  0.35477904  0.32826918  1
  H+  H154  1  0.58690708  0.96622265  0.81301149  1
  H+  H155  1  0.64917637  0.76234775  0.52646711  1
  H+  H156  1  0.38594796  0.35647497  0.83749236  1
  H+  H157  1  0.11891110  0.76673692  0.50434567  1
  H+  H158  1  0.89420991  0.37161819  0.33016162  1
  H+  H159  1  0.63507625  0.35464052  0.83799486  1
  H+  H160  1  0.62317032  0.72442447  0.81998844  1
  H+  H161  1  0.10553347  0.72277146  0.66932299  1
  H+  H162  1  0.00171074  0.13592214  0.49198234  1
  H+  H163  1  0.34645859  0.19067891  0.27974433  1
  H+  H164  1  0.36450793  0.46998011  0.50377511  1
  H+  H165  1  0.37916765  0.78011608  0.16880006  1
  H+  H166  1  0.35330305  0.12594794  0.99872410  1
  H+  H167  1  0.15910374  0.83166532  0.93299083  1
  H+  H168  1  0.11592233  0.61711706  0.17542686  1
  H+  H169  1  0.26771523  0.88323373  0.82710070  1
  H+  H170  1  0.39484472  0.49438565  -0.01561743  1
  H+  H171  1  0.60135967  0.22598441  0.16243852  1
  H+  H172  1  0.32859206  0.50778772  0.19447228  1
  H+  H173  1  0.10353146  0.73226234  0.00731344  1
  H+  H174  1  0.88806772  0.27470939  0.51049430  1
  H+  H175  1  0.38487545  0.37691829  0.34494884  1
  H+  H176  1  0.52109397  0.90142292  0.32624230  1
  H+  H177  1  0.11618241  0.58339587  0.93154177  1
  H+  H178  1  0.57223801  0.92789144  0.09349411  1
  H+  H179  1  0.37229840  0.73594593  0.67309088  1
  H+  H180  1  0.76253733  0.11052641  0.85057368  1
  H+  H181  1  0.56932101  0.60300824  0.16123815  1
  H+  H182  1  0.68571480  0.07284575  0.91093505  1
  H+  H183  1  0.76210122  0.59223369  0.12027117  1
  H+  H184  1  0.12071882  0.23048918  0.33893243  1
  H+  H185  1  0.21015345  0.10478790  0.17169415  1
  H+  H186  1  0.09636546  0.63964049  0.00867362  1
  H+  H187  1  0.92726268  0.73202551  0.10789786  1
  H+  H188  1  0.38942881  1.02304386  0.17682528  1
  H+  H189  1  0.87918739  0.89219013  0.67242244  1
  H+  H190  1  0.66948561  0.85942283  0.52828302  1
  H+  H191  1  0.60057817  0.73476836  0.35264370  1
  H+  H192  1  0.44569816  0.12380450  0.49413068  1
  H+  H193  1  0.61225033  0.46962615  0.82587156  1
  H+  H194  1  0.96701573  0.60645419  0.86286689  1
  H+  H195  1  0.60919330  0.46829614  0.49436656  1
  H+  H196  1  0.74713803  0.61747806  0.83633564  1
  H+  H197  1  0.87877213  0.91340615  0.49028295  1
  H+  H198  1  0.61641782  0.86303839  0.84170142  1
  H+  H199  1  0.76818534  0.93488942  0.83270768  1
  H+  H200  1  0.59408757  0.42785120  0.28542187  1
  H+  H201  1  0.76673948  0.13990789  0.68291864  1
  H+  H202  1  0.40112101  0.51390830  0.83113289  1
  H+  H203  1  0.90303300  0.03714409  0.49165344  1
  H+  H204  1  0.35586166  0.89398865  0.15954674  1
  H+  H205  1  0.35869689  0.48453620  0.34554693  1
  H+  H206  1  0.35577014  0.11147225  0.50995574  1
  H+  H207  1  1.03078648  0.87785294  0.82131555  1
  H+  H208  1  0.50346024  0.87215723  0.81696103  1
  H+  H209  1  0.63877726  0.79290578  0.12058280  1
  H+  H210  1  0.35527244  0.98227288  0.00375213  1
  H+  H211  1  0.86859153  0.36519107  0.66611114  1
  H+  H212  1  0.31752989  0.65853978  -0.08294607  1
  H+  H213  1  0.71158741  0.00777587  0.87143241  1
  H+  H214  1  0.56069600  0.38235444  1.07255984  1
  H+  H215  1  0.15326015  0.25702318  0.65599803  1
  H+  H216  1  0.35202388  0.98038884  0.50247800  1
  H+  H217  1  0.30559159  0.69843847  0.36507250  1
  H+  H218  1  0.87469483  0.52204206  0.85465868  1
  H+  H219  1  0.01899341  0.38458587  0.50334682  1
  H+  H220  1  0.83157633  0.90111881  0.05607642  1
  H+  H221  1  0.86564507  0.47756449  0.67026747  1
  H+  H222  1  0.40973476  0.58796086  0.98585900  1
  H+  H223  1  0.13889528  0.86979718  0.18813550  1
  H+  H224  1  0.11152294  0.61806506  0.33352481  1
  H+  H225  1  0.63603479  0.51539198  0.65935082  1
  H+  H226  1  0.32328783  0.58387494  0.49116751  1
  H+  H227  1  0.55546156  0.12711495  0.51635329  1
  H+  H228  1  0.10472005  0.50535416  0.83324731  1
  H+  H229  1  0.77258401  0.38127763  0.34300420  1
  H+  H230  1  0.12255542  0.19883739  0.78937965  1
  H+  H231  1  0.74467269  0.87340709  0.67037011  1
  H+  H232  1  0.10928799  0.14615104  0.15742108  1
  H+  H233  1  0.28062224  0.59707898  0.82271588  1
  H+  H234  1  -0.03541556  0.61209252  0.33914785  1
  H+  H235  1  0.86054355  0.73405220  0.34251584  1
  H+  H236  1  0.10133770  0.73415518  0.16211516  1
  H+  H237  1  0.89007086  0.84716362  0.81848532  1
  H+  H238  1  0.88150940  0.13645049  0.82878472  1
  H+  H239  1  0.36237877  0.47025927  0.68022849  1
  H+  H240  1  0.62866661  0.35333680  0.99639247  1
  H+  H241  1  0.37689431  0.34450650  -0.01669897  1
  H+  H242  1  0.10898288  0.63662968  0.67041639  1
  H+  H243  1  0.13539149  0.84682195  0.84060955  1
  H+  H244  1  0.13349676  0.36591940  0.17034739  1
  H+  H245  1  0.38797227  1.01750327  0.33319655  1
  H+  H246  1  0.46293962  0.62475373  0.33445626  1
  H+  H247  1  0.88607374  0.11225091  0.98392656  1
  H+  H248  1  0.50978571  0.36175439  1.00969018  1
  H+  H249  1  0.13672818  0.27694466  0.50833713  1
  H+  H250  1  0.92291933  0.33312670  0.77764246  1
  H+  H251  1  0.61245141  0.21817095  0.67454236  1
  H+  H252  1  0.61345120  0.22592611  1.00158087  1
  H+  H253  1  0.12106679  -0.03446579  0.82559925  1
  H+  H254  1  0.74479492  0.61446960  0.97961304  1
  H+  H255  1  0.11637527  0.99017747  0.16595836  1
  H+  H256  1  0.43184558  0.88053869  0.50114239  1
  H+  H257  1  0.78027798  0.62634506  0.14481254  1
  H+  H258  1  0.01952869  0.39151466  0.15806104  1
  H+  H259  1  0.76933584  0.62916397  0.49345701  1
  H+  H260  1  0.86319267  0.22374564  -0.00087628  1
  H+  H261  1  0.15050782  0.95052410  0.11683029  1
  H+  H262  1  0.55842388  0.89141886  0.50935436  1
  H+  H263  1  0.10613683  0.72570104  0.35020044  1
  H+  H264  1  0.97609795  0.67404229  0.10393677  1
  H+  H265  1  0.51253461  0.88997776  0.99905553  1
  H+  H266  1  0.60925485  0.13953235  0.15998079  1
  H+  H267  1  0.13097782  0.11335458  -0.01460063  1
  H+  H268  1  0.38906372  0.11210958  0.83710417  1
  H+  H269  1  0.26544123  0.37681117  0.00132459  1
  H+  H270  1  0.93485459  0.52720814  1.01406235  1
  H+  H271  1  0.26941307  0.89655549  0.16806158  1
  H+  H272  1  0.86186326  0.62482042  0.83508871  1
  H+  H273  1  0.72144342  0.36083684  0.99333781  1
  H+  H274  1  0.77176884  0.64382702  0.68053787  1
  H+  H275  1  0.52247682  0.39466113  0.33476926  1
  H+  H276  1  0.24224674  0.13216597  0.50722962  1
  H+  H277  1  0.13440191  0.31326950  0.84657273  1
  H+  H278  1  0.88220922  0.36081752  0.51227311  1
  H+  H279  1  0.89425848  0.03749661  0.32424146  1
  H+  H280  1  0.41513547  0.32175734  0.89497595  1
  H+  H281  1  0.63030179  0.02276159  0.99259998  1
  H+  H282  1  0.36761784  0.61399278  0.33494687  1
  H+  H283  1  0.71733622  0.35622719  0.17229924  1
  H+  H284  1  0.26315876  0.12602739  -0.00336278  1
  H+  H285  1  0.12290350  0.51714083  0.51399770  1
  H+  H286  1  0.84866680  0.46773806  0.16760046  1
  H+  H287  1  -0.01785655  0.10155781  0.82413863  1
  H+  H288  1  0.85202492  0.94320406  0.42869546  1
  H+  H289  1  0.58087867  0.90645618  0.72621191  1
  H+  H290  1  0.90019959  0.32689856  0.60465765  1
  H+  H291  1  0.14079479  0.58594594  0.26605067  1
  H+  H292  1  0.48051893  0.11588496  0.66126049  1
  H+  H293  1  0.29737325  0.15675673  0.44475921  1
  H+  H294  1  0.81817393  0.81116996  0.54378788  1
  H+  H295  1  0.33785370  0.39912355  0.05369228  1
  H+  H296  1  0.41075693  0.83843734  0.88495102  1
  H+  H297  1  0.87625803  0.61339644  0.33599069  1
  H+  H298  1  0.34447471  0.68327422  0.73512688  1
  H+  H299  1  0.01530695  0.62985377  0.49617352  1
  H+  H300  1  0.40404499  0.32175732  0.25637545  1
  H+  H301  1  0.47248766  0.11244281  0.98851415  1
  H+  H302  1  0.41347251  0.08033403  0.92863033  1
  H+  H303  1  0.91745285  0.33781232  0.93285155  1
  H+  H304  1  0.64719784  0.86797926  0.66711072  1
  H+  H305  1  0.66374856  0.11672316  0.50991549  1
  H+  H306  1  0.66348616  0.32640389  0.89829376  1
  H+  H307  1  0.44031471  0.84338639  0.56485565  1
  H+  H308  1  0.88331192  0.71990610  -0.03009426  1
  H+  H309  1  0.32707350  0.64578083  -0.01263177  1
  H+  H310  1  0.07727392  0.92072085  0.40920335  1
  H+  H311  1  1.03034573  0.14295570  0.33949572  1
  H+  H312  1  0.29137888  0.62487300  0.41005010  1
  H+  H313  1  0.90606005  0.83109453  0.91730155  1
  H+  H314  1  0.09218635  0.17263244  0.43056046  1
  H+  H315  1  0.82434044  0.41474715  0.10473244  1
  H+  H316  1  0.84424013  0.17566488  0.42839220  1
  H+  H317  1  0.67934788  0.58195786  0.17823070  1
  H+  H318  1  0.43046383  0.57080956  0.58662668  1
  H+  H319  1  0.14590781  0.52264995  0.66486589  1
  H+  H320  1  0.91023173  0.56821987  0.60089913  1
  H+  H321  1  0.59935510  0.88440510  0.00582713  1
  H+  H322  1  0.89472498  0.28389605  0.32600382  1
  H+  H323  1  0.86210665  0.39269162  0.82592705  1
  H+  H324  1  0.58339516  0.41230790  0.73124534  1
  H+  H325  1  0.67663847  0.08439941  0.60792736  1
  H+  H326  1  0.85391451  0.86746720  -0.01121179  1
  H+  H327  1  0.83096820  0.17230440  0.74031399  1
  H+  H328  1  0.04596919  0.11164395  0.64789195  1
  H+  H329  1  0.08093400  0.67896595  0.09824647  1
  H+  H330  1  0.65497285  0.82904397  0.94028475  1
  H+  H331  1  0.39768311  0.62391983  0.67260457  1
  H+  H332  1  0.62477314  0.22493101  0.50315634  1
  H+  H333  1  0.13402022  0.11178685  0.32933354  1
  H+  H334  1  0.33322013  0.90796439  0.40677915  1
  H+  H335  1  0.65313132  0.78590694  0.18779222  1
  H+  H336  1  0.91929680  0.83332186  0.60924825  1
  H+  H337  1  0.92900355  0.85596444  0.27999861  1
  H+  H338  1  0.83165765  0.41831270  0.73319533  1
  H+  H339  1  0.41263322  0.32815604  0.60089252  1
  H+  H340  1  0.92053813  0.78974222  0.18639373  1
  H+  H341  1  0.07723457  0.66183315  0.40932058  1
  H+  H342  1  0.09135207  0.12949093  0.73867519  1
  H+  H343  1  0.58350159  0.40745112  0.43690587  1
  H+  H344  1  0.34099163  0.17158926  0.73953205  1
  H+  H345  1  0.90703219  0.66803788  0.04423726  1
  H+  H346  1  0.66648801  0.84586013  0.28488635  1
  H+  H347  1  0.31248246  0.66099801  0.11173863  1
  H+  H348  1  0.90325705  0.56809959  0.24515445  1
  H+  H349  1  0.44425749  0.40670198  0.11119032  1
  H+  H350  1  0.41733994  0.09323363  0.60269338  1
  H+  H351  1  0.30584387  0.13177448  0.09043569  1
  H+  H352  1  0.92881329  0.35008226  0.23304657  1
  H+  H353  1  0.66496781  0.32649249  0.57187895  1
  H+  H354  1  0.58802348  0.15906905  0.40485048  1
  H+  H355  1  0.12819111  0.27125689  -0.00592586  1
  H+  H356  1  0.58013967  0.16459969  0.05961161  1
  H+  H357  1  0.64890839  0.59196791  0.27572511  1
  H+  H358  1  0.56668166  0.94707155  0.38691132  1
  H+  H359  1  0.57887306  0.15672668  0.73393756  1
  H+  H360  1  0.67961985  0.59198224  0.90086819  1
  H+  H361  1  0.10661792  0.42838960  0.73909174  1
  H+  H362  1  0.57777512  0.65022747  0.06280419  1
  H+  H363  1  0.83014938  0.65947605  0.77195436  1
  H+  H364  1  0.67456659  0.10387799  0.25855930  1
  H+  H365  1  0.15441621  0.08309107  0.23450502  1
  H+  H366  1  0.92600656  0.09587468  0.26448550  1
  H+  H367  1  0.08339293  0.40647764  0.40498423  1
  H+  H368  1  0.93223134  0.08297413  0.88805005  1
  H+  H369  1  0.68139214  0.82641358  0.60870143  1
  H+  H370  1  0.58169702  0.67269149  0.44391104  1
  H+  H371  1  0.66257169  0.32213735  0.23436006  1
  H+  H372  1  0.08152733  0.16984932  0.06174262  1
  H+  H373  1  0.15959758  0.83583763  0.59901603  1
  H+  H374  1  0.14779647  0.09235504  0.58224661  1
  H+  H375  1  0.33041572  0.40772388  0.76812669  1
  H+  H376  1  0.62869207  0.91076637  0.45785166  1
  H+  H377  1  0.17108938  0.32559274  0.60453789  1
  H+  H378  1  0.13292288  0.35665588  0.33057704  1
  H+  H379  1  0.65054115  0.62038796  0.83387288  1
  H+  H380  1  0.43833859  0.56697384  0.89226276  1
  H+  H381  1  0.83029776  0.66944017  0.43553520  1
  H+  H382  1  0.15943039  0.58007367  0.57232180  1
  H+  H383  1  0.41652152  0.84574709  0.25379262  1
  O2-  O384  1  0.08108815  0.17640517  0.13928616  1
  O2-  O385  1  0.08712315  0.17384118  0.47640386  1
  O2-  O386  1  0.08652748  0.13702739  0.78424316  1
  O2-  O387  1  0.08038130  0.42048787  0.13936244  1
  O2-  O388  1  0.07896535  0.41615458  0.48766736  1
  O2-  O389  1  0.09374937  0.44739081  0.82200419  1
  O2-  O390  1  0.06481033  0.67644626  0.14329888  1
  O2-  O391  1  0.07703745  0.66285557  0.48179367  1
  O2-  O392  1  0.06878750  0.65504851  0.84966738  1
  O2-  O393  1  0.10341736  0.93263097  0.14590058  1
  O2-  O394  1  0.06678402  0.91898572  0.48716234  1
  O2-  O395  1  0.09129027  0.90643427  0.80777726  1
  O2-  O396  1  0.29341165  0.11211342  0.13383512  1
  O2-  O397  1  0.30457707  0.16021703  0.48885140  1
  O2-  O398  1  0.33468087  0.16677645  0.80407114  1
  O2-  O399  1  0.39152732  0.40604922  0.12310443  1
  O2-  O400  1  0.32818055  0.41473729  0.48223440  1
  O2-  O401  1  0.33579391  0.41285306  0.81369183  1
  O2-  O402  1  0.31646047  0.66889256  0.15577337  1
  O2-  O403  1  0.30407841  0.62263258  0.47682898  1
  O2-  O404  1  0.33499670  0.64086272  0.84010542  1
  O2-  O405  1  0.32792933  0.92849398  0.14947674  1
  O2-  O406  1  0.32813242  0.91825039  0.49204481  1
  O2-  O407  1  0.32500560  0.92497851  0.81067533  1
  O2-  O408  1  0.56999136  0.16368844  0.14804167  1
  O2-  O409  1  0.60077721  0.16346283  0.48785119  1
  O2-  O410  1  0.58001753  0.15569055  0.80577664  1
  O2-  O411  1  0.55667307  0.39182654  0.16496314  1
  O2-  O412  1  0.57762874  0.40616431  0.48107937  1
  O2-  O413  1  0.58251547  0.41092249  0.80932589  1
  O2-  O414  1  0.54528759  0.63476258  0.13926692  1
  O2-  O415  1  0.59082056  0.66949621  0.48845711  1
  O2-  O416  1  0.59882121  0.66444564  0.80713455  1
  O2-  O417  1  0.57266082  0.92917753  0.13938546  1
  O2-  O418  1  0.62312887  0.91953182  0.50095655  1
  O2-  O419  1  0.56689124  0.90640456  0.80227770  1
  O2-  O420  1  0.81311814  0.14941737  0.13784333  1
  O2-  O421  1  0.85073046  0.17515528  0.47411870  1
  O2-  O422  1  0.84343356  0.16327667  0.82198302  1
  O2-  O423  1  0.81713890  0.40828122  0.14941620  1
  O2-  O424  1  0.83075720  0.41054667  0.48328369  1
  O2-  O425  1  0.82956035  0.42097019  0.81360243  1
  O2-  O426  1  0.92502876  0.67870221  0.09046890  1
  O2-  O427  1  0.83056368  0.66695755  0.48094880  1
  O2-  O428  1  0.82991622  0.65578771  0.81891573  1
  O2-  O429  1  0.84355253  0.90440937  0.12519915  1
  O2-  O430  1  0.85885265  0.95158740  0.47406272  1
  O2-  O431  1  0.73494320  0.93196018  0.86917371  1
  O2-  O432  1  0.15079389  0.08290477  0.18901679  1
  O2-  O433  1  0.15228747  0.09165094  0.53045982  1
  O2-  O434  1  0.17365242  0.07317024  0.84599038  1
  O2-  O435  1  0.16392724  0.33535474  0.18366164  1
  O2-  O436  1  0.16450862  0.33486049  0.52755143  1
  O2-  O437  1  0.17712112  0.36650700  0.86582919  1
  O2-  O438  1  0.14680543  0.58995490  0.19437821  1
  O2-  O439  1  0.15531155  0.57932416  0.52655473  1
  O2-  O440  1  0.11815951  0.60893099  0.85673572  1
  O2-  O441  1  0.16497779  0.83451188  0.19943798  1
  O2-  O442  1  0.14466709  0.82873121  0.51674123  1
  O2-  O443  1  0.16478576  0.82004196  0.86211753  1
  O2-  O444  1  0.42906580  0.08259142  0.19480842  1
  O2-  O445  1  0.39574632  0.08824637  0.51951698  1
  O2-  O446  1  0.41567210  0.07992122  0.85385816  1
  O2-  O447  1  0.39786241  0.29165886  0.21684954  1
  O2-  O448  1  0.40846201  0.32863253  0.52185933  1
  O2-  O449  1  0.41689281  0.32545741  0.84913523  1
  O2-  O450  1  0.37706203  0.56644525  0.19769476  1
  O2-  O451  1  0.44510575  0.55397932  0.54657786  1
  O2-  O452  1  0.43569236  0.57456100  0.84746754  1
  O2-  O453  1  0.40949941  0.84158589  0.18148667  1
  O2-  O454  1  0.45832021  0.85101759  0.52103424  1
  O2-  O455  1  0.41418593  0.82212952  0.84256328  1
  O2-  O456  1  0.66369751  0.09912764  0.18154536  1
  O2-  O457  1  0.69639682  0.09083136  0.52783453  1
  O2-  O458  1  0.70298656  0.05980398  0.86834033  1
  O2-  O459  1  0.65646375  0.32324611  0.18927041  1
  O2-  O460  1  0.66371262  0.32325286  0.52589318  1
  O2-  O461  1  0.66626646  0.32564040  0.85291991  1
  O2-  O462  1  0.62297328  0.55568602  0.19831223  1
  O2-  O463  1  0.66328089  0.57108410  0.51809621  1
  O2-  O464  1  0.67922599  0.58834954  0.85191549  1
  O2-  O465  1  0.66880840  0.82887169  0.15573583  1
  O2-  O466  1  0.68767853  0.81982367  0.54578926  1
  O2-  O467  1  0.65605272  0.84579983  0.86275440  1
  O2-  O468  1  0.92182411  0.09038862  0.18568979  1
  O2-  O469  1  0.93498995  0.10317028  0.50663789  1
  O2-  O470  1  0.92534396  0.08141460  0.84318243  1
  O2-  O471  1  0.92994360  0.35044737  0.18787177  1
  O2-  O472  1  0.91180281  0.33148356  0.53109806  1
  O2-  O473  1  0.92779681  0.33643893  0.82197574  1
  O2-  O474  1  0.90272061  0.56376632  0.20006772  1
  O2-  O475  1  0.91407637  0.57870740  0.51820907  1
  O2-  O476  1  0.90273614  0.58212982  0.87004422  1
  O2-  O477  1  0.93546134  0.81477588  0.14563600  1
  O2-  O478  1  0.87423613  0.81917312  0.53168326  1
  O2-  O479  1  0.91678788  0.82237088  0.84360797  1
  O2-  O480  1  0.15769700  0.07537132  0.31285589  1
  O2-  O481  1  0.14491799  0.08752965  0.64261817  1
  O2-  O482  1  0.15931769  0.08190785  0.96862353  1
  O2-  O483  1  0.16387174  0.32763070  0.31158206  1
  O2-  O484  1  0.17602936  0.31927220  0.64942405  1
  O2-  O485  1  0.16135381  0.33376786  0.98178183  1
  O2-  O486  1  0.13714680  0.58189287  0.31262233  1
  O2-  O487  1  0.16975487  0.58228196  0.64785198  1
  O2-  O488  1  0.13043346  0.57653523  0.97455687  1
  O2-  O489  1  0.15983118  0.82906949  0.32446999  1
  O2-  O490  1  0.16884638  0.84071971  0.64355782  1
  O2-  O491  1  0.15474120  0.83725504  0.97915392  1
  O2-  O492  1  0.42021982  0.07618715  0.31511331  1
  O2-  O493  1  0.41842548  0.09039776  0.64757200  1
  O2-  O494  1  0.41168022  0.08151734  0.97470402  1
  O2-  O495  1  0.41813545  0.34711934  0.33272741  1
  O2-  O496  1  0.41593151  0.32813854  0.64637595  1
  O2-  O497  1  0.40984433  0.31606259  0.97083816  1
  O2-  O498  1  0.40338588  0.59118128  0.31748989  1
  O2-  O499  1  0.42174068  0.58503811  0.66146028  1
  O2-  O500  1  0.43539180  0.55560132  0.96956361  1
  O2-  O501  1  0.42087941  0.84343494  0.30004115  1
  O2-  O502  1  0.42019983  0.83323524  0.64148192  1
  O2-  O503  1  0.41333601  0.85133111  0.96998219  1
  O2-  O504  1  0.67611191  0.10133343  0.30429155  1
  O2-  O505  1  0.66638266  0.07651676  0.65252273  1
  O2-  O506  1  0.66487619  0.08187398  0.97504995  1
  O2-  O507  1  0.66585428  0.32360534  0.31440202  1
  O2-  O508  1  0.66614204  0.32579691  0.64742872  1
  O2-  O509  1  0.66185488  0.32717684  0.97791003  1
  O2-  O510  1  0.65737195  0.60027513  0.32050088  1
  O2-  O511  1  0.66340459  0.57529884  0.64199527  1
  O2-  O512  1  0.68599728  0.59459324  0.96477055  1
  O2-  O513  1  0.66556433  0.84654851  0.32932084  1
  O2-  O514  1  0.68220694  0.83814348  0.65703837  1
  O2-  O515  1  0.66282545  0.82790894  0.98528842  1
  O2-  O516  1  0.92669925  0.09808277  0.31001843  1
  O2-  O517  1  0.95075326  0.08749387  0.63198852  1
  O2-  O518  1  0.91810554  0.08268888  0.96964196  1
  O2-  O519  1  0.92677396  0.34505820  0.31311404  1
  O2-  O520  1  0.89577680  0.32733199  0.65080588  1
  O2-  O521  1  0.91414880  0.33243849  0.97703512  1
  O2-  O522  1  0.90458777  0.57995405  0.32419056  1
  O2-  O523  1  0.90977934  0.56356464  0.64570445  1
  O2-  O524  1  0.87780944  0.50004752  0.99511053  1
  O2-  O525  1  0.92105401  0.84632255  0.32365825  1
  O2-  O526  1  0.92473340  0.84031847  0.65391226  1
  O2-  O527  1  0.90357241  0.82792935  0.96319960  1
  O2-  O528  1  0.08236172  0.16870656  0.01597263  1
  O2-  O529  1  0.09034923  0.16941719  0.35557250  1
  O2-  O530  1  0.10673264  0.13859066  0.66555981  1
  O2-  O531  1  0.07407336  0.41322694  0.01837202  1
  O2-  O532  1  0.08828937  0.40535966  0.36024532  1
  O2-  O533  1  0.10508733  0.42350253  0.69450514  1
  O2-  O534  1  0.07337063  0.67471120  0.02731240  1
  O2-  O535  1  0.07577899  0.66366660  0.36276642  1
  O2-  O536  1  0.07291152  0.66181696  0.68109884  1
  O2-  O537  1  0.06439616  0.90980110  0.00410185  1
  O2-  O538  1  0.07965717  0.91687967  0.36380094  1
  O2-  O539  1  0.08841359  0.92862076  0.68496855  1
  O2-  O540  1  0.32180232  0.15477870  0.01508196  1
  O2-  O541  1  0.33414335  0.16707583  0.32128525  1
  O2-  O542  1  0.34635571  0.17365769  0.69110708  1
  O2-  O543  1  0.32861568  0.40164500  0.00938301  1
  O2-  O544  1  0.33137156  0.42398218  0.35982301  1
  O2-  O545  1  0.33525387  0.40897246  0.69182001  1
  O2-  O546  1  0.30663589  0.67296570  -0.04112912  1
  O2-  O547  1  0.28933585  0.63794230  0.36364162  1
  O2-  O548  1  0.34550991  0.67621555  0.69114907  1
  O2-  O549  1  0.32274863  0.92131226  0.01921534  1
  O2-  O550  1  0.33038205  0.91099540  0.36205421  1
  O2-  O551  1  0.33554128  0.91360866  0.67999562  1
  O2-  O552  1  0.58277031  0.16361426  0.01487213  1
  O2-  O553  1  0.58203522  0.16032004  0.36010601  1
  O2-  O554  1  0.57933087  0.15668125  0.68711037  1
  O2-  O555  1  0.56791501  0.38851743  0.02832525  1
  O2-  O556  1  0.58702400  0.42461804  0.32964806  1
  O2-  O557  1  0.58552124  0.41322531  0.68565367  1
  O2-  O558  1  0.59334135  0.66169726  0.01879327  1
  O2-  O559  1  0.56711929  0.67355935  0.36480008  1
  O2-  O560  1  0.51495053  0.63567680  0.67450642  1
  O2-  O561  1  0.57212357  0.91839380  0.01731101  1
  O2-  O562  1  0.57906451  0.93335855  0.34657393  1
  O2-  O563  1  0.58940096  0.90860117  0.68097659  1
  O2-  O564  1  0.83507270  0.16209345  0.01111700  1
  O2-  O565  1  0.84014800  0.17567619  0.35289023  1
  O2-  O566  1  0.82698662  0.18032082  0.69620054  1
  O2-  O567  1  0.83294885  0.41421703  0.02349723  1
  O2-  O568  1  0.83127402  0.41354046  0.36072965  1
  O2-  O569  1  0.83135073  0.41370092  0.68784366  1
  O2-  O570  1  0.86738056  0.66082483  -0.01654844  1
  O2-  O571  1  0.82774093  0.67353656  0.35651116  1
  O2-  O572  1  0.82180923  0.67916240  0.70654160  1
  O2-  O573  1  0.82273399  0.89777495  0.00916923  1
  O2-  O574  1  0.83946925  0.93367856  0.35523680  1
  O2-  O575  1  0.84763010  0.92533772  0.68221722  1
