# generated using pymatgen
data_H2O
_symmetry_space_group_name_H-M   'P 1'
_cell_length_a   17.99749162
_cell_length_b   17.99191606
_cell_length_c   22.00248311
_cell_angle_alpha   89.99372733
_cell_angle_beta   90.00327548
_cell_angle_gamma   119.99353986
_symmetry_Int_Tables_number   1
_chemical_formula_structural   H2O
_chemical_formula_sum   'H384 O192'
_cell_volume   6170.49477933
_cell_formula_units_Z   192
loop_
 _symmetry_equiv_pos_site_id
 _symmetry_equiv_pos_as_xyz
  1  'x, y, z'
loop_
 _atom_type_symbol
 _atom_type_oxidation_number
  H+  1.0
  O2-  -2.0
loop_
 _atom_site_type_symbol
 _atom_site_label
 _atom_site_symmetry_multiplicity
 _atom_site_fract_x
 _atom_site_fract_y
 _atom_site_fract_z
 _atom_site_occupancy
  H+  H0  1  0.38072580  0.61334511  0.98624895  1
  H+  H1  1  0.35116685  0.14753802  0.01371373  1
  H+  H2  1  0.32396863  0.97735482  0.48522894  1
  H+  H3  1  0.40687077  0.36693350  0.90994220  1
  H+  H4  1  0.37618447  0.60900366  0.65600514  1
  H+  H5  1  0.86871854  0.22510127  0.82724410  1
  H+  H6  1  0.99465115  0.12570017  0.33796686  1
  H+  H7  1  1.02937209  0.14016955  0.17036725  1
  H+  H8  1  0.35797237  0.47414021  0.67967151  1
  H+  H9  1  0.88246553  0.98841090  0.35198892  1
  H+  H10  1  0.89747615  0.02642289  0.83855111  1
  H+  H11  1  0.21867837  0.85700797  0.83739974  1
  H+  H12  1  0.83209306  0.70887497  0.33363318  1
  H+  H13  1  0.33662752  0.11924357  0.50092356  1
  H+  H14  1  0.84089220  0.16213664  0.73386739  1
  H+  H15  1  0.24848256  0.04756880  0.52162191  1
  H+  H16  1  0.61855089  0.84098319  0.99435030  1
  H+  H17  1  0.81742656  0.90883674  0.51922753  1
  H+  H18  1  0.44089373  0.49922842  0.20688140  1
  H+  H19  1  0.51050504  0.64869279  0.67371494  1
  H+  H20  1  0.12290007  0.26375307  1.00318787  1
  H+  H21  1  0.35488351  0.72458435  0.66818360  1
  H+  H22  1  0.88888202  0.87085061  0.00023052  1
  H+  H23  1  0.11833357  0.47537833  1.00958000  1
  H+  H24  1  0.86721135  0.37697271  0.15499491  1
  H+  H25  1  0.78177637  0.38510026  0.15457126  1
  H+  H26  1  0.56723466  0.71634363  0.48718988  1
  H+  H27  1  0.86678265  0.72001541  0.14965825  1
  H+  H28  1  0.78504852  0.96163420  0.02895033  1
  H+  H29  1  0.23239063  0.37941496  0.51629548  1
  H+  H30  1  1.01285606  0.64154147  0.68493571  1
  H+  H31  1  1.00352157  0.12617183  0.50623439  1
  H+  H32  1  0.27950458  0.13731220  0.82780937  1
  H+  H33  1  1.01459087  0.39043905  0.82243238  1
  H+  H34  1  0.71905093  0.92950723  0.87175833  1
  H+  H35  1  0.59302140  -0.11551612  0.50360363  1
  H+  H36  1  0.11858874  0.38823738  0.67883888  1
  H+  H37  1  0.13063003  0.52259529  0.66123792  1
  H+  H38  1  0.65889464  0.15884493  0.49556789  1
  H+  H39  1  0.86162113  0.62880422  0.15784017  1
  H+  H40  1  0.35753034  0.60178156  0.15325892  1
  H+  H41  1  0.77440682  0.38104381  0.82252668  1
  H+  H42  1  0.73140392  0.61109471  0.66962105  1
  H+  H43  1  0.21741483  0.60276970  0.50788553  1
  H+  H44  1  0.63672790  0.30255796  0.16893120  1
  H+  H45  1  0.12900299  0.52679297  0.32956926  1
  H+  H46  1  0.92254692  0.59662813  1.00405844  1
  H+  H47  1  0.10510672  0.63529937  0.33812176  1
  H+  H48  1  0.61306599  0.40371642  0.47895092  1
  H+  H49  1  0.76705923  0.38556685  0.33474354  1
  H+  H50  1  0.11256724  0.22520996  0.68489849  1
  H+  H51  1  0.12954989  0.26673144  0.17278803  1
  H+  H52  1  0.38948668  0.19521312  0.34347180  1
  H+  H53  1  0.77852176  0.13680871  1.00588960  1
  H+  H54  1  0.70620064  0.84068668  0.99718465  1
  H+  H55  1  0.83324858  0.63810492  0.99669846  1
  H+  H56  1  0.90332622  0.12213363  0.33671190  1
  H+  H57  1  0.38597590  0.52810942  0.82338749  1
  H+  H58  1  0.21826767  0.35659747  0.16560582  1
  H+  H59  1  0.61597469  0.49399909  -0.00781366  1
  H+  H60  1  0.48185136  0.84552195  0.33952049  1
  H+  H61  1  0.86151759  0.87529448  0.14429357  1
  H+  H62  1  0.48749505  0.40517099  0.18462991  1
  H+  H63  1  0.78066164  0.14052957  0.33922568  1
  H+  H64  1  0.78732766  0.39244039  0.66815388  1
  H+  H65  1  0.21583918  0.34229626  1.00487297  1
  H+  H66  1  0.61939202  0.49458976  0.67238643  1
  H+  H67  1  0.52466490  0.40401309  0.49090440  1
  H+  H68  1  0.22718375  0.84317531  0.50088699  1
  H+  H69  1  0.78832571  0.88727214  0.82344570  1
  H+  H70  1  0.12124927  0.14479454  0.16628348  1
  H+  H71  1  0.67365402  0.08656576  0.93078002  1
  H+  H72  1  0.31762433  0.29778334  0.02266569  1
  H+  H73  1  0.17044487  0.84186863  0.92620156  1
  H+  H74  1  0.86440162  0.38057124  -0.00150338  1
  H+  H75  1  0.35280260  0.88658846  0.66903395  1
  H+  H76  1  0.10745131  0.48496096  0.82147179  1
  H+  H77  1  0.10311636  0.92991610  0.10511063  1
  H+  H78  1  1.02078743  0.38007772  0.49519214  1
  H+  H79  1  0.63974034  0.02615025  0.51011615  1
  H+  H80  1  0.01538089  0.85674972  0.30352334  1
  H+  H81  1  0.60214406  0.16519868  0.16171567  1
  H+  H82  1  0.91021828  0.12123524  0.50375616  1
  H+  H83  1  0.78067423  0.13342390  0.67511458  1
  H+  H84  1  0.85530720  0.50164731  -0.01119833  1
  H+  H85  1  0.47441588  0.15397951  0.17854684  1
  H+  H86  1  0.51499572  0.61649445  0.16049492  1
  H+  H87  1  0.64161689  0.23034298  0.72535331  1
  H+  H88  1  0.47886727  0.08624689  0.52024446  1
  H+  H89  1  0.12464733  0.89503066  1.00518121  1
  H+  H90  1  0.68371629  0.83674156  0.50473839  1
  H+  H91  1  0.72706746  0.61595257  0.17121425  1
  H+  H92  1  0.63015365  0.84585928  0.17931698  1
  H+  H93  1  0.83772967  0.15834038  0.10284124  1
  H+  H94  1  0.63808152  0.53996647  0.50407557  1
  H+  H95  1  0.88515238  0.76447630  0.50746854  1
  H+  H96  1  0.61393112  0.70431820  0.82529827  1
  H+  H97  1  0.83900641  0.61652797  0.82533358  1
  H+  H98  1  0.34827518  0.02589513  0.16178305  1
  H+  H99  1  0.23224654  0.61381916  0.17649778  1
  H+  H100  1  0.98186983  0.61843769  0.51018187  1
  H+  H101  1  0.34701322  0.17463676  0.73279126  1
  H+  H102  1  0.07292318  0.66023601  0.39822731  1
  H+  H103  1  0.97740023  0.36362296  0.32542369  1
  H+  H104  1  0.85066932  0.62974335  0.33394362  1
  H+  H105  1  0.36990201  0.85800932  0.50482544  1
  H+  H106  1  0.89239271  0.10886427  0.65809409  1
  H+  H107  1  0.89035500  0.35319366  0.66116961  1
  H+  H108  1  0.40004594  0.28766882  0.66109692  1
  H+  H109  1  0.26143292  0.62750194  0.34550048  1
  H+  H110  1  0.64203688  1.02233135  -0.01321944  1
  H+  H111  1  0.89651545  0.26748206  0.65994771  1
  H+  H112  1  0.61030119  1.00658433  0.33356011  1
  H+  H113  1  0.60966791  0.13780790  0.34304123  1
  H+  H114  1  0.23230329  0.84476039  0.32588715  1
  H+  H115  1  0.86677248  0.23119380  0.33799027  1
  H+  H116  1  0.19119176  0.33738041  0.26244923  1
  H+  H117  1  0.48630426  0.37998665  0.66365103  1
  H+  H118  1  0.76970857  0.86002472  0.16429392  1
  H+  H119  1  0.84780461  0.71118471  0.68833747  1
  H+  H120  1  0.20995560  0.86098559  0.66599953  1
  H+  H121  1  0.27648898  0.62873223  0.00166862  1
  H+  H122  1  0.13106882  0.14686637  0.34447364  1
  H+  H123  1  0.99783567  0.84341818  0.33544199  1
  H+  H124  1  -0.02658644  0.60783139  0.83938758  1
  H+  H125  1  0.97013983  0.61131061  0.32340095  1
  H+  H126  1  1.01394093  0.88531556  0.68607104  1
  H+  H127  1  0.67168146  0.36209518  0.22676903  1
  H+  H128  1  0.34453798  0.97119933  0.66379176  1
  H+  H129  1  0.43505478  0.09060258  0.61160071  1
  H+  H130  1  0.46721741  0.86296277  0.65683686  1
  H+  H131  1  0.37382165  0.21714251  0.83368654  1
  H+  H132  1  0.87622989  0.85671121  0.66326119  1
  H+  H133  1  1.03543291  0.89450033  1.01302531  1
  H+  H134  1  0.50848392  0.89148662  0.49812055  1
  H+  H135  1  0.12225849  0.97850992  0.82782973  1
  H+  H136  1  0.87098873  0.13694164  0.82964157  1
  H+  H137  1  0.14142912  0.09435743  0.50798579  1
  H+  H138  1  0.38629051  0.07617585  0.34351905  1
  H+  H139  1  0.92895891  0.83387881  0.08957594  1
  H+  H140  1  0.73317673  0.11204568  0.83936137  1
  H+  H141  1  0.51284947  0.87914444  -0.00261497  1
  H+  H142  1  0.25395790  0.13635004  1.01247529  1
  H+  H143  1  0.24999774  0.17200892  0.65277025  1
  H+  H144  1  0.16573556  0.91184012  0.35044968  1
  H+  H145  1  0.89394721  0.52023833  0.16681523  1
  H+  H146  1  0.60744894  0.62764377  0.15236060  1
  H+  H147  1  0.15291747  0.78856409  0.98917659  1
  H+  H148  1  0.56123958  0.64455834  0.06246292  1
  H+  H149  1  0.87989043  0.38667124  0.49168067  1
  H+  H150  1  0.57208877  0.42264614  0.06359806  1
  H+  H151  1  0.55505867  0.18655352  0.69030997  1
  H+  H152  1  0.98716760  0.11603792  0.84335188  1
  H+  H153  1  0.63236842  0.27955151  0.32983851  1
  H+  H154  1  0.15313484  0.61613044  0.99337291  1
  H+  H155  1  0.53540962  0.37530100  -0.00286529  1
  H+  H156  1  0.49954714  0.82782964  0.18376827  1
  H+  H157  1  0.72114537  0.86740974  0.65920318  1
  H+  H158  1  0.54801157  0.65562786  0.38229864  1
  H+  H159  1  0.18530669  0.12387308  0.60091943  1
  H+  H160  1  0.13089015  0.86112394  0.84053330  1
  H+  H161  1  0.28659636  0.45301292  0.32715435  1
  H+  H162  1  0.60376982  0.11619009  1.00857572  1
  H+  H163  1  0.48712389  0.14182888  0.33994992  1
  H+  H164  1  0.12519454  0.40803195  0.34468555  1
  H+  H165  1  0.63540087  0.26670883  0.82984599  1
  H+  H166  1  0.13300838  0.23112936  0.50048197  1
  H+  H167  1  0.11535003  0.38411354  0.01088716  1
  H+  H168  1  0.38341573  0.76923348  0.99008733  1
  H+  H169  1  0.36057433  0.17064494  0.16130560  1
  H+  H170  1  0.86688424  0.13561795  0.00459343  1
  H+  H171  1  0.84611563  0.84536657  0.32445057  1
  H+  H172  1  0.67256382  0.58803292  0.60773765  1
  H+  H173  1  0.12267395  0.77391345  0.67146193  1
  H+  H174  1  0.11351702  0.71210400  0.49097508  1
  H+  H175  1  0.35791227  0.70766781  0.34808056  1
  H+  H176  1  0.75043415  0.90278353  0.33433959  1
  H+  H177  1  0.86049017  0.97424838  0.66860125  1
  H+  H178  1  0.72665777  0.35036075  -0.01671177  1
  H+  H179  1  0.59023409  0.04690637  0.27592597  1
  H+  H180  1  0.22986984  0.37253410  0.66951697  1
  H+  H181  1  0.88592202  0.77940590  1.00252854  1
  H+  H182  1  0.68271100  -0.02067404  0.19552908  1
  H+  H183  1  0.38174593  0.26674029  0.49937315  1
  H+  H184  1  0.15032239  0.62548194  0.17548596  1
  H+  H185  1  0.37984054  0.89125489  0.14453976  1
  H+  H186  1  0.41643152  0.45580249  0.89299314  1
  H+  H187  1  0.08313426  0.16799004  0.77728570  1
  H+  H188  1  1.02032411  0.85958799  0.51159321  1
  H+  H189  1  0.86411285  0.47107459  0.82507549  1
  H+  H190  1  0.36997256  0.94589730  0.31997132  1
  H+  H191  1  0.74980870  0.40242888  0.49284731  1
  H+  H192  1  0.12345089  0.22205301  0.83879107  1
  H+  H193  1  0.62407736  0.90142687  0.35155913  1
  H+  H194  1  0.83235389  0.66308825  0.43144767  1
  H+  H195  1  0.34439775  0.87378655  0.82048110  1
  H+  H196  1  0.39268525  0.28482705  0.34629277  1
  H+  H197  1  0.65696141  0.11382294  0.18273582  1
  H+  H198  1  0.88627985  0.36166214  0.83696123  1
  H+  H199  1  0.11556530  0.36827593  0.16131745  1
  H+  H200  1  0.01940781  0.37100128  0.15987244  1
  H+  H201  1  0.36020863  0.63532663  0.82155748  1
  H+  H202  1  0.14131433  0.83083386  0.52864019  1
  H+  H203  1  0.71067290  0.60134288  0.32517546  1
  H+  H204  1  0.88049925  0.62455190  0.67680242  1
  H+  H205  1  0.35849684  0.38726201  0.67917347  1
  H+  H206  1  0.41299445  0.58010453  0.92295930  1
  H+  H207  1  0.22036009  0.60906080  0.83624392  1
  H+  H208  1  0.62526969  0.50734996  0.83781150  1
  H+  H209  1  0.38707395  0.36975967  0.19372141  1
  H+  H210  1  0.89348150  0.27286376  0.99202772  1
  H+  H211  1  0.13796672  1.02632567  -0.00159416  1
  H+  H212  1  0.47411465  0.12574986  0.51702665  1
  H+  H213  1  0.88816014  0.26811622  0.50855084  1
  H+  H214  1  0.59434219  0.70568082  0.00323936  1
  H+  H215  1  0.45930525  0.11938242  0.00077097  1
  H+  H216  1  1.03058997  0.64189516  0.15557468  1
  H+  H217  1  0.88679147  0.36133732  0.32025232  1
  H+  H218  1  0.18985480  0.05761499  0.33599996  1
  H+  H219  1  0.58013121  0.17290302  0.50000543  1
  H+  H220  1  0.61772385  0.40395619  0.66843082  1
  H+  H221  1  0.90911964  0.12187763  0.18178894  1
  H+  H222  1  1.02247179  0.13927607  0.68313404  1
  H+  H223  1  0.11816797  0.89280826  0.16775503  1
  H+  H224  1  1.02024266  0.13272535  1.01220639  1
  H+  H225  1  0.11740099  0.73334630  0.15932130  1
  H+  H226  1  0.60599502  0.38325200  0.81907499  1
  H+  H227  1  0.62964209  0.27494899  -0.01953637  1
  H+  H228  1  0.89459022  1.02372766  -0.01109609  1
  H+  H229  1  0.37314455  0.03136034  0.99502032  1
  H+  H230  1  0.10896864  0.72296458  0.83215029  1
  H+  H231  1  0.90307614  0.86178942  0.51078907  1
  H+  H232  1  0.86771770  0.64008343  0.49245096  1
  H+  H233  1  0.46710890  0.86006368  0.83223017  1
  H+  H234  1  0.34568771  0.38104881  -0.01569292  1
  H+  H235  1  0.60852039  0.89168254  0.66823313  1
  H+  H236  1  0.89257068  0.26565715  0.17266027  1
  H+  H237  1  0.39573640  0.11406256  0.84034755  1
  H+  H238  1  0.88269975  0.52103542  0.32043035  1
  H+  H239  1  0.65718291  0.30313981  0.64095935  1
  H+  H240  1  0.78579543  0.13097704  0.49581846  1
  H+  H241  1  0.11911572  0.99705738  0.52234070  1
  H+  H242  1  0.63602775  0.74036515  0.19702168  1
  H+  H243  1  0.64217957  0.11095499  0.84238307  1
  H+  H244  1  0.66269149  0.58482245  0.22945790  1
  H+  H245  1  -0.01845582  0.36253580  -0.00714729  1
  H+  H246  1  0.36211047  0.14104760  0.66842028  1
  H+  H247  1  0.14405336  0.11612288  0.83999599  1
  H+  H248  1  0.25069020  0.33954209  0.86792030  1
  H+  H249  1  0.22369137  0.88126601  0.17630241  1
  H+  H250  1  0.26169296  0.14915846  0.16108171  1
  H+  H251  1  0.34920166  0.85224006  0.12590672  1
  H+  H252  1  0.34737513  0.62139908  0.49811763  1
  H+  H253  1  0.61128546  0.87506702  0.11651484  1
  H+  H254  1  0.67318938  0.30783325  0.49480746  1
  H+  H255  1  0.60918604  0.49381689  0.15339711  1
  H+  H256  1  0.38264577  0.85906461  0.98812410  1
  H+  H257  1  0.60758264  0.97805301  0.82369377  1
  H+  H258  1  0.61491312  0.07272980  0.17628362  1
  H+  H259  1  0.37041019  0.86187487  0.33853854  1
  H+  H260  1  0.13121242  0.11300685  -0.00072576  1
  H+  H261  1  0.40621167  0.40129308  0.52079116  1
  H+  H262  1  0.83571348  0.40247402  0.73174073  1
  H+  H263  1  0.34715240  0.45412959  0.15277697  1
  H+  H264  1  0.62650316  0.78159959  0.66364378  1
  H+  H265  1  0.21779577  0.61189536  0.65762081  1
  H+  H266  1  0.92949407  0.08490847  0.59953174  1
  H+  H267  1  0.63622851  0.02535997  0.66126397  1
  H+  H268  1  0.79522235  0.11600363  0.16811733  1
  H+  H269  1  0.73060048  0.61957806  0.50839232  1
  H+  H270  1  0.10106620  0.63629404  0.67927219  1
  H+  H271  1  0.37235839  0.76936646  0.50524488  1
  H+  H272  1  0.49194416  0.62097272  0.48156987  1
  H+  H273  1  0.89827850  0.99613736  0.50082793  1
  H+  H274  1  0.60280814  0.88848243  0.82213481  1
  H+  H275  1  0.61178108  0.61329584  0.83194524  1
  H+  H276  1  0.47414858  0.60749293  0.98875829  1
  H+  H277  1  0.13412344  0.76872825  0.32965613  1
  H+  H278  1  0.58030271  0.42058213  0.76279595  1
  H+  H279  1  0.27563518  0.89274860  -0.00534127  1
  H+  H280  1  0.51947679  0.12834545  0.83855790  1
  H+  H281  1  0.38001740  0.69796900  0.16107813  1
  H+  H282  1  0.13833520  0.36363468  0.50834747  1
  H+  H283  1  0.61683057  0.59112556  0.98360038  1
  H+  H284  1  0.05747754  0.65283207  0.00276116  1
  H+  H285  1  0.16695198  0.58914162  0.27089788  1
  H+  H286  1  0.99193870  0.88025505  0.84372500  1
  H+  H287  1  0.89218715  0.53652003  0.52800684  1
  H+  H288  1  0.09792162  0.93776267  0.36721410  1
  H+  H289  1  0.41264240  0.82930102  0.18053180  1
  H+  H290  1  0.92615906  0.61280136  0.61620371  1
  H+  H291  1  0.92429485  0.08443828  0.93005629  1
  H+  H292  1  0.93827399  0.09634004  0.24353656  1
  H+  H293  1  0.16997571  0.83424452  0.23689294  1
  H+  H294  1  0.43280071  0.36061551  0.57560630  1
  H+  H295  1  0.44233990  0.57865106  0.32501101  1
  H+  H296  1  0.10445454  0.67915360  0.06687835  1
  H+  H297  1  0.60576678  0.40482938  0.15402254  1
  H+  H298  1  0.60412038  0.18021379  0.40539011  1
  H+  H299  1  0.57924515  0.91764349  0.41179727  1
  H+  H300  1  0.35235911  0.21841427  0.43502541  1
  H+  H301  1  0.34462815  0.06124143  0.58260224  1
  H+  H302  1  0.10219474  0.61883603  0.48979341  1
  H+  H303  1  0.09546581  0.89170551  0.46131131  1
  H+  H304  1  0.61950903  0.51592442  0.31985622  1
  H+  H305  1  0.65077465  0.56142699  0.92062091  1
  H+  H306  1  0.13684624  0.23646929  0.34246756  1
  H+  H307  1  0.80908397  0.90751781  0.07367386  1
  H+  H308  1  0.35998147  0.58920298  0.32627257  1
  H+  H309  1  0.72248650  0.59877031  0.83673407  1
  H+  H310  1  0.32542305  0.66319767  0.72642867  1
  H+  H311  1  0.93411757  0.85605401  0.90364117  1
  H+  H312  1  0.08408024  0.40749197  0.09799979  1
  H+  H313  1  0.84225618  0.16654157  0.43547783  1
  H+  H314  1  0.83248569  0.40436026  0.05958079  1
  H+  H315  1  0.92342469  0.32955675  0.23036014  1
  H+  H316  1  0.08185920  0.91651249  0.76861920  1
  H+  H317  1  0.07768680  0.41733303  0.40177764  1
  H+  H318  1  0.92043721  0.47654642  0.45920802  1
  H+  H319  1  0.27774978  0.99767327  0.11185403  1
  H+  H320  1  0.46449815  0.39390944  0.28892179  1
  H+  H321  1  0.07729363  0.41985287  0.75359357  1
  H+  H322  1  0.13270982  0.61356184  0.84027958  1
  H+  H323  1  0.57221276  0.18158738  0.09968040  1
  H+  H324  1  0.32216928  0.65174430  0.43810776  1
  H+  H325  1  0.16955637  0.34372678  0.60964293  1
  H+  H326  1  0.84707646  0.92595179  0.41031884  1
  H+  H327  1  0.48384999  0.60430212  0.83512234  1
  H+  H328  1  0.42059463  0.12906669  0.24078723  1
  H+  H329  1  0.67944269  0.08602048  0.56891980  1
  H+  H330  1  0.88803914  0.82322854  0.27007739  1
  H+  H331  1  0.18098810  0.09650707  0.24025816  1
  H+  H332  1  0.10252221  0.88630334  0.68306396  1
  H+  H333  1  0.72100862  0.94288782  0.28163149  1
  H+  H334  1  0.64863766  0.12066361  0.66112813  1
  H+  H335  1  0.57901877  0.66554101  0.72525157  1
  H+  H336  1  0.10531451  0.17761468  0.43866537  1
  H+  H337  1  0.69976191  0.04542090  0.24869898  1
  H+  H338  1  0.33107667  0.92056022  0.05553491  1
  H+  H339  1  0.52381900  0.06213391  0.04904331  1
  H+  H340  1  0.40483340  0.83053064  0.59917688  1
  H+  H341  1  0.40448017  0.56855216  0.60237725  1
  H+  H342  1  0.32038149  0.38763092  0.09616914  1
  H+  H343  1  0.88118856  0.89600464  0.82732884  1
  H+  H344  1  0.40409765  0.55123785  0.23937697  1
  H+  H345  1  0.91108553  0.82196507  0.61050156  1
  H+  H346  1  1.02304846  0.38103719  0.67503294  1
  H+  H347  1  0.80848902  0.64388141  0.76241198  1
  H+  H348  1  0.67721808  0.81438412  0.25128877  1
  H+  H349  1  0.66767726  0.32929004  0.88603058  1
  H+  H350  1  0.56227780  0.12086506  0.77754179  1
  H+  H351  1  0.42238649  0.10035418  0.90563129  1
  H+  H352  1  0.57543457  0.91964380  0.72676506  1
  H+  H353  1  0.07910295  0.16226051  0.07365407  1
  H+  H354  1  0.82698465  0.66751497  0.06342763  1
  H+  H355  1  0.31715611  0.17542826  0.08374739  1
  H+  H356  1  0.42988081  0.80589564  0.27752044  1
  H+  H357  1  0.90726426  0.57437234  0.89533597  1
  H+  H358  1  0.10871133  0.47031528  0.49481914  1
  H+  H359  1  0.68645898  0.36961427  0.58665481  1
  H+  H360  1  0.31515882  0.90844095  0.76432722  1
  H+  H361  1  0.17467513  0.32502689  0.90938865  1
  H+  H362  1  0.17062074  0.57922891  0.93194738  1
  H+  H363  1  0.62204461  0.36211491  0.32846562  1
  H+  H364  1  0.08030614  0.66352312  0.77187901  1
  H+  H365  1  0.91805255  0.57886357  0.22661303  1
  H+  H366  1  0.33932297  0.65428394  0.06060537  1
  H+  H367  1  0.33197084  0.92424566  0.42859929  1
  H+  H368  1  0.35724206  0.72219591  0.82179506  1
  H+  H369  1  0.15596941  0.57455689  0.56647929  1
  H+  H370  1  0.58258908  0.61985043  0.33007051  1
  H+  H371  1  0.56743822  0.92569364  0.05524752  1
  H+  H372  1  0.98710269  0.86683977  0.14764993  1
  H+  H373  1  0.55799789  0.41662769  0.39447277  1
  H+  H374  1  0.83314406  0.91765868  0.72921590  1
  H+  H375  1  0.66582141  0.84019477  0.90242121  1
  H+  H376  1  0.64668895  0.82800697  0.57300103  1
  H+  H377  1  0.83243811  0.41021289  0.39033707  1
  H+  H378  1  0.92246758  0.33474824  0.89547185  1
  H+  H379  1  0.25699281  0.15715597  0.32688466  1
  H+  H380  1  0.14359275  0.03140605  0.18208872  1
  H+  H381  1  0.91757828  0.32796337  0.56880377  1
  H+  H382  1  0.40930751  0.82649584  0.89189647  1
  H+  H383  1  0.17550759  0.08858101  0.89898200  1
  O2-  O384  1  0.08928889  0.17228339  0.14966198  1
  O2-  O385  1  0.10235849  0.17160404  0.48372571  1
  O2-  O386  1  0.08730572  0.16184456  0.82330104  1
  O2-  O387  1  0.08138640  0.39976596  0.14426176  1
  O2-  O388  1  0.07980997  0.41035786  0.47763136  1
  O2-  O389  1  0.07506780  0.42424840  0.80430302  1
  O2-  O390  1  0.09124476  0.67491269  0.14085506  1
  O2-  O391  1  0.07386225  0.65116915  0.47477866  1
  O2-  O392  1  0.08169062  0.66174194  0.81849931  1
  O2-  O393  1  0.09580369  0.92942486  0.15022228  1
  O2-  O394  1  0.08459681  0.89071941  0.50488743  1
  O2-  O395  1  0.08795028  0.91720994  0.81601998  1
  O2-  O396  1  0.31991575  0.18496534  0.14025870  1
  O2-  O397  1  0.35742030  0.21003450  0.47879205  1
  O2-  O398  1  0.33997165  0.16302107  0.81192666  1
  O2-  O399  1  0.31159048  0.39316317  0.14019287  1
  O2-  O400  1  0.34830380  0.46223005  0.50218729  1
  O2-  O401  1  0.37537949  0.39917243  0.90872458  1
  O2-  O402  1  0.34167171  0.64354032  0.13884787  1
  O2-  O403  1  0.32305490  0.65686076  0.48370219  1
  O2-  O404  1  0.32568106  0.66064844  0.80767723  1
  O2-  O405  1  0.30698735  0.97559067  0.13693437  1
  O2-  O406  1  0.32690267  0.92509758  0.47309492  1
  O2-  O407  1  0.31066195  0.90113166  0.80925695  1
  O2-  O408  1  0.57469718  0.19551214  0.14371822  1
  O2-  O409  1  0.63601702  0.19658951  0.47964495  1
  O2-  O410  1  0.57889341  0.14894611  0.81709013  1
  O2-  O411  1  0.57261398  0.43209459  0.13955965  1
  O2-  O412  1  0.57770598  0.42800169  0.46446813  1
  O2-  O413  1  0.57688556  0.41565037  0.80831490  1
  O2-  O414  1  0.57119801  0.65321546  0.13961579  1
  O2-  O415  1  0.53556818  0.66964612  0.45807265  1
  O2-  O416  1  0.57811278  0.64330098  0.81709091  1
  O2-  O417  1  0.60315324  0.87935991  0.15990223  1
  O2-  O418  1  0.57065504  0.92124606  0.48623550  1
  O2-  O419  1  0.57306370  0.91856355  0.80695596  1
  O2-  O420  1  0.84580534  0.16349688  0.14784871  1
  O2-  O421  1  0.84596732  0.16471056  0.48053782  1
  O2-  O422  1  0.83732396  0.16367371  0.81410611  1
  O2-  O423  1  0.84068234  0.40974868  0.13791173  1
  O2-  O424  1  0.86482372  0.42788674  0.47044373  1
  O2-  O425  1  0.83665885  0.40950416  0.81131102  1
  O2-  O426  1  0.82904182  0.65714545  0.14361707  1
  O2-  O427  1  0.83662882  0.66902886  0.47656182  1
  O2-  O428  1  0.80215556  0.63925148  0.81169319  1
  O2-  O429  1  0.82082888  0.89717730  0.13938909  1
  O2-  O430  1  0.86372994  0.93217285  0.48957142  1
  O2-  O431  1  0.84731940  0.92257884  0.80859474  1
  O2-  O432  1  0.17385366  0.09306481  0.19465605  1
  O2-  O433  1  0.15984405  0.05877031  0.53035153  1
  O2-  O434  1  0.17842689  0.08868983  0.85419021  1
  O2-  O435  1  0.15914426  0.33027629  0.18534115  1
  O2-  O436  1  0.17182987  0.33876522  0.52665692  1
  O2-  O437  1  0.18994386  0.32276456  0.86641239  1
  O2-  O438  1  0.17657537  0.59534219  0.19603189  1
  O2-  O439  1  0.15580929  0.57098010  0.52081890  1
  O2-  O440  1  0.16100419  0.57897061  0.85353010  1
  O2-  O441  1  0.16638173  0.83716815  0.19134110  1
  O2-  O442  1  0.17329537  0.80040887  0.52090626  1
  O2-  O443  1  0.15923835  0.82895789  0.85746912  1
  O2-  O444  1  0.41534976  0.12779753  0.19573074  1
  O2-  O445  1  0.30818503  0.05757031  0.51684329  1
  O2-  O446  1  0.43086066  0.09381379  0.86216979  1
  O2-  O447  1  0.44302580  0.40058033  0.21441956  1
  O2-  O448  1  0.43463523  0.36767695  0.52953001  1
  O2-  O449  1  0.46574633  0.25761816  0.91158749  1
  O2-  O450  1  0.42248447  0.54208758  0.19741584  1
  O2-  O451  1  0.38463736  0.54225003  0.52014700  1
  O2-  O452  1  0.42054515  0.57719209  0.84981010  1
  O2-  O453  1  0.43820783  0.79686025  0.19789211  1
  O2-  O454  1  0.40214607  0.83018005  0.51956857  1
  O2-  O455  1  0.40698533  0.82361017  0.84692644  1
  O2-  O456  1  0.72840103  0.02408119  0.22132748  1
  O2-  O457  1  0.68110837  0.08636669  0.52327032  1
  O2-  O458  1  0.67293049  0.08005340  0.85587039  1
  O2-  O459  1  0.67328795  0.36327710  0.18175235  1
  O2-  O460  1  0.68961802  0.36767362  0.50564863  1
  O2-  O461  1  0.66724125  0.32826617  0.84021544  1
  O2-  O462  1  0.66542245  0.58874494  0.18359312  1
  O2-  O463  1  0.67241722  0.59411410  0.52614652  1
  O2-  O464  1  0.65678082  0.56786687  0.85630802  1
  O2-  O465  1  0.67462340  0.80153234  0.20708051  1
  O2-  O466  1  0.63199024  0.82229025  0.52754383  1
  O2-  O467  1  0.68177438  0.86898419  0.86179372  1
  O2-  O468  1  0.94197348  0.09603875  0.19847803  1
  O2-  O469  1  0.94129115  0.09266924  0.52011242  1
  O2-  O470  1  0.92439659  0.08540252  0.85668276  1
  O2-  O471  1  0.92417818  0.32793576  0.18466696  1
  O2-  O472  1  0.91545689  0.32893827  0.52288127  1
  O2-  O473  1  0.92118044  0.33394689  0.85006792  1
  O2-  O474  1  0.92146140  0.58078449  0.18102931  1
  O2-  O475  1  0.92342458  0.59911394  0.52858454  1
  O2-  O476  1  0.91145021  0.57261090  0.85064964  1
  O2-  O477  1  0.92577024  0.83096408  0.13433522  1
  O2-  O478  1  0.92058062  0.82199496  0.52784824  1
  O2-  O479  1  0.93172103  0.85826169  0.85942181  1
  O2-  O480  1  0.19774304  0.11021031  0.31519412  1
  O2-  O481  1  0.20207002  0.17059675  0.63040932  1
  O2-  O482  1  0.16670076  0.08760358  0.98438693  1
  O2-  O483  1  0.21453195  0.33181708  0.30236902  1
  O2-  O484  1  0.16844951  0.34809530  0.65454441  1
  O2-  O485  1  0.15730515  0.32552607  0.99016040  1
  O2-  O486  1  0.16154953  0.58819291  0.31662777  1
  O2-  O487  1  0.15669224  0.58113998  0.64364468  1
  O2-  O488  1  0.17685256  0.58026375  0.97750248  1
  O2-  O489  1  0.17284926  0.82881941  0.31394046  1
  O2-  O490  1  0.14844583  0.83330453  0.65542229  1
  O2-  O491  1  0.17741219  0.84778776  0.97330134  1
  O2-  O492  1  0.42971779  0.12610729  0.32152255  1
  O2-  O493  1  0.37530027  0.06686998  0.62333830  1
  O2-  O494  1  0.39889941  0.09442686  0.98826871  1
  O2-  O495  1  0.46582194  0.38786921  0.33434485  1
  O2-  O496  1  0.42551388  0.34844863  0.64734127  1
  O2-  O497  1  0.45610534  0.31139169  0.94488589  1
  O2-  O498  1  0.38022700  0.55035530  0.31016605  1
  O2-  O499  1  0.40959926  0.57977188  0.64659481  1
  O2-  O500  1  0.41231720  0.58222323  0.96928942  1
  O2-  O501  1  0.42266866  0.81173188  0.32177811  1
  O2-  O502  1  0.40574323  0.83059922  0.64452649  1
  O2-  O503  1  0.41395072  0.82911971  0.97423542  1
  O2-  O504  1  0.63240863  0.06163244  0.30832899  1
  O2-  O505  1  0.67399290  0.08639377  0.64666707  1
  O2-  O506  1  0.67056890  0.08419633  0.97680985  1
  O2-  O507  1  0.65870402  0.33922623  0.31381568  1
  O2-  O508  1  0.68454141  0.36462784  0.63172112  1
  O2-  O509  1  0.67167457  0.32753606  0.96068458  1
  O2-  O510  1  0.65338604  0.57592736  0.30485279  1
  O2-  O511  1  0.66911153  0.58365686  0.65268321  1
  O2-  O512  1  0.64585109  0.55990372  0.96951841  1
  O2-  O513  1  0.69905973  0.89325068  0.30967753  1
  O2-  O514  1  0.66047388  0.84074684  0.64390561  1
  O2-  O515  1  0.64694800  0.80934954  0.97918984  1
  O2-  O516  1  0.93352635  0.09124046  0.32408821  1
  O2-  O517  1  0.92074221  0.07636577  0.64421075  1
  O2-  O518  1  0.92177101  0.08423349  0.97647543  1
  O2-  O519  1  0.91792863  0.33070390  0.30797741  1
  O2-  O520  1  0.92598186  0.32773466  0.64451256  1
  O2-  O521  1  0.92255718  0.33230669  0.97520776  1
  O2-  O522  1  0.91116980  0.58108373  0.30505095  1
  O2-  O523  1  0.92432635  0.60638786  0.66047120  1
  O2-  O524  1  0.87729582  0.56283156  0.97511774  1
  O2-  O525  1  0.83988390  0.79749093  0.29817162  1
  O2-  O526  1  0.90903893  0.82685017  0.65517307  1
  O2-  O527  1  0.92524316  0.84475527  0.99942611  1
  O2-  O528  1  0.08040586  0.16226434  0.02782817  1
  O2-  O529  1  0.10093600  0.17750128  0.35902038  1
  O2-  O530  1  0.06763915  0.18072164  0.71052567  1
  O2-  O531  1  0.08551202  0.41570639  0.02597239  1
  O2-  O532  1  0.07921481  0.42052749  0.35590645  1
  O2-  O533  1  0.08221871  0.41560255  0.69372533  1
  O2-  O534  1  0.11432792  0.68180516  0.02111811  1
  O2-  O535  1  0.07350332  0.66501750  0.35256776  1
  O2-  O536  1  0.07593920  0.66686490  0.70054160  1
  O2-  O537  1  0.09683515  0.92495756  0.02566875  1
  O2-  O538  1  0.15858995  0.95660455  0.37255762  1
  O2-  O539  1  0.07404202  0.91713988  0.70116550  1
  O2-  O540  1  0.31552357  0.17208958  0.03058863  1
  O2-  O541  1  0.35459700  0.22179879  0.35392114  1
  O2-  O542  1  0.35228015  0.18480579  0.68823971  1
  O2-  O543  1  0.31681536  0.35182240  0.02304075  1
  O2-  O544  1  0.22615600  0.40693624  0.33656515  1
  O2-  O545  1  0.32671550  0.41479501  0.69581024  1
  O2-  O546  1  0.33887986  0.65925541  0.01512342  1
  O2-  O547  1  0.32064088  0.64745982  0.36185181  1
  O2-  O548  1  0.32412896  0.66295679  0.68120817  1
  O2-  O549  1  0.33696034  0.92155019  0.01112019  1
  O2-  O550  1  0.34088868  0.89638790  0.34671859  1
  O2-  O551  1  0.32260515  0.91576821  0.68555692  1
  O2-  O552  1  0.55779242  0.11994283  0.03235376  1
  O2-  O553  1  0.58864030  0.17455061  0.36115942  1
  O2-  O554  1  0.61458217  0.19974386  0.68773675  1
  O2-  O555  1  0.58513923  0.42175611  0.01937904  1
  O2-  O556  1  0.55521146  0.41077742  0.34749726  1
  O2-  O557  1  0.58529862  0.42942255  0.68639856  1
  O2-  O558  1  0.55963233  0.64410986  0.01639748  1
  O2-  O559  1  0.54361652  0.64246256  0.33800281  1
  O2-  O560  1  0.56311646  0.69397610  0.69421913  1
  O2-  O561  1  0.57388761  0.90912317  0.01416095  1
  O2-  O562  1  0.58040010  0.91691758  0.36577775  1
  O2-  O563  1  0.57719953  0.92236135  0.68149872  1
  O2-  O564  1  0.83800436  0.16566499  0.02244851  1
  O2-  O565  1  0.83889079  0.17130286  0.35551207  1
  O2-  O566  1  0.84162309  0.16248815  0.68847611  1
  O2-  O567  1  0.82861195  0.40461480  0.01421884  1
  O2-  O568  1  0.82908092  0.41101471  0.34539685  1
  O2-  O569  1  0.83473201  0.38903814  0.68787251  1
  O2-  O570  1  0.82858516  0.68243085  0.01970707  1
  O2-  O571  1  0.81549025  0.65216152  0.35279955  1
  O2-  O572  1  0.81901298  0.64985569  0.69895111  1
  O2-  O573  1  0.80249555  0.91828906  0.02737717  1
  O2-  O574  1  0.84360918  0.92753107  0.36527150  1
  O2-  O575  1  0.82398153  0.91416191  0.68433105  1
