# generated using pymatgen
data_H2O
_symmetry_space_group_name_H-M   'P 1'
_cell_length_a   17.99305154
_cell_length_b   17.99524677
_cell_length_c   22.00896885
_cell_angle_alpha   90.01217238
_cell_angle_beta   90.01008975
_cell_angle_gamma   120.01703060
_symmetry_Int_Tables_number   1
_chemical_formula_structural   H2O
_chemical_formula_sum   'H384 O192'
_cell_volume   6170.47176606
_cell_formula_units_Z   192
loop_
 _symmetry_equiv_pos_site_id
 _symmetry_equiv_pos_as_xyz
  1  'x, y, z'
loop_
 _atom_type_symbol
 _atom_type_oxidation_number
  H+  1.0
  O2-  -2.0
loop_
 _atom_site_type_symbol
 _atom_site_label
 _atom_site_symmetry_multiplicity
 _atom_site_fract_x
 _atom_site_fract_y
 _atom_site_fract_z
 _atom_site_occupancy
  H+  H0  1  0.11302065  0.88096771  0.67264209  1
  H+  H1  1  0.76191312  0.88320267  0.34031365  1
  H+  H2  1  0.01537750  0.88074292  0.30720484  1
  H+  H3  1  0.85701076  0.47442209  0.00423993  1
  H+  H4  1  0.45848563  0.42599146  0.96462941  1
  H+  H5  1  0.06710713  0.15852640  0.10074954  1
  H+  H6  1  0.85798234  0.40672507  0.34244776  1
  H+  H7  1  0.11264067  0.72744542  0.49612106  1
  H+  H8  1  0.14591654  0.78533049  0.16422768  1
  H+  H9  1  0.38333612  0.50817239  0.66214524  1
  H+  H10  1  1.12042981  0.72022735  1.00651067  1
  H+  H11  1  0.45175391  0.82009620  0.31951323  1
  H+  H12  1  0.88235352  0.89969386  0.14299230  1
  H+  H13  1  0.31762893  0.21220875  0.72868971  1
  H+  H14  1  0.00417822  0.85183684  0.51707105  1
  H+  H15  1  0.11081449  0.47263589  0.00983864  1
  H+  H16  1  0.35426500  0.22735023  0.82412760  1
  H+  H17  1  0.27209284  0.88814905  0.33896524  1
  H+  H18  1  0.11020473  0.13134166  0.32701050  1
  H+  H19  1  0.66082032  0.04329183  0.66644103  1
  H+  H20  1  0.15819450  0.88131721  0.17269531  1
  H+  H21  1  0.87156885  0.64416452  0.00458321  1
  H+  H22  1  0.65791317  0.71247625  0.39642372  1
  H+  H23  1  0.78669509  0.90550863  1.00162451  1
  H+  H24  1  0.86491770  0.98640063  0.82163906  1
  H+  H25  1  0.55596148  0.93120545  0.35342535  1
  H+  H26  1  0.91350884  0.07719332  0.56257510  1
  H+  H27  1  0.73415228  0.61086135  0.17210087  1
  H+  H28  1  0.88984999  0.86117951  0.65251432  1
  H+  H29  1  0.21906102  0.11528191  0.30459719  1
  H+  H30  1  0.89396443  0.28198181  0.17527270  1
  H+  H31  1  0.47466331  0.61030787  0.16075875  1
  H+  H32  1  0.88061456  0.53585677  0.33052408  1
  H+  H33  1  0.64191248  0.61973163  0.66821873  1
  H+  H34  1  0.85635809  0.96544128  0.33822399  1
  H+  H35  1  0.88854600  0.52192545  0.50677468  1
  H+  H36  1  0.12740370  0.52870526  0.51125060  1
  H+  H37  1  0.74899071  0.04678045  0.88155521  1
  H+  H38  1  0.98760532  0.62920148  0.17587963  1
  H+  H39  1  0.36177452  0.89133426  0.34141091  1
  H+  H40  1  0.34578681  0.87511728  0.68568695  1
  H+  H41  1  0.11179551  0.63867286  0.49396290  1
  H+  H42  1  0.11177824  0.72380090  0.67724433  1
  H+  H43  1  0.87636762  -0.02137636  0.66668233  1
  H+  H44  1  0.98312587  0.87438578  0.10450473  1
  H+  H45  1  0.38274453  0.12169603  0.83233140  1
  H+  H46  1  0.09580411  0.11002653  0.49386831  1
  H+  H47  1  0.67090274  0.12934762  0.30692285  1
  H+  H48  1  0.13199544  0.77536437  0.84122022  1
  H+  H49  1  0.37250408  0.58535187  0.97652123  1
  H+  H50  1  0.63913590  0.77005717  0.50674330  1
  H+  H51  1  0.11585363  0.39744026  0.49099767  1
  H+  H52  1  0.25752817  0.53404970  0.45126531  1
  H+  H53  1  0.79583068  0.16029518  0.34262946  1
  H+  H54  1  0.35355340  0.61989114  0.67784481  1
  H+  H55  1  0.77918547  0.63979652  0.67578310  1
  H+  H56  1  0.85677748  0.12577480  0.49676315  1
  H+  H57  1  0.61520688  0.63569755  0.99715067  1
  H+  H58  1  0.10660136  0.62454062  0.00352238  1
  H+  H59  1  0.41219515  0.08565726  0.26881176  1
  H+  H60  1  0.49833670  0.14125321  0.34865943  1
  H+  H61  1  0.61313507  0.46918394  0.17111297  1
  H+  H62  1  0.64098858  1.02006529  0.16119093  1
  H+  H63  1  0.97583469  0.38452344  0.32846088  1
  H+  H64  1  0.21993687  0.60603993  0.66532955  1
  H+  H65  1  0.44609525  0.32441829  0.46151919  1
  H+  H66  1  0.73867565  0.12638456  1.00417329  1
  H+  H67  1  0.06109922  0.19990025  0.00019053  1
  H+  H68  1  0.36469702  0.02373001  0.50681450  1
  H+  H69  1  0.11167588  0.34660781  1.00168452  1
  H+  H70  1  -0.01885363  0.09774526  0.32189008  1
  H+  H71  1  0.08922989  0.67136836  0.09967135  1
  H+  H72  1  0.34581088  0.94099740  0.09785134  1
  H+  H73  1  0.62519324  0.27883079  0.84202875  1
  H+  H74  1  0.87849530  0.40297564  0.15518107  1
  H+  H75  1  0.22061671  0.35394473  0.65116179  1
  H+  H76  1  0.10582009  0.20295708  0.48772884  1
  H+  H77  1  0.60651572  0.21710305  1.00923173  1
  H+  H78  1  0.62861515  0.90696663  0.34104844  1
  H+  H79  1  0.61419532  0.23140162  0.67422561  1
  H+  H80  1  0.36529402  0.07327969  1.00295037  1
  H+  H81  1  0.36219546  0.37806609  0.48652452  1
  H+  H82  1  0.08951887  0.41742373  0.76316774  1
  H+  H83  1  0.77599691  0.39169734  0.67487375  1
  H+  H84  1  0.87598645  0.15194039  0.01237836  1
  H+  H85  1  0.97907703  0.61129228  0.84061850  1
  H+  H86  1  0.61242840  0.62358424  0.15686984  1
  H+  H87  1  0.58371575  0.36417766  0.36274970  1
  H+  H88  1  0.88838383  0.60770493  0.83843922  1
  H+  H89  1  0.65296735  0.86524305  0.65999740  1
  H+  H90  1  0.11735247  0.64087963  0.82934727  1
  H+  H91  1  0.11980433  0.60795674  0.32615697  1
  H+  H92  1  0.37760984  1.02641150  0.32882716  1
  H+  H93  1  0.13783337  0.86057716  0.31092538  1
  H+  H94  1  0.77800580  0.63552000  0.82245137  1
  H+  H95  1  -0.02195270  0.36876679  0.66000057  1
  H+  H96  1  0.61958503  0.64265289  0.82558044  1
  H+  H97  1  0.86524146  0.48208679  0.67108649  1
  H+  H98  1  -0.02026852  0.38641086  0.50542432  1
  H+  H99  1  0.87748780  0.47818397  0.82614643  1
  H+  H100  1  0.14015488  0.27426473  0.17381165  1
  H+  H101  1  0.38050238  0.26948687  0.17482492  1
  H+  H102  1  0.37604602  0.92869803  0.00261979  1
  H+  H103  1  -0.02615684  0.85418684  0.65313906  1
  H+  H104  1  0.31845527  0.67643760  -0.03145331  1
  H+  H105  1  0.12998313  0.27136212  0.32735017  1
  H+  H106  1  0.35521844  0.76523680  0.32142262  1
  H+  H107  1  0.73375855  0.87149407  0.83729794  1
  H+  H108  1  0.21883703  0.43760805  0.89220655  1
  H+  H109  1  0.36905143  0.90798718  0.50136004  1
  H+  H110  1  0.84874590  0.92272036  0.72717409  1
  H+  H111  1  0.26916624  0.39443621  0.34595786  1
  H+  H112  1  0.66939663  0.53673330  0.97659592  1
  H+  H113  1  0.99999131  0.12503335  0.81960946  1
  H+  H114  1  0.63738674  0.52589484  0.83550257  1
  H+  H115  1  0.62781009  0.48641562  0.67721155  1
  H+  H116  1  0.62313677  0.97735760  0.83418796  1
  H+  H117  1  0.89145502  0.09173522  0.30506491  1
  H+  H118  1  0.86570424  0.73284151  0.34696804  1
  H+  H119  1  0.78174526  0.14282066  0.15861154  1
  H+  H120  1  0.64545837  0.12286008  0.00004508  1
  H+  H121  1  0.13487891  0.02336533  0.66400019  1
  H+  H122  1  0.11829636  0.39691902  0.82818435  1
  H+  H123  1  0.87304881  0.23693152  0.66596094  1
  H+  H124  1  0.38328868  0.52391464  0.16077173  1
  H+  H125  1  0.66856917  0.04297789  0.32715420  1
  H+  H126  1  0.36919412  0.64172810  0.82904790  1
  H+  H127  1  0.11936040  0.39067168  0.16718043  1
  H+  H128  1  0.65285955  0.61350650  0.32459036  1
  H+  H129  1  0.07602882  0.91603833  0.36326563  1
  H+  H130  1  0.11986072  0.13243507  0.14378935  1
  H+  H131  1  0.47894255  0.88924612  -0.00523032  1
  H+  H132  1  0.49183545  0.09959498  0.65478996  1
  H+  H133  1  0.19757286  0.08525039  0.99762003  1
  H+  H134  1  0.92057584  0.58539586  0.93485516  1
  H+  H135  1  0.38788446  0.81246823  1.01372655  1
  H+  H136  1  0.21979694  0.86571487  0.84260107  1
  H+  H137  1  0.63018194  0.28016993  0.34523970  1
  H+  H138  1  0.12018507  0.10284441  0.83632806  1
  H+  H139  1  0.61078603  0.72093301  1.00077217  1
  H+  H140  1  0.46918835  0.35842059  0.18098384  1
  H+  H141  1  0.14551961  0.07352842  0.57559853  1
  H+  H142  1  0.72579734  0.37141736  0.51184946  1
  H+  H143  1  0.62761698  0.26353483  0.19202564  1
  H+  H144  1  0.88583255  0.36477001  0.00368835  1
  H+  H145  1  0.88910395  0.36996353  0.66109520  1
  H+  H146  1  0.39390780  0.87393829  0.16597323  1
  H+  H147  1  0.37130293  0.48014603  0.82134317  1
  H+  H148  1  0.62878341  0.28739711  0.51597883  1
  H+  H149  1  0.58488853  0.92092237  -0.05293525  1
  H+  H150  1  0.48321500  0.61684189  0.83676249  1
  H+  H151  1  0.36253953  0.74948515  0.66746148  1
  H+  H152  1  0.74051560  0.11169620  0.51193832  1
  H+  H153  1  0.64667328  0.37119711  0.66814830  1
  H+  H154  1  0.10590967  0.38718656  0.33895537  1
  H+  H155  1  0.65705422  0.88516394  0.16876542  1
  H+  H156  1  0.87839679  0.65478217  0.16180969  1
  H+  H157  1  0.22659432  0.36254396  0.17692521  1
  H+  H158  1  0.10829437  0.63286338  0.67715230  1
  H+  H159  1  0.32904289  0.12497143  0.49792511  1
  H+  H160  1  0.87202080  0.64873970  0.35354896  1
  H+  H161  1  0.49178289  0.67085841  0.33635871  1
  H+  H162  1  0.12092479  0.64866532  0.16138467  1
  H+  H163  1  0.26365951  0.14015267  0.82086029  1
  H+  H164  1  0.97182935  0.86325885  0.83358716  1
  H+  H165  1  0.22652299  0.85853324  0.50945456  1
  H+  H166  1  0.10593097  0.88410194  0.82458879  1
  H+  H167  1  0.61757404  0.88407512  0.50368373  1
  H+  H168  1  0.89548085  0.19675371  0.35861843  1
  H+  H169  1  0.52024618  0.63068588  0.67754343  1
  H+  H170  1  0.88942678  0.79746397  0.55472382  1
  H+  H171  1  0.16450819  0.58418943  0.89625991  1
  H+  H172  1  0.22456061  0.86128367  0.66845158  1
  H+  H173  1  0.35623571  0.38009057  0.15943314  1
  H+  H174  1  0.88365734  0.77403996  0.83408967  1
  H+  H175  1  0.26382411  0.18274134  0.66873106  1
  H+  H176  1  0.21805147  0.60725150  0.50859382  1
  H+  H177  1  0.27095253  0.12270569  0.15401769  1
  H+  H178  1  0.39011169  0.36413427  0.83536717  1
  H+  H179  1  0.87774095  0.49102274  0.15590937  1
  H+  H180  1  0.86281381  0.89493912  0.82401293  1
  H+  H181  1  0.43587633  0.83333313  0.69472906  1
  H+  H182  1  0.39504473  0.07484344  0.56879970  1
  H+  H183  1  0.47240337  0.60516231  0.51593130  1
  H+  H184  1  0.88995344  0.61916204  0.65650036  1
  H+  H185  1  0.63056207  0.76695007  0.65770478  1
  H+  H186  1  0.11150708  0.38466568  0.66662874  1
  H+  H187  1  0.06401480  0.94001362  0.16791028  1
  H+  H188  1  0.62367496  0.63688021  0.50532595  1
  H+  H189  1  0.35924330  0.89192458  0.83501790  1
  H+  H190  1  0.59805315  0.92667501  0.44668586  1
  H+  H191  1  0.64373811  1.01628251  0.51838722  1
  H+  H192  1  0.35965179  0.75194516  0.49701095  1
  H+  H193  1  0.52287137  0.88641665  0.15412107  1
  H+  H194  1  0.52648348  0.89464400  0.82941421  1
  H+  H195  1  0.99240693  0.86792239  0.01072422  1
  H+  H196  1  0.39753341  0.75971599  0.47788744  1
  H+  H197  1  0.56682334  0.63216824  0.44824908  1
  H+  H198  1  0.58247847  0.79448899  0.30077204  1
  H+  H199  1  0.66642903  0.54919841  0.51691304  1
  H+  H200  1  0.35935728  0.24990258  0.49067087  1
  H+  H201  1  0.03124473  0.39290184  0.16565607  1
  H+  H202  1  0.72245448  0.35415818  0.99939498  1
  H+  H203  1  0.63995347  0.74053653  0.33444413  1
  H+  H204  1  0.87367028  0.85762138  0.31962427  1
  H+  H205  1  0.23275274  0.87487095  0.99184194  1
  H+  H206  1  0.64689130  0.86621782  0.99253929  1
  H+  H207  1  0.88802392  0.11808828  0.64907471  1
  H+  H208  1  0.33867785  0.45457061  1.00363463  1
  H+  H209  1  0.28293594  0.89554658  0.15476865  1
  H+  H210  1  0.23568734  0.58716863  -0.03458273  1
  H+  H211  1  0.62944599  0.34488621  0.00500711  1
  H+  H212  1  -0.02084297  0.61749548  0.66009854  1
  H+  H213  1  0.60809690  0.38825201  0.83240707  1
  H+  H214  1  0.50549612  0.35946989  0.01404917  1
  H+  H215  1  0.34183188  0.59473435  0.48677405  1
  H+  H216  1  0.64133552  0.86537236  0.83920997  1
  H+  H217  1  0.54469636  0.39953969  0.66238506  1
  H+  H218  1  0.74774235  0.88661668  0.17304365  1
  H+  H219  1  0.14315091  0.53214831  0.83356395  1
  H+  H220  1  0.41701434  0.68555650  0.31498131  1
  H+  H221  1  0.11330835  0.72984877  0.33760145  1
  H+  H222  1  0.31157254  0.32448935  0.68687288  1
  H+  H223  1  0.49255340  0.90728149  0.53041401  1
  H+  H224  1  0.76509596  0.39924141  0.34802471  1
  H+  H225  1  0.97538819  0.36479215  1.00831754  1
  H+  H226  1  0.97947633  0.61499021  0.99484144  1
  H+  H227  1  0.76024927  0.88357092  0.49741789  1
  H+  H228  1  0.14014062  0.53044904  0.17601161  1
  H+  H229  1  0.87051122  0.23924810  1.01305380  1
  H+  H230  1  0.62458524  0.14904507  0.67516670  1
  H+  H231  1  0.23385214  0.35905620  0.48975606  1
  H+  H232  1  0.34459313  0.18668940  0.99929797  1
  H+  H233  1  0.36019832  0.72186504  0.18833533  1
  H+  H234  1  0.86972897  0.40639343  0.49647089  1
  H+  H235  1  0.73741397  0.61065843  0.32979989  1
  H+  H236  1  0.07123406  0.16160160  0.72861659  1
  H+  H237  1  0.89316670  0.11628929  0.16645311  1
  H+  H238  1  0.13380308  0.85049166  0.52349855  1
  H+  H239  1  0.36053055  0.63347808  0.18972823  1
  H+  H240  1  0.62968906  0.40984157  0.51241020  1
  H+  H241  1  0.88225860  0.14121076  0.81671588  1
  H+  H242  1  0.15370055  0.31968936  0.44692957  1
  H+  H243  1  0.74808633  0.62875674  -0.01040068  1
  H+  H244  1  0.62038840  0.73262247  0.82846367  1
  H+  H245  1  0.82878441  0.17364555  0.44716223  1
  H+  H246  1  -0.01219220  0.61786731  0.50787915  1
  H+  H247  1  0.65537030  0.33212416  0.28330861  1
  H+  H248  1  0.97350322  0.62114229  0.33068115  1
  H+  H249  1  0.46628917  0.59612728  -0.00912618  1
  H+  H250  1  0.85835135  -0.01579097  0.49528856  1
  H+  H251  1  0.55536933  0.42938306  0.52778670  1
  H+  H252  1  0.39060243  0.77779983  0.84221950  1
  H+  H253  1  0.38753716  0.51250594  0.51134773  1
  H+  H254  1  0.11081022  1.00102325  0.52443187  1
  H+  H255  1  0.34140245  0.22539371  0.32459329  1
  H+  H256  1  0.49938172  0.15656297  0.50938906  1
  H+  H257  1  0.24060167  0.12403876  0.49920343  1
  H+  H258  1  0.88377264  0.30334617  0.33186531  1
  H+  H259  1  0.14827267  0.57820606  0.26482449  1
  H+  H260  1  0.58753993  0.44173291  0.03474520  1
  H+  H261  1  -0.03005124  0.09955111  0.49973107  1
  H+  H262  1  0.75111245  0.64550838  0.51669777  1
  H+  H263  1  0.22917775  0.61766392  0.19328590  1
  H+  H264  1  0.38488450  1.03700544  0.84520212  1
  H+  H265  1  0.41725843  0.37041020  0.63165177  1
  H+  H266  1  0.36438613  0.13390263  0.15850631  1
  H+  H267  1  0.05470371  0.88355774  0.57795550  1
  H+  H268  1  0.89311236  0.27588248  0.82121064  1
  H+  H269  1  0.87509516  0.98531169  0.14833024  1
  H+  H270  1  0.56243665  0.91530789  0.67107281  1
  H+  H271  1  0.10682491  0.47802973  0.33811315  1
  H+  H272  1  0.38903633  0.02773107  0.17558673  1
  H+  H273  1  0.45558915  0.35430272  0.33578859  1
  H+  H274  1  0.52195669  0.14794289  0.83072763  1
  H+  H275  1  0.33531110  0.42059512  0.43230804  1
  H+  H276  1  0.10564811  0.22224112  0.66850914  1
  H+  H277  1  0.57439578  0.13038922  0.37462192  1
  H+  H278  1  0.12896012  0.02266586  0.30176851  1
  H+  H279  1  0.47813949  0.11566953  0.17794306  1
  H+  H280  1  0.12290440  0.10636463  0.66282447  1
  H+  H281  1  0.47903795  0.36331275  0.83619492  1
  H+  H282  1  0.88599386  0.37877672  0.82065688  1
  H+  H283  1  0.25037777  0.63020126  0.33030813  1
  H+  H284  1  0.11263456  0.47466917  0.67118582  1
  H+  H285  1  -0.02430491  0.11576957  0.65062790  1
  H+  H286  1  0.52067507  0.12283366  0.01254699  1
  H+  H287  1  0.19120508  0.33160061  1.00075231  1
  H+  H288  1  0.88580168  0.81773726  0.25867207  1
  H+  H289  1  0.92395887  0.59826033  0.23376530  1
  H+  H290  1  0.58274265  0.41903165  0.76992793  1
  H+  H291  1  0.09808379  0.21095294  0.82001494  1
  H+  H292  1  0.83496697  0.43711855  0.43798000  1
  H+  H293  1  0.66701119  0.85273586  0.25927395  1
  H+  H294  1  0.09773966  0.98193377  0.42738409  1
  H+  H295  1  0.86632213  0.73170644  0.00208250  1
  H+  H296  1  0.16223181  0.58441503  0.60497505  1
  H+  H297  1  0.42602077  0.86827752  0.58478703  1
  H+  H298  1  0.69538876  0.08440628  0.91036068  1
  H+  H299  1  0.57231368  0.39430997  0.12076639  1
  H+  H300  1  0.56846211  0.41285018  0.41667594  1
  H+  H301  1  0.84725816  0.17499126  0.72483957  1
  H+  H302  1  0.84394506  0.67770534  0.10205991  1
  H+  H303  1  0.90557266  0.83237258  0.92466863  1
  H+  H304  1  0.32851271  0.65560038  0.73740388  1
  H+  H305  1  0.16252201  0.33294752  0.26992230  1
  H+  H306  1  0.42058074  0.57583065  0.89413953  1
  H+  H307  1  -0.01674438  0.36824481  0.82677506  1
  H+  H308  1  0.67932442  0.07605233  0.22144060  1
  H+  H309  1  0.15875203  0.07222254  0.22026938  1
  H+  H310  1  0.41899144  0.84511447  0.22738380  1
  H+  H311  1  0.07436492  0.52069834  0.94901462  1
  H+  H312  1  0.57808305  0.90736679  0.09317056  1
  H+  H313  1  0.86812437  0.72763755  0.66976819  1
  H+  H314  1  0.40932712  0.57073539  0.60573793  1
  H+  H315  1  0.05123300  0.94732017  0.43116921  1
  H+  H316  1  0.16102577  0.32755255  0.59178636  1
  H+  H317  1  0.16149452  0.34349546  0.91333162  1
  H+  H318  1  0.92113492  0.09562733  0.88342492  1
  H+  H319  1  0.44123931  0.34460407  0.57024921  1
  H+  H320  1  0.58066177  0.16360344  0.10669161  1
  H+  H321  1  0.91209051  0.04208152  0.99966409  1
  H+  H322  1  0.82046341  0.91617914  0.43256018  1
  H+  H323  1  0.79456906  0.14726174  0.81668261  1
  H+  H324  1  0.42334861  0.34518828  0.92274075  1
  H+  H325  1  0.84199250  0.66697885  0.76586278  1
  H+  H326  1  0.10484961  0.97246636  0.82158216  1
  H+  H327  1  0.85775410  0.70542784  0.44835652  1
  H+  H328  1  0.67747695  0.59290220  0.89113605  1
  H+  H329  1  0.14938233  0.07153661  0.89549000  1
  H+  H330  1  0.11060549  0.08851166  0.99486719  1
  H+  H331  1  0.08180325  0.66639284  0.77103310  1
  H+  H332  1  0.58266877  0.17496176  0.77348625  1
  H+  H333  1  0.28283622  0.39393695  0.83061783  1
  H+  H334  1  0.67975736  0.59918490  0.60897498  1
  H+  H335  1  0.30960887  0.67413784  0.08317316  1
  H+  H336  1  0.84529956  0.42256570  0.76228840  1
  H+  H337  1  0.32244321  0.14535657  0.06540251  1
  H+  H338  1  0.41490875  0.83805584  0.90118645  1
  H+  H339  1  0.65328143  0.33445707  0.90250020  1
  H+  H340  1  0.17088815  0.82499043  0.60631363  1
  H+  H341  1  0.62576515  0.35050066  0.19370280  1
  H+  H342  1  0.08647822  0.42725945  0.43120202  1
  H+  H343  1  0.55500103  0.18847264  0.45043476  1
  H+  H344  1  0.46093523  0.01998076  0.61008745  1
  H+  H345  1  0.09023694  0.42049484  0.07429635  1
  H+  H346  1  0.92025922  0.35424149  0.56424708  1
  H+  H347  1  0.35670043  0.39443571  0.34288607  1
  H+  H348  1  0.92168730  0.80045727  0.15036715  1
  H+  H349  1  0.74713481  0.13345804  0.65880327  1
  H+  H350  1  0.58444034  0.65361270  0.09781398  1
  H+  H351  1  0.07806953  0.95037149  0.02843957  1
  H+  H352  1  0.84581058  0.17897175  0.10317254  1
  H+  H353  1  0.58239872  0.66904243  0.73537148  1
  H+  H354  1  0.33511362  0.36605076  0.00284460  1
  H+  H355  1  0.84502526  0.92960911  0.06105173  1
  H+  H356  1  0.32737858  0.92068581  0.77723017  1
  H+  H357  1  0.67846835  0.57979082  0.23265803  1
  H+  H358  1  0.17106438  0.83184239  0.93510374  1
  H+  H359  1  0.66656247  0.82706055  0.56891269  1
  H+  H360  1  0.30893963  0.64985622  0.38919041  1
  H+  H361  1  0.40788586  0.33824093  0.27039992  1
  H+  H362  1  0.32981285  0.91629392  0.43622563  1
  H+  H363  1  0.67806905  0.08636261  0.57812175  1
  H+  H364  1  0.62454076  0.99744838  -0.00650268  1
  H+  H365  1  0.08238088  0.67343829  0.39928609  1
  H+  H366  1  0.83459494  0.42242484  0.06655886  1
  H+  H367  1  0.92007185  0.34633792  0.23239501  1
  H+  H368  1  0.93099441  0.07989193  0.21638882  1
  H+  H369  1  0.07666200  0.90978854  0.72857933  1
  H+  H370  1  0.67643109  0.83799692  0.93301323  1
  H+  H371  1  0.26337204  0.64522762  0.07447097  1
  H+  H372  1  0.34419316  0.13694490  0.32428164  1
  H+  H373  1  0.32100405  0.39906506  0.72939544  1
  H+  H374  1  0.17854015  0.83129601  0.25997258  1
  H+  H375  1  0.36436897  0.97020639  0.67862906  1
  H+  H376  1  0.61172317  0.13086223  0.16259037  1
  H+  H377  1  0.67350726  0.34142638  0.60771125  1
  H+  H378  1  0.07927803  0.14940598  0.39202966  1
  H+  H379  1  0.92576921  0.58730763  0.57260248  1
  H+  H380  1  0.60188201  0.93190776  0.73804293  1
  H+  H381  1  0.31843385  0.40146625  0.09999796  1
  H+  H382  1  0.28006113  0.64243158  0.83016131  1
  H+  H383  1  0.87923605  0.86630381  -0.01521039  1
  O2-  O384  1  0.11427121  0.18145248  0.13024612  1
  O2-  O385  1  0.07066119  0.14335271  0.47306758  1
  O2-  O386  1  0.06722021  0.15273485  0.80392203  1
  O2-  O387  1  0.09240917  0.42392177  0.15145921  1
  O2-  O388  1  0.09034119  0.43191417  0.47710420  1
  O2-  O389  1  0.08673687  0.42265684  0.80842726  1
  O2-  O390  1  0.09267060  0.68037243  0.14500540  1
  O2-  O391  1  0.07963439  0.66731012  0.47889937  1
  O2-  O392  1  0.08294838  0.66807391  0.81640161  1
  O2-  O393  1  0.12760854  0.96745603  0.17250966  1
  O2-  O394  1  0.06382764  0.88729947  0.53402610  1
  O2-  O395  1  0.07493902  0.91204015  0.80592897  1
  O2-  O396  1  0.33134591  0.15980243  0.14012275  1
  O2-  O397  1  0.29896506  0.15430896  0.48140519  1
  O2-  O398  1  0.32152986  0.17199828  0.80194425  1
  O2-  O399  1  0.32412635  0.40864290  0.14475774  1
  O2-  O400  1  0.33515886  0.41462720  0.47901597  1
  O2-  O401  1  0.33843549  0.41790166  0.80911431  1
  O2-  O402  1  0.32899740  0.66329135  0.20466306  1
  O2-  O403  1  0.29320616  0.59374003  0.46370868  1
  O2-  O404  1  0.34040761  0.67332771  0.81373410  1
  O2-  O405  1  0.34491690  0.92927392  0.14215702  1
  O2-  O406  1  0.32548662  0.91861160  0.48143457  1
  O2-  O407  1  0.32630982  0.91996777  0.82250107  1
  O2-  O408  1  0.57942167  0.16061680  0.15195519  1
  O2-  O409  1  0.55975657  0.19019836  0.49521949  1
  O2-  O410  1  0.58368576  0.17798953  0.81818987  1
  O2-  O411  1  0.57492737  0.40550381  0.16473566  1
  O2-  O412  1  0.60503810  0.44784774  0.50111660  1
  O2-  O413  1  0.57899245  0.42113769  0.81500526  1
  O2-  O414  1  0.58182401  0.65317008  0.14250083  1
  O2-  O415  1  0.58293475  0.65647762  0.48911680  1
  O2-  O416  1  0.58743383  0.67237142  0.81285788  1
  O2-  O417  1  0.58326612  0.91552341  0.13705152  1
  O2-  O418  1  0.59288876  0.92126482  0.49145809  1
  O2-  O419  1  0.58656728  0.92097438  0.81356715  1
  O2-  O420  1  0.84401833  0.17650700  0.14890385  1
  O2-  O421  1  0.82234560  0.15463866  0.49006732  1
  O2-  O422  1  0.85279855  0.17718004  0.79924407  1
  O2-  O423  1  0.84988275  0.43292820  0.13781595  1
  O2-  O424  1  0.83761543  0.43787463  0.48380531  1
  O2-  O425  1  0.85146231  0.41879773  0.80771665  1
  O2-  O426  1  0.84830047  0.68565313  0.14690877  1
  O2-  O427  1  0.85642668  0.70659100  0.49433634  1
  O2-  O428  1  0.84022734  0.66559824  0.81133397  1
  O2-  O429  1  0.84318362  0.92306506  0.13459880  1
  O2-  O430  1  0.82144042  0.92004755  0.47857047  1
  O2-  O431  1  0.83136527  0.92370268  0.80865813  1
  O2-  O432  1  0.16004416  0.06046150  0.17408765  1
  O2-  O433  1  0.13714075  0.06394345  0.52995319  1
  O2-  O434  1  0.15430775  0.07608891  0.85050602  1
  O2-  O435  1  0.16608118  0.33206659  0.19318230  1
  O2-  O436  1  0.16781570  0.32649235  0.49023022  1
  O2-  O437  1  0.18826099  0.37960517  0.87544057  1
  O2-  O438  1  0.16357220  0.58946794  0.19301987  1
  O2-  O439  1  0.16066904  0.58920477  0.52659285  1
  O2-  O440  1  0.17457047  0.59161618  0.85020283  1
  O2-  O441  1  0.18283252  0.84445117  0.18216650  1
  O2-  O442  1  0.16850842  0.82155001  0.52853738  1
  O2-  O443  1  0.15810345  0.83597574  0.85543075  1
  O2-  O444  1  0.41683560  0.08764198  0.19213662  1
  O2-  O445  1  0.38800043  0.08209964  0.52491673  1
  O2-  O446  1  0.41569399  0.09915726  0.85373619  1
  O2-  O447  1  0.40637275  0.32882345  0.19095624  1
  O2-  O448  1  0.40533547  0.31440313  0.49440083  1
  O2-  O449  1  0.41781944  0.33241196  0.85235421  1
  O2-  O450  1  0.41195685  0.58640675  0.16745092  1
  O2-  O451  1  0.41090545  0.57252749  0.52774075  1
  O2-  O452  1  0.42115258  0.58303269  0.84903335  1
  O2-  O453  1  0.42499248  0.84518649  0.18261993  1
  O2-  O454  1  0.44723190  0.91202379  0.55239852  1
  O2-  O455  1  0.42098086  0.83899983  0.85653086  1
  O2-  O456  1  0.67192154  0.08011673  0.17744465  1
  O2-  O457  1  0.67581567  0.07920232  0.53104944  1
  O2-  O458  1  0.70698424  0.06395234  0.87088968  1
  O2-  O459  1  0.65323988  0.32004962  0.21229002  1
  O2-  O460  1  0.66857690  0.34818704  0.53107002  1
  O2-  O461  1  0.64956008  0.33922225  0.85807236  1
  O2-  O462  1  0.67440493  0.57510005  0.18702465  1
  O2-  O463  1  0.69028150  0.61050227  0.53093357  1
  O2-  O464  1  0.67168927  0.58887822  0.84612896  1
  O2-  O465  1  0.69410796  0.87328834  0.19530044  1
  O2-  O466  1  0.66980380  0.83057896  0.52134685  1
  O2-  O467  1  0.67368506  0.83827392  0.85538258  1
  O2-  O468  1  0.92311809  0.08279497  0.17256308  1
  O2-  O469  1  0.90923711  0.07126049  0.51583043  1
  O2-  O470  1  0.91591646  0.08995806  0.83921772  1
  O2-  O471  1  0.92608382  0.34370327  0.18769369  1
  O2-  O472  1  0.91993693  0.36213512  0.51949536  1
  O2-  O473  1  0.92005323  0.33751930  0.83616049  1
  O2-  O474  1  0.92606951  0.59959845  0.18855649  1
  O2-  O475  1  0.92665672  0.58550484  0.52542537  1
  O2-  O476  1  0.91765605  0.57669911  0.85422241  1
  O2-  O477  1  0.95548557  0.86432972  0.14650954  1
  O2-  O478  1  0.89549082  0.79835183  0.50934797  1
  O2-  O479  1  0.91090269  0.83483164  0.84830551  1
  O2-  O480  1  0.15520919  0.08363898  0.28902767  1
  O2-  O481  1  0.15912826  0.08253034  0.64734614  1
  O2-  O482  1  0.13898170  0.05734091  0.98010373  1
  O2-  O483  1  0.15795521  0.33280696  0.31566048  1
  O2-  O484  1  0.15970095  0.32893871  0.63613687  1
  O2-  O485  1  0.13241571  0.30799632  0.98369551  1
  O2-  O486  1  0.14726321  0.57492876  0.31113791  1
  O2-  O487  1  0.15939986  0.57923783  0.65029490  1
  O2-  O488  1  0.13101184  0.55786759  0.96649662  1
  O2-  O489  1  0.17231321  0.83166622  0.30523819  1
  O2-  O490  1  0.16497492  0.82666493  0.65146734  1
  O2-  O491  1  0.17994492  0.82363594  0.97858249  1
  O2-  O492  1  0.40755816  0.08703933  0.31431344  1
  O2-  O493  1  0.43937669  0.05073321  0.63464878  1
  O2-  O494  1  0.40194053  0.04626649  0.99628898  1
  O2-  O495  1  0.39935904  0.33512189  0.31530423  1
  O2-  O496  1  0.46674742  0.38030548  0.60723089  1
  O2-  O497  1  0.42993706  0.36351042  0.96774208  1
  O2-  O498  1  0.48040897  0.71233397  0.31604132  1
  O2-  O499  1  0.40937673  0.56929904  0.65135950  1
  O2-  O500  1  0.40858519  0.55753561  0.97277724  1
  O2-  O501  1  0.40167813  0.82566855  0.30999758  1
  O2-  O502  1  0.39397683  0.81418229  0.66187841  1
  O2-  O503  1  0.41589672  0.86057431  0.98553863  1
  O2-  O504  1  0.70260637  0.09850161  0.30422531  1
  O2-  O505  1  0.68394455  0.10008727  0.64594110  1
  O2-  O506  1  0.67931683  0.09546775  0.98553732  1
  O2-  O507  1  0.65921943  0.33961179  0.32953070  1
  O2-  O508  1  0.67514103  0.33868124  0.65317595  1
  O2-  O509  1  0.66078113  0.31906049  0.98576967  1
  O2-  O510  1  0.68124235  0.58261479  0.30909738  1
  O2-  O511  1  0.67570119  0.59251029  0.65412595  1
  O2-  O512  1  0.68735289  0.59695844  0.97081159  1
  O2-  O513  1  0.64498738  0.83786810  0.30422076  1
  O2-  O514  1  0.66025471  0.82318381  0.63609783  1
  O2-  O515  1  0.67703014  0.83626260  0.97873024  1
  O2-  O516  1  0.92115052  0.05905648  0.30423103  1
  O2-  O517  1  0.91627278  0.08631329  0.63267261  1
  O2-  O518  1  0.94354994  0.10445129  0.98646809  1
  O2-  O519  1  0.91582291  0.36051678  0.31264619  1
  O2-  O520  1  0.91812222  0.33958040  0.64371201  1
  O2-  O521  1  0.91556079  0.33238525  0.99278561  1
  O2-  O522  1  0.91336350  0.59650998  0.31545088  1
  O2-  O523  1  0.92018269  0.58802961  0.64112350  1
  O2-  O524  1  0.91850219  0.58755041  0.98004546  1
  O2-  O525  1  0.90403288  0.82971684  0.30105010  1
  O2-  O526  1  0.91490209  0.82554279  0.63538954  1
  O2-  O527  1  0.90057222  0.82779305  0.97011161  1
  O2-  O528  1  0.02980027  0.13803136  0.01359926  1
  O2-  O529  1  0.07731493  0.15662029  0.34724453  1
  O2-  O530  1  0.07307185  0.16178581  0.68264263  1
  O2-  O531  1  0.08498876  0.41358318  0.02896035  1
  O2-  O532  1  0.07748682  0.41828593  0.35630377  1
  O2-  O533  1  0.08280653  0.41373917  0.68606320  1
  O2-  O534  1  0.08372786  0.66068452  0.02247725  1
  O2-  O535  1  0.07932163  0.67015633  0.35403799  1
  O2-  O536  1  0.07745400  0.66284630  0.69169105  1
  O2-  O537  1  0.03730372  0.89224208  0.04297949  1
  O2-  O538  1  0.07730085  0.91112190  0.31898973  1
  O2-  O539  1  0.08009609  0.91068703  0.68279411  1
  O2-  O540  1  0.31393317  0.13176366  0.02032580  1
  O2-  O541  1  0.30615724  0.16170380  0.32874191  1
  O2-  O542  1  0.31132635  0.23367431  0.68830868  1
  O2-  O543  1  0.30414855  0.39426563  0.01879102  1
  O2-  O544  1  0.32834659  0.42424585  0.36226160  1
  O2-  O545  1  0.31546997  0.38306332  0.68556733  1
  O2-  O546  1  0.29974391  0.61647996  -0.03933405  1
  O2-  O547  1  0.31060065  0.66625536  0.34626251  1
  O2-  O548  1  0.32303470  0.65049282  0.69180780  1
  O2-  O549  1  0.34655695  0.95866491  0.01985910  1
  O2-  O550  1  0.33116097  0.92037794  0.35714255  1
  O2-  O551  1  0.32394569  0.91368831  0.69821263  1
  O2-  O552  1  0.58068642  0.15722253  0.02661316  1
  O2-  O553  1  0.55598755  0.17242829  0.37048034  1
  O2-  O554  1  0.58468812  0.16966131  0.68677442  1
  O2-  O555  1  0.55960853  0.37953256  0.03806034  1
  O2-  O556  1  0.53850394  0.37113641  0.38396907  1
  O2-  O557  1  0.59621926  0.42440996  0.68917109  1
  O2-  O558  1  0.57858756  0.65895096  0.01115585  1
  O2-  O559  1  0.62256141  0.68900878  0.36015680  1
  O2-  O560  1  0.58139705  0.66565122  0.68984414  1
  O2-  O561  1  0.58667816  0.93135439  -0.00919748  1
  O2-  O562  1  0.61520592  0.94839403  0.36386579  1
  O2-  O563  1  0.61640244  0.93990425  0.69329528  1
  O2-  O564  1  0.84025079  0.17565823  0.02720850  1
  O2-  O565  1  0.84510900  0.20102075  0.36899376  1
  O2-  O566  1  0.84357416  0.17494374  0.67885187  1
  O2-  O567  1  0.82672786  0.41502338  0.02057577  1
  O2-  O568  1  0.82701050  0.43404891  0.36118676  1
  O2-  O569  1  0.83828439  0.42295071  0.68820911  1
  O2-  O570  1  0.83866010  0.67219521  0.01963191  1
  O2-  O571  1  0.84429829  0.68032964  0.37188237  1
  O2-  O572  1  0.84167650  0.66799208  0.68693529  1
  O2-  O573  1  0.84761017  0.93578996  0.01508434  1
  O2-  O574  1  0.82004081  0.90714033  0.35752536  1
  O2-  O575  1  0.85853986  0.92104752  0.68295624  1
