# generated using pymatgen
data_H2O
_symmetry_space_group_name_H-M   'P 1'
_cell_length_a   17.99279886
_cell_length_b   17.99531341
_cell_length_c   21.99583960
_cell_angle_alpha   89.99381993
_cell_angle_beta   90.01410811
_cell_angle_gamma   119.99846928
_symmetry_Int_Tables_number   1
_chemical_formula_structural   H2O
_chemical_formula_sum   'H384 O192'
_cell_volume   6167.88121187
_cell_formula_units_Z   192
loop_
 _symmetry_equiv_pos_site_id
 _symmetry_equiv_pos_as_xyz
  1  'x, y, z'
loop_
 _atom_type_symbol
 _atom_type_oxidation_number
  H+  1.0
  O2-  -2.0
loop_
 _atom_site_type_symbol
 _atom_site_label
 _atom_site_symmetry_multiplicity
 _atom_site_fract_x
 _atom_site_fract_y
 _atom_site_fract_z
 _atom_site_occupancy
  H+  H0  1  0.89433356  0.37501148  -0.02201916  1
  H+  H1  1  0.86381081  0.39148242  0.66559391  1
  H+  H2  1  0.61477325  0.15041668  0.68133326  1
  H+  H3  1  0.35057775  0.44877776  0.84927013  1
  H+  H4  1  0.15007390  0.05052845  0.53189218  1
  H+  H5  1  0.48067618  0.37694829  0.51612713  1
  H+  H6  1  0.77619463  0.41716755  0.34776513  1
  H+  H7  1  0.77228932  0.63637104  0.33787661  1
  H+  H8  1  0.64769137  0.51842386  0.66470523  1
  H+  H9  1  0.59784741  0.42180351  0.08503013  1
  H+  H10  1  0.64294654  0.28407605  0.66401968  1
  H+  H11  1  0.65468585  0.38669802  0.15761120  1
  H+  H12  1  0.37704910  0.74412213  0.65936589  1
  H+  H13  1  0.47456308  1.10798085  0.52709958  1
  H+  H14  1  0.37706047  0.60958088  -0.00762981  1
  H+  H15  1  0.82135780  0.86984250  0.14345800  1
  H+  H16  1  0.97641417  0.36125543  0.83190158  1
  H+  H17  1  0.35760535  0.93895081  0.66273040  1
  H+  H18  1  0.65207001  0.83647798  0.23900371  1
  H+  H19  1  0.15915707  0.82200023  0.24566210  1
  H+  H20  1  0.14702354  0.87881090  0.84995781  1
  H+  H21  1  0.88963604  0.85847040  0.50654605  1
  H+  H22  1  0.39270977  0.29090635  0.52443239  1
  H+  H23  1  0.36316640  0.47333521  0.15053671  1
  H+  H24  1  0.48199071  0.36685461  0.31562882  1
  H+  H25  1  0.98611599  0.11262882  0.99961884  1
  H+  H26  1  0.99338747  0.12789135  0.84195411  1
  H+  H27  1  0.63173949  0.35071633  0.84933751  1
  H+  H28  1  0.37558138  0.28172153  0.67727389  1
  H+  H29  1  0.14421823  0.53147362  0.98867877  1
  H+  H30  1  0.58048396  0.92264031  0.07374834  1
  H+  H31  1  0.13907204  0.28529843  0.50841528  1
  H+  H32  1  0.05897167  0.99705588  0.08487053  1
  H+  H33  1  0.39554071  0.57393408  0.26551962  1
  H+  H34  1  0.30882045  0.12365805  1.00200216  1
  H+  H35  1  0.78338030  0.18665404  0.51045085  1
  H+  H36  1  0.63281173  0.60232772  0.31311642  1
  H+  H37  1  0.48976452  0.36862221  0.15889457  1
  H+  H38  1  0.49410851  0.88560620  0.68269686  1
  H+  H39  1  0.41819824  0.83171345  0.90377070  1
  H+  H40  1  0.64277240  0.10861342  0.33469668  1
  H+  H41  1  0.57558360  0.65655935  0.25669163  1
  H+  H42  1  0.50026297  0.62567631  1.01826923  1
  H+  H43  1  0.60170283  0.88027387  0.01604522  1
  H+  H44  1  0.21302208  0.85080039  0.17342192  1
  H+  H45  1  0.64245248  0.62957407  0.66020691  1
  H+  H46  1  0.88896814  0.48535350  0.15342683  1
  H+  H47  1  0.86728137  0.11978081  0.33391629  1
  H+  H48  1  0.13425030  0.10711505  0.30726087  1
  H+  H49  1  0.86747672  0.22948488  0.82202735  1
  H+  H50  1  0.86334113  0.97327102  0.49408554  1
  H+  H51  1  0.72370949  0.85655126  0.33046889  1
  H+  H52  1  0.12362105  0.62254020  0.52104427  1
  H+  H53  1  0.64424862  0.87141060  0.82142072  1
  H+  H54  1  1.02108687  0.88007124  0.33429910  1
  H+  H55  1  0.65050887  0.56828732  0.77170280  1
  H+  H56  1  0.88636111  0.76827857  0.32552040  1
  H+  H57  1  0.64201135  0.61568906  0.17158670  1
  H+  H58  1  0.17757862  0.78334295  0.50586522  1
  H+  H59  1  0.34878812  0.62421094  0.83157911  1
  H+  H60  1  0.10739564  0.71349262  0.69942694  1
  H+  H61  1  0.51332896  0.62929681  0.31174027  1
  H+  H62  1  0.89025828  0.62329561  0.31681165  1
  H+  H63  1  0.23104454  0.87014775  0.84805839  1
  H+  H64  1  0.27690074  0.15030760  0.68957276  1
  H+  H65  1  0.23588571  0.36149955  0.96241925  1
  H+  H66  1  0.61352717  0.37877082  0.33965253  1
  H+  H67  1  0.92956118  0.09652580  0.89781727  1
  H+  H68  1  0.05363177  0.16461373  0.71287596  1
  H+  H69  1  0.65858722  0.11055261  0.99727771  1
  H+  H70  1  0.23605619  0.36677001  0.16382255  1
  H+  H71  1  0.99423819  0.37811641  0.50438523  1
  H+  H72  1  0.89102613  1.01059932  0.32555916  1
  H+  H73  1  0.39283156  0.09061855  0.93832706  1
  H+  H74  1  0.53393128  0.16465292  0.69315062  1
  H+  H75  1  0.14683734  0.27718414  0.17344261  1
  H+  H76  1  0.46193264  0.61036692  0.17537121  1
  H+  H77  1  0.66552482  0.56661636  0.56429521  1
  H+  H78  1  0.52429127  0.88503758  0.83458350  1
  H+  H79  1  0.47667135  0.87358706  -0.00168234  1
  H+  H80  1  0.11202964  0.46695888  0.16396923  1
  H+  H81  1  0.85488527  0.71552615  0.49504541  1
  H+  H82  1  0.11509786  0.49305124  0.50782966  1
  H+  H83  1  0.90210821  0.88063979  0.84059286  1
  H+  H84  1  0.97682172  0.10687045  0.50942205  1
  H+  H85  1  0.77406091  0.38738478  1.00096277  1
  H+  H86  1  0.60275382  0.75303721  0.00270667  1
  H+  H87  1  0.07210496  0.70484260  0.52395412  1
  H+  H88  1  0.87921126  -0.00288926  0.67228351  1
  H+  H89  1  0.96107984  0.14409409  0.64241190  1
  H+  H90  1  0.64179251  0.88968433  0.66270063  1
  H+  H91  1  0.31207238  0.18427909  0.75559149  1
  H+  H92  1  0.86559292  0.74503476  0.81941631  1
  H+  H93  1  0.37582187  0.60768333  0.32768094  1
  H+  H94  1  0.39373481  0.36264610  0.87886489  1
  H+  H95  1  0.11169251  0.96964884  0.33632520  1
  H+  H96  1  0.46501692  0.86812104  0.17273894  1
  H+  H97  1  0.67637349  0.10045643  0.51610258  1
  H+  H98  1  0.57114902  0.19203496  0.14729970  1
  H+  H99  1  0.07957551  0.36026226  0.32237350  1
  H+  H100  1  0.50936116  0.62860726  0.53146905  1
  H+  H101  1  0.99479088  0.87396125  0.15965513  1
  H+  H102  1  0.90699962  0.87928730  0.66114606  1
  H+  H103  1  0.86312038  0.13042834  0.16362332  1
  H+  H104  1  0.36067375  0.03137939  0.99659298  1
  H+  H105  1  0.21461302  0.62237007  0.51364551  1
  H+  H106  1  0.36986501  0.11373262  0.55045832  1
  H+  H107  1  0.73669418  0.11067740  0.83915050  1
  H+  H108  1  0.62367518  0.48099103  0.14706872  1
  H+  H109  1  0.87268152  0.14292999  0.82204270  1
  H+  H110  1  0.86566255  0.12128193  0.65533123  1
  H+  H111  1  0.12425810  0.40927311  -0.02958466  1
  H+  H112  1  0.13750224  0.76609379  0.99178664  1
  H+  H113  1  0.60944559  0.47047910  0.49001968  1
  H+  H114  1  0.88493452  0.52427802  0.66158869  1
  H+  H115  1  0.75685462  0.13566878  0.67599125  1
  H+  H116  1  0.36034528  0.47415587  0.33864400  1
  H+  H117  1  0.89658057  0.36094085  0.49791396  1
  H+  H118  1  0.13552339  1.00103029  0.83178369  1
  H+  H119  1  0.88106153  0.99505082  0.82681007  1
  H+  H120  1  0.12264617  0.40798955  0.50246502  1
  H+  H121  1  0.89189908  0.52897129  0.98176935  1
  H+  H122  1  0.27870659  0.14581543  0.16096454  1
  H+  H123  1  0.73055157  0.37134175  0.65382143  1
  H+  H124  1  0.03664290  0.18630386  0.15355038  1
  H+  H125  1  0.46983529  0.84967428  0.50315940  1
  H+  H126  1  0.62497208  0.52377724  1.01853483  1
  H+  H127  1  0.35718204  0.81821579  0.65233875  1
  H+  H128  1  0.65442322  0.79779031  0.46568544  1
  H+  H129  1  0.40575778  0.82929303  0.23180227  1
  H+  H130  1  0.36232947  0.37817038  0.67249897  1
  H+  H131  1  0.48054049  0.11344690  0.85130843  1
  H+  H132  1  0.60809345  0.84501256  0.67191961  1
  H+  H133  1  0.89413349  0.61815153  -0.01519424  1
  H+  H134  1  0.64965146  0.59195600  0.96663544  1
  H+  H135  1  0.13184363  0.15765435  0.84935294  1
  H+  H136  1  0.77736338  0.88169659  0.49624056  1
  H+  H137  1  0.88147905  0.27364456  0.65368290  1
  H+  H138  1  0.63828785  0.51674658  0.32308808  1
  H+  H139  1  0.97138608  0.84528439  0.50251020  1
  H+  H140  1  0.46731597  0.85640999  0.32583425  1
  H+  H141  1  0.12019323  0.89904972  0.67883525  1
  H+  H142  1  0.89159194  0.02968662  0.99073282  1
  H+  H143  1  0.89626430  0.27134213  0.15562205  1
  H+  H144  1  0.62707256  0.20971421  0.00553419  1
  H+  H145  1  0.36241640  0.13832467  0.15500860  1
  H+  H146  1  0.89280348  0.61000082  0.16555851  1
  H+  H147  1  0.12666167  0.60228057  0.34434878  1
  H+  H148  1  0.27543739  0.64519008  -0.00103645  1
  H+  H149  1  0.17481620  0.11367026  0.02402129  1
  H+  H150  1  0.60678010  0.88100458  0.34320122  1
  H+  H151  1  0.43760085  0.95233536  0.70374673  1
  H+  H152  1  0.77852394  0.13883671  0.16488001  1
  H+  H153  1  0.39869851  0.28033057  0.16405033  1
  H+  H154  1  0.07212997  0.44208650  0.33116053  1
  H+  H155  1  0.38922518  0.78279003  0.99442767  1
  H+  H156  1  0.13521074  0.60627158  0.67420441  1
  H+  H157  1  0.58319491  0.18172624  0.38502972  1
  H+  H158  1  0.10738202  0.94136008  0.48055351  1
  H+  H159  1  0.63994306  1.01869278  0.33502434  1
  H+  H160  1  0.76807827  0.11434664  1.00641331  1
  H+  H161  1  0.13506230  0.36763754  0.66061289  1
  H+  H162  1  0.86107880  0.94126694  0.73428464  1
  H+  H163  1  0.36893405  0.24136034  0.31358467  1
  H+  H164  1  0.26700777  0.88289242  0.00826003  1
  H+  H165  1  0.02239439  0.38281923  0.67208923  1
  H+  H166  1  0.30226166  0.91114470  0.48416891  1
  H+  H167  1  0.37381608  0.51696105  0.99395045  1
  H+  H168  1  0.92244031  0.25933277  0.47146861  1
  H+  H169  1  0.34921076  0.71471253  0.33661030  1
  H+  H170  1  0.52043012  0.38181915  0.85088980  1
  H+  H171  1  0.36701351  0.39388618  0.49564091  1
  H+  H172  1  0.26717637  0.63728239  0.82789568  1
  H+  H173  1  0.37819037  0.85628870  0.32287989  1
  H+  H174  1  0.37221640  0.60712599  0.16821180  1
  H+  H175  1  0.10785736  0.71498490  0.35792218  1
  H+  H176  1  0.77531913  0.38271272  0.49409776  1
  H+  H177  1  0.36033229  0.89364876  0.01108816  1
  H+  H178  1  0.63821831  0.26495880  0.84898339  1
  H+  H179  1  1.01538859  0.81159388  0.19476996  1
  H+  H180  1  0.51083264  0.40355828  0.97327395  1
  H+  H181  1  0.21317302  0.58771446  0.20307240  1
  H+  H182  1  0.87962525  0.72500873  0.15879478  1
  H+  H183  1  0.85606188  0.62732438  0.49308993  1
  H+  H184  1  0.03357668  0.90060485  0.67860731  1
  H+  H185  1  0.14748355  0.12686927  0.67835994  1
  H+  H186  1  0.58834349  0.79427594  0.94409370  1
  H+  H187  1  0.36637272  0.38905686  0.33344087  1
  H+  H188  1  0.36031567  0.73555085  0.15679622  1
  H+  H189  1  0.77478807  0.64215333  0.01132152  1
  H+  H190  1  0.37662139  0.89119021  0.47922744  1
  H+  H191  1  0.84484194  0.68600540  0.75952440  1
  H+  H192  1  0.11863317  0.86879294  0.99679813  1
  H+  H193  1  0.77573627  0.15245638  0.48726401  1
  H+  H194  1  0.77774714  0.86194366  0.65508687  1
  H+  H195  1  0.85863731  0.37904327  0.81555992  1
  H+  H196  1  0.78275533  0.12949950  0.34785688  1
  H+  H197  1  0.60686662  -0.01762252  0.16832432  1
  H+  H198  1  0.33186563  0.40737501  0.05434189  1
  H+  H199  1  0.73633737  0.65593990  0.79336693  1
  H+  H200  1  0.15098506  0.85318701  0.49931398  1
  H+  H201  1  0.13651557  0.52408154  0.84066285  1
  H+  H202  1  0.11148001  0.62682128  0.17091925  1
  H+  H203  1  0.91482006  0.16302303  0.47474194  1
  H+  H204  1  0.96359801  0.08197276  0.17557133  1
  H+  H205  1  0.86154671  0.47464170  0.49716566  1
  H+  H206  1  0.86601670  0.37120622  0.31603114  1
  H+  H207  1  -0.02830221  0.60500369  0.50663390  1
  H+  H208  1  0.62417555  0.13525967  0.83525759  1
  H+  H209  1  0.11016117  -0.00106340  0.14126541  1
  H+  H210  1  0.37232007  0.38908100  0.14954958  1
  H+  H211  1  0.14148047  0.61939330  0.99255439  1
  H+  H212  1  0.56514626  0.66252556  0.11365617  1
  H+  H213  1  0.11946271  0.14860876  0.50761068  1
  H+  H214  1  0.59617114  0.88892684  0.16891569  1
  H+  H215  1  0.60815449  0.02760560  0.67421927  1
  H+  H216  1  0.87157311  0.73268792  0.66537691  1
  H+  H217  1  0.37622490  0.40202300  -0.00808110  1
  H+  H218  1  0.22561990  0.36021610  0.32463996  1
  H+  H219  1  0.98248319  0.37494565  0.97721106  1
  H+  H220  1  0.61210081  0.46169696  0.84536184  1
  H+  H221  1  0.37827773  0.11183215  0.31745569  1
  H+  H222  1  0.79139720  0.90586594  0.81628349  1
  H+  H223  1  0.20652312  0.59060709  0.33342251  1
  H+  H224  1  0.16122285  0.82817154  0.60126328  1
  H+  H225  1  0.58097256  0.08215718  0.52028054  1
  H+  H226  1  0.38199259  0.60828422  0.66392420  1
  H+  H227  1  0.59553088  0.96148375  0.50158027  1
  H+  H228  1  0.13181621  0.24755728  0.68071207  1
  H+  H229  1  0.63369713  0.76837444  0.31880299  1
  H+  H230  1  0.22233589  0.85716040  0.32092455  1
  H+  H231  1  0.62485989  0.39450700  0.68111333  1
  H+  H232  1  0.64777202  0.44085343  -0.00426537  1
  H+  H233  1  0.67314131  0.30916327  0.14980203  1
  H+  H234  1  0.59768559  0.72716300  0.17018348  1
  H+  H235  1  0.41171484  0.34221828  0.61452444  1
  H+  H236  1  0.36367255  0.00584211  0.16929299  1
  H+  H237  1  0.59218431  0.63107475  0.02839451  1
  H+  H238  1  0.86247721  0.87742777  0.33829989  1
  H+  H239  1  0.39385598  0.14557780  0.69906485  1
  H+  H240  1  0.35079614  0.72143561  0.48735926  1
  H+  H241  1  0.87214179  0.64282576  0.66787152  1
  H+  H242  1  0.34940301  0.96655779  0.33028297  1
  H+  H243  1  0.35944520  0.47779654  0.67157240  1
  H+  H244  1  0.14160573  0.11969336  0.17495560  1
  H+  H245  1  0.37459754  0.52068384  0.50086663  1
  H+  H246  1  0.34094802  0.87443256  0.16080112  1
  H+  H247  1  0.90391208  0.08529640  0.55925238  1
  H+  H248  1  0.97571016  0.60959483  0.66617856  1
  H+  H249  1  0.09571539  0.16052409  0.08517869  1
  H+  H250  1  0.39219880  0.02643234  0.85023401  1
  H+  H251  1  0.49996036  0.09896070  0.15665162  1
  H+  H252  1  0.01340266  0.86446160  -0.00962929  1
  H+  H253  1  0.11063760  0.47235901  0.67544030  1
  H+  H254  1  0.92006891  0.33090786  0.29852120  1
  H+  H255  1  1.02429034  0.63485504  1.00728604  1
  H+  H256  1  0.90166761  0.36929087  0.15161075  1
  H+  H257  1  0.05943881  0.63957153  0.75002275  1
  H+  H258  1  0.34476390  0.63003377  0.48942124  1
  H+  H259  1  0.89819079  0.77028792  -0.01179629  1
  H+  H260  1  0.14296691  1.03369318  0.67297326  1
  H+  H261  1  0.12125149  0.38265882  0.15632364  1
  H+  H262  1  0.73848287  0.60829769  0.65332358  1
  H+  H263  1  0.83739801  0.43236758  0.40394922  1
  H+  H264  1  0.63855803  0.11359209  0.18132609  1
  H+  H265  1  0.89595100  0.53937384  0.32157194  1
  H+  H266  1  0.75672098  0.89670263  0.99081928  1
  H+  H267  1  0.26759705  0.62282111  0.67990020  1
  H+  H268  1  0.09013759  0.16846255  0.44434897  1
  H+  H269  1  0.40560701  0.06171606  0.70105129  1
  H+  H270  1  0.27593653  0.15600415  0.52283262  1
  H+  H271  1  0.67127823  0.73369845  0.66482949  1
  H+  H272  1  0.73367830  0.31011791  0.29273446  1
  H+  H273  1  0.23136695  0.37016431  0.50611483  1
  H+  H274  1  0.82949374  0.41348789  0.72704840  1
  H+  H275  1  0.59657787  0.62519153  0.53395954  1
  H+  H276  1  0.79912835  0.40107455  0.15276933  1
  H+  H277  1  0.46336615  0.10543372  0.32169884  1
  H+  H278  1  0.65284215  0.01729890  0.99941058  1
  H+  H279  1  0.12751567  0.75315435  0.17908798  1
  H+  H280  1  0.36463646  0.88178850  0.83669981  1
  H+  H281  1  0.83875110  0.96412638  0.15594989  1
  H+  H282  1  0.22484192  0.11149673  0.31774288  1
  H+  H283  1  0.60897871  0.21806456  0.31934052  1
  H+  H284  1  0.60999559  0.25650983  0.51143389  1
  H+  H285  1  0.07895741  0.60151267  0.83825931  1
  H+  H286  1  0.59435751  0.64074951  0.82204830  1
  H+  H287  1  0.07034361  0.77860459  0.62964184  1
  H+  H288  1  0.14187075  0.56236588  0.25253623  1
  H+  H289  1  0.39230105  0.56704994  0.90241069  1
  H+  H290  1  0.77076072  0.37908046  0.82046573  1
  H+  H291  1  0.13233724  0.85994596  0.31969248  1
  H+  H292  1  0.33858398  0.67491204  0.05694978  1
  H+  H293  1  0.67342072  0.57999079  0.22610626  1
  H+  H294  1  0.92696458  0.82754369  0.26610310  1
  H+  H295  1  0.91039222  0.57767410  0.56511299  1
  H+  H296  1  0.26951372  0.66124763  0.13495461  1
  H+  H297  1  0.40567174  0.81742483  0.55975598  1
  H+  H298  1  0.83625551  0.15268783  0.07102763  1
  H+  H299  1  0.33988421  0.91937279  0.77993843  1
  H+  H300  1  0.17762698  0.34299530  0.26080983  1
  H+  H301  1  0.60546331  0.87646561  0.49765094  1
  H+  H302  1  0.58087012  0.40789871  0.39796014  1
  H+  H303  1  0.12124015  0.19991311  0.79147278  1
  H+  H304  1  0.91971350  0.58455553  0.22915464  1
  H+  H305  1  0.33506665  0.41362487  0.43152671  1
  H+  H306  1  0.07687462  0.88657759  0.42213685  1
  H+  H307  1  0.67488547  0.08842026  0.24044917  1
  H+  H308  1  0.92964948  0.83432613  0.92871601  1
  H+  H309  1  0.08300804  0.16569265  0.24355993  1
  H+  H310  1  0.69999848  0.86103927  0.17445438  1
  H+  H311  1  0.66247978  0.31859174  0.93763432  1
  H+  H312  1  0.30283374  0.16795364  0.06106802  1
  H+  H313  1  0.26572274  0.38894364  0.67132758  1
  H+  H314  1  0.78311809  0.64259395  0.15757941  1
  H+  H315  1  0.87571317  0.12957725  0.00867513  1
  H+  H316  1  0.60258073  0.37745577  0.49200094  1
  H+  H317  1  0.67656515  0.82415490  0.86608656  1
  H+  H318  1  0.16881909  0.33968270  0.60061250  1
  H+  H319  1  0.16636375  0.58720745  0.89856077  1
  H+  H320  1  0.44865481  0.59325326  0.84392446  1
  H+  H321  1  0.02403505  0.63017131  0.16470882  1
  H+  H322  1  0.46997468  0.60990443  0.64682539  1
  H+  H323  1  0.08340491  0.66164365  0.06789180  1
  H+  H324  1  0.57640929  0.71620608  0.81566186  1
  H+  H325  1  0.10042349  0.41439553  0.04318331  1
  H+  H326  1  0.40209373  0.06787464  0.22726624  1
  H+  H327  1  0.71387246  0.58740616  0.89579279  1
  H+  H328  1  0.92979227  0.84264488  0.60184952  1
  H+  H329  1  0.59096449  0.41776827  0.74191517  1
  H+  H330  1  0.61998272  0.66525998  0.42229782  1
  H+  H331  1  0.16457917  0.58740573  0.60956729  1
  H+  H332  1  0.08818914  0.91791613  0.04922078  1
  H+  H333  1  0.49981242  0.10017419  0.45962563  1
  H+  H334  1  0.61975298  0.75260233  0.52744942  1
  H+  H335  1  0.38914728  0.57276666  0.56265012  1
  H+  H336  1  0.09925014  0.93842456  0.77523743  1
  H+  H337  1  0.97831473  0.10152797  0.30744759  1
  H+  H338  1  0.54445133  0.92818872  0.74581620  1
  H+  H339  1  0.99055429  0.88043694  0.84173012  1
  H+  H340  1  0.71004062  0.82839166  0.59982947  1
  H+  H341  1  0.84320880  0.42541573  0.05459530  1
  H+  H342  1  0.91997030  0.33090949  0.59357203  1
  H+  H343  1  0.33847965  0.19184954  0.37469823  1
  H+  H344  1  0.11538913  0.22415472  0.30211518  1
  H+  H345  1  0.00030641  0.36602234  0.15094065  1
  H+  H346  1  0.58786016  0.14016216  0.05914096  1
  H+  H347  1  0.68384884  0.07953097  0.90144646  1
  H+  H348  1  0.61461789  0.97603122  0.83113354  1
  H+  H349  1  0.88323003  0.18598489  0.40407716  1
  H+  H350  1  0.59453507  0.68794885  0.41916426  1
  H+  H351  1  0.38791199  0.76819641  0.84518336  1
  H+  H352  1  0.91650611  0.33414600  0.89030779  1
  H+  H353  1  0.34077592  0.16390994  0.47090868  1
  H+  H354  1  0.64003268  0.07438226  0.61033003  1
  H+  H355  1  0.71687527  0.60416930  0.50288954  1
  H+  H356  1  0.23347818  0.12560297  0.89542131  1
  H+  H357  1  0.65318470  0.32358155  0.56565558  1
  H+  H358  1  0.09602581  0.67278457  0.42436001  1
  H+  H359  1  0.83567269  0.90836398  0.39901976  1
  H+  H360  1  0.67847690  0.33140629  0.24897482  1
  H+  H361  1  0.90159203  0.05832800  0.23222676  1
  H+  H362  1  0.40866905  0.09648393  0.60984457  1
  H+  H363  1  0.83053451  0.66469494  0.39820185  1
  H+  H364  1  0.80218459  0.92186129  0.05460777  1
  H+  H365  1  0.33026576  0.91049433  0.39034378  1
  H+  H366  1  0.16901933  0.83042149  0.93124629  1
  H+  H367  1  0.12033633  0.39848796  0.84482734  1
  H+  H368  1  0.16768268  0.07672887  0.22779821  1
  H+  H369  1  0.09641326  0.41113509  0.77470350  1
  H+  H370  1  0.57457435  0.90887055  0.40178936  1
  H+  H371  1  0.97703497  0.62135384  0.89359397  1
  H+  H372  1  0.62446983  0.33403359  0.99921371  1
  H+  H373  1  0.31108701  0.90406958  0.10017740  1
  H+  H374  1  0.66590014  0.56641826  0.89087932  1
  H+  H375  1  0.31987581  0.65808986  0.39727721  1
  H+  H376  1  0.42991821  0.34681351  0.25191187  1
  H+  H377  1  0.64721819  0.66598350  0.72661144  1
  H+  H378  1  0.32997552  0.65574902  0.73918019  1
  H+  H379  1  0.84309463  0.67089101  0.06340736  1
  H+  H380  1  0.59688924  0.17270444  0.77831945  1
  H+  H381  1  0.82543090  0.16719258  0.73139038  1
  H+  H382  1  0.27569016  0.35885410  0.86980106  1
  H+  H383  1  0.17333027  0.10613472  0.59182309  1
  O2-  O384  1  0.08155534  0.17300187  0.16336928  1
  O2-  O385  1  0.08410600  0.17113554  0.48824912  1
  O2-  O386  1  0.09689251  0.18060689  0.83210523  1
  O2-  O387  1  0.08854460  0.41171120  0.14116176  1
  O2-  O388  1  0.08835567  0.43422412  0.48971291  1
  O2-  O389  1  0.08940882  0.41934403  0.81825922  1
  O2-  O390  1  0.08722007  0.66094590  0.15267407  1
  O2-  O391  1  0.07078364  0.66111442  0.49730227  1
  O2-  O392  1  0.02575424  0.59945825  0.82095816  1
  O2-  O393  1  0.06446472  0.95675605  0.11308906  1
  O2-  O394  1  0.07713091  0.88150748  0.46806950  1
  O2-  O395  1  0.09850252  0.94016375  0.82040651  1
  O2-  O396  1  0.33880549  0.17628690  0.14534614  1
  O2-  O397  1  0.33852423  0.18162876  0.51230067  1
  O2-  O398  1  0.27065322  0.18459515  0.81916896  1
  O2-  O399  1  0.33707648  0.41399584  0.13410551  1
  O2-  O400  1  0.33242603  0.41738433  0.47690616  1
  O2-  O401  1  0.33132933  0.38651265  0.84818970  1
  O2-  O402  1  0.32910712  0.67522328  0.13888013  1
  O2-  O403  1  0.31528414  0.66056059  0.47343246  1
  O2-  O404  1  0.32862565  0.66336649  0.81469658  1
  O2-  O405  1  0.30595230  0.90030969  0.14670659  1
  O2-  O406  1  0.35558557  0.92817952  0.46135041  1
  O2-  O407  1  0.33518432  0.91399727  0.82448308  1
  O2-  O408  1  0.56235561  0.13424716  0.14372209  1
  O2-  O409  1  0.52667648  0.12770089  0.49799740  1
  O2-  O410  1  0.59346795  0.16628463  0.82354241  1
  O2-  O411  1  0.59774541  0.42056252  0.13297922  1
  O2-  O412  1  0.57510136  0.40955857  0.47485373  1
  O2-  O413  1  0.57552495  0.40598359  0.82639480  1
  O2-  O414  1  0.57117805  0.66474267  0.15951444  1
  O2-  O415  1  0.56854235  0.65732177  0.54895395  1
  O2-  O416  1  0.55491388  0.66076653  0.83591273  1
  O2-  O417  1  0.57106439  0.92320673  0.15170958  1
  O2-  O418  1  0.57361615  0.90434424  0.48161625  1
  O2-  O419  1  0.58129033  0.91682072  0.81322735  1
  O2-  O420  1  0.83755579  0.16417713  0.14676047  1
  O2-  O421  1  0.92549949  0.21178802  0.44717573  1
  O2-  O422  1  0.83698468  0.16754309  0.80719781  1
  O2-  O423  1  0.85834041  0.42492958  0.13651830  1
  O2-  O424  1  0.83479901  0.41482226  0.47900997  1
  O2-  O425  1  0.82616184  0.40578953  0.79871797  1
  O2-  O426  1  0.84283478  0.66694765  0.14143249  1
  O2-  O427  1  0.82482773  0.65685771  0.47732960  1
  O2-  O428  1  0.82707374  0.68691258  0.80218895  1
  O2-  O429  1  0.79681265  0.90682876  0.13730744  1
  O2-  O430  1  0.83677512  0.91201839  0.48046724  1
  O2-  O431  1  0.85442845  0.93565915  0.80863799  1
  O2-  O432  1  0.17176404  0.08720315  0.18300939  1
  O2-  O433  1  0.17513811  0.11022707  0.54430134  1
  O2-  O434  1  0.20719833  0.11480815  0.85476779  1
  O2-  O435  1  0.17733487  0.34132075  0.18231353  1
  O2-  O436  1  0.17278223  0.34405249  0.52491941  1
  O2-  O437  1  0.16841757  0.39858720  0.91654708  1
  O2-  O438  1  0.15123668  0.56421840  0.20555384  1
  O2-  O439  1  0.15934411  0.59478725  0.53614937  1
  O2-  O440  1  0.16151103  0.58580868  0.85307015  1
  O2-  O441  1  0.15345427  0.81591410  0.19363819  1
  O2-  O442  1  0.19205247  0.84069832  0.52114478  1
  O2-  O443  1  0.17120182  0.84298298  0.86376647  1
  O2-  O444  1  0.40255101  0.06680971  0.18192405  1
  O2-  O445  1  0.39456833  0.07931206  0.56607892  1
  O2-  O446  1  0.41946590  0.08724301  0.86262033  1
  O2-  O447  1  0.43079508  0.34253927  0.17661229  1
  O2-  O448  1  0.42265436  0.35270701  0.53557233  1
  O2-  O449  1  0.43908478  0.35024456  0.89914307  1
  O2-  O450  1  0.39943230  0.57588210  0.18565407  1
  O2-  O451  1  0.39891138  0.58000104  0.51806690  1
  O2-  O452  1  0.38733485  0.56147225  0.85715133  1
  O2-  O453  1  0.40376551  0.83169288  0.18603794  1
  O2-  O454  1  0.40790028  0.82325935  0.51477463  1
  O2-  O455  1  0.42065458  0.82966551  0.85828642  1
  O2-  O456  1  0.67490564  0.08942537  0.19498849  1
  O2-  O457  1  0.61992459  0.05906347  0.53285199  1
  O2-  O458  1  0.67707972  0.07861917  0.85662096  1
  O2-  O459  1  0.69042988  0.36010470  0.17452097  1
  O2-  O460  1  0.64774372  0.31801647  0.52000438  1
  O2-  O461  1  0.66669849  0.32594969  0.86451648  1
  O2-  O462  1  0.67562225  0.58713254  0.18091541  1
  O2-  O463  1  0.65737862  0.57062136  0.51963012  1
  O2-  O464  1  0.67014385  0.62812328  0.78187807  1
  O2-  O465  1  0.64206585  0.83157971  0.19394057  1
  O2-  O466  1  0.65572920  0.81334692  0.50842852  1
  O2-  O467  1  0.67964225  0.84241076  0.82400024  1
  O2-  O468  1  0.90228584  0.05951140  0.18599903  1
  O2-  O469  1  0.91355052  0.08058742  0.51489957  1
  O2-  O470  1  0.93008874  0.09612236  0.85265325  1
  O2-  O471  1  0.93233731  0.33541780  0.16086038  1
  O2-  O472  1  0.92990685  0.33404633  0.51256700  1
  O2-  O473  1  0.91495144  0.32891115  0.84403944  1
  O2-  O474  1  0.92417816  0.58198365  0.18257584  1
  O2-  O475  1  0.90754058  0.57508625  0.51991382  1
  O2-  O476  1  1.01292361  0.65850936  0.85958149  1
  O2-  O477  1  0.96892722  0.82411854  0.18854363  1
  O2-  O478  1  0.91555221  0.82489533  0.52314660  1
  O2-  O479  1  0.92897584  0.84653133  0.85427621  1
  O2-  O480  1  0.16382169  0.07213042  0.30678442  1
  O2-  O481  1  0.17429043  0.09540500  0.65877574  1
  O2-  O482  1  0.10899274  0.08402379  1.02834719  1
  O2-  O483  1  0.16782307  0.33055222  0.30535281  1
  O2-  O484  1  0.16845600  0.33892910  0.64644875  1
  O2-  O485  1  0.19224733  0.33398540  0.92953831  1
  O2-  O486  1  0.14504979  0.56484041  0.32196955  1
  O2-  O487  1  0.16671015  0.57975869  0.65527785  1
  O2-  O488  1  0.17563022  0.59404116  0.97596162  1
  O2-  O489  1  0.16159946  0.82841636  0.30372955  1
  O2-  O490  1  0.13045188  0.81501708  0.64101618  1
  O2-  O491  1  0.16809723  0.82737529  0.97863719  1
  O2-  O492  1  0.40304709  0.07482773  0.30704721  1
  O2-  O493  1  0.42870345  0.11972522  0.68335371  1
  O2-  O494  1  0.37647082  0.08900843  0.98196417  1
  O2-  O495  1  0.42346976  0.34152650  0.29767405  1
  O2-  O496  1  0.40171609  0.34148179  0.65928806  1
  O2-  O497  1  0.46358298  0.40853385  0.95132185  1
  O2-  O498  1  0.40547534  0.57723121  0.31036169  1
  O2-  O499  1  0.40759988  0.57630578  0.64259600  1
  O2-  O500  1  0.40841462  0.57889632  0.98090830  1
  O2-  O501  1  0.40830350  0.82543050  0.30842292  1
  O2-  O502  1  0.40038940  0.80337185  0.64049527  1
  O2-  O503  1  0.41759179  0.84421823  0.98097660  1
  O2-  O504  1  0.67514243  0.08023559  0.32182206  1
  O2-  O505  1  0.64994898  0.08358004  0.65496501  1
  O2-  O506  1  0.69048539  0.07760846  0.98354135  1
  O2-  O507  1  0.68150488  0.31505378  0.29221402  1
  O2-  O508  1  0.66813305  0.34042525  0.64202678  1
  O2-  O509  1  0.66408896  0.31537277  0.98395465  1
  O2-  O510  1  0.66922141  0.57582224  0.30587639  1
  O2-  O511  1  0.67623381  0.57523363  0.64072651  1
  O2-  O512  1  0.65375040  0.58960961  1.01084837  1
  O2-  O513  1  0.66319482  0.83230581  0.31626670  1
  O2-  O514  1  0.73385757  0.80965110  0.63226299  1
  O2-  O515  1  0.62561460  0.80914916  0.97955565  1
  O2-  O516  1  0.91380591  0.06785278  0.30542203  1
  O2-  O517  1  0.90230985  0.09757564  0.63674446  1
  O2-  O518  1  0.92893255  0.09225099  0.98065009  1
  O2-  O519  1  0.86312114  0.32502901  0.29034708  1
  O2-  O520  1  0.91797050  0.33341338  0.63893871  1
  O2-  O521  1  0.92230786  0.34349150  0.96250678  1
  O2-  O522  1  0.92045261  0.59483860  0.29944563  1
  O2-  O523  1  0.91789403  0.58582108  0.64732934  1
  O2-  O524  1  0.92765302  0.59110368  0.97108381  1
  O2-  O525  1  0.91925897  0.82981228  0.31052412  1
  O2-  O526  1  0.93352884  0.84498501  0.64719219  1
  O2-  O527  1  0.93572907  0.83083931  0.97414108  1
  O2-  O528  1  0.09156215  0.15418774  0.03954735  1
  O2-  O529  1  0.08356970  0.16168641  0.28929794  1
  O2-  O530  1  0.11443598  0.19203884  0.70330732  1
  O2-  O531  1  0.09259530  0.42841382  0.00158473  1
  O2-  O532  1  0.03726051  0.37940039  0.32622056  1
  O2-  O533  1  0.08224029  0.41072069  0.68831870  1
  O2-  O534  1  0.08492415  0.66423221  0.02292355  1
  O2-  O535  1  0.11878952  0.67605485  0.38200716  1
  O2-  O536  1  0.07530439  0.65123061  0.70556862  1
  O2-  O537  1  0.08435941  0.90029865  0.00574002  1
  O2-  O538  1  0.08239777  0.90778344  0.34895094  1
  O2-  O539  1  0.09399151  0.93236307  0.69462137  1
  O2-  O540  1  0.27603518  0.14982151  0.02072419  1
  O2-  O541  1  0.33594469  0.18064086  0.33125172  1
  O2-  O542  1  0.33190768  0.18691276  0.71144798  1
  O2-  O543  1  0.33140733  0.41304868  0.00931455  1
  O2-  O544  1  0.33359746  0.41337602  0.35332974  1
  O2-  O545  1  0.32704462  0.41703521  0.68697136  1
  O2-  O546  1  0.33799472  0.67576546  0.01197479  1
  O2-  O547  1  0.32118046  0.65455938  0.35154194  1
  O2-  O548  1  0.32971834  0.65199907  0.69317816  1
  O2-  O549  1  0.32447209  0.91623267  0.02861519  1
  O2-  O550  1  0.32084873  0.90583843  0.34442272  1
  O2-  O551  1  0.38138515  0.95212864  0.70365477  1
  O2-  O552  1  0.60690992  0.14872109  0.01648657  1
  O2-  O553  1  0.57522125  0.16291086  0.34274247  1
  O2-  O554  1  0.59688498  0.18909166  0.70101290  1
  O2-  O555  1  0.59467609  0.42561564  0.01732380  1
  O2-  O556  1  0.58367378  0.40928898  0.35194716  1
  O2-  O557  1  0.60391849  0.43202468  0.69846945  1
  O2-  O558  1  0.55850145  0.66041095  0.03847320  1
  O2-  O559  1  0.57639611  0.65815187  0.30119207  1
  O2-  O560  1  0.62834945  0.67278646  0.68348439  1
  O2-  O561  1  0.58332061  0.92210868  0.02821093  1
  O2-  O562  1  0.57639548  0.91191777  0.35643926  1
  O2-  O563  1  0.52398414  0.93985200  0.70609560  1
  O2-  O564  1  0.83518911  0.14995436  0.02529183  1
  O2-  O565  1  0.84588012  0.15574704  0.35382649  1
  O2-  O566  1  0.81958954  0.16602250  0.68563502  1
  O2-  O567  1  0.83636023  0.42531757  0.00984374  1
  O2-  O568  1  0.83646435  0.44097654  0.35877083  1
  O2-  O569  1  0.83260803  0.42031733  0.68066216  1
  O2-  O570  1  0.83753230  0.66956523  0.01809966  1
  O2-  O571  1  0.83262707  0.66994322  0.35277758  1
  O2-  O572  1  0.83892602  0.67214321  0.67965175  1
  O2-  O573  1  0.81235780  0.93194203  0.01049390  1
  O2-  O574  1  0.83266776  0.90804183  0.35374546  1
  O2-  O575  1  0.86227540  0.93932337  0.68829621  1
