# generated using pymatgen
data_H2O
_symmetry_space_group_name_H-M   'P 1'
_cell_length_a   17.96423063
_cell_length_b   17.96703511
_cell_length_c   21.97619751
_cell_angle_alpha   90.01180417
_cell_angle_beta   90.04740647
_cell_angle_gamma   119.97834166
_symmetry_Int_Tables_number   1
_chemical_formula_structural   H2O
_chemical_formula_sum   'H384 O192'
_cell_volume   6144.16260937
_cell_formula_units_Z   192
loop_
 _symmetry_equiv_pos_site_id
 _symmetry_equiv_pos_as_xyz
  1  'x, y, z'
loop_
 _atom_type_symbol
 _atom_type_oxidation_number
  H+  1.0
  O2-  -2.0
loop_
 _atom_site_type_symbol
 _atom_site_label
 _atom_site_symmetry_multiplicity
 _atom_site_fract_x
 _atom_site_fract_y
 _atom_site_fract_z
 _atom_site_occupancy
  H+  H0  1  1.00320775  0.11730194  1.02935145  1
  H+  H1  1  0.13072321  0.91210415  0.82184326  1
  H+  H2  1  0.62082365  0.97830708  0.32641150  1
  H+  H3  1  0.74089592  0.61794386  0.50387027  1
  H+  H4  1  0.13282430  0.27058272  0.83342384  1
  H+  H5  1  0.91679650  0.33223502  0.89685788  1
  H+  H6  1  0.73291842  0.12269425  0.17219510  1
  H+  H7  1  0.85782821  0.26541081  0.50588767  1
  H+  H8  1  0.59233731  0.59533876  0.15968350  1
  H+  H9  1  0.73710823  0.36082672  0.19289820  1
  H+  H10  1  0.87036562  0.39594741  0.17731846  1
  H+  H11  1  0.77283246  0.89373843  0.00822579  1
  H+  H12  1  0.58106952  0.64015487  0.10110088  1
  H+  H13  1  0.22633621  0.15778742  0.99547770  1
  H+  H14  1  0.60982702  0.15216707  0.86231640  1
  H+  H15  1  0.42289546  0.32922277  0.60382260  1
  H+  H16  1  0.88533356  0.50943022  0.83890583  1
  H+  H17  1  0.39326313  0.02336505  0.17929270  1
  H+  H18  1  0.22521019  0.36389707  0.65932634  1
  H+  H19  1  0.89160588  1.01934633  0.84277772  1
  H+  H20  1  0.11992831  0.47730323  0.34836725  1
  H+  H21  1  0.11671326  0.14252336  0.34858446  1
  H+  H22  1  0.14375939  0.56946892  0.57554043  1
  H+  H23  1  0.02678382  0.81772248  0.87192982  1
  H+  H24  1  0.52081638  0.15128432  0.86982900  1
  H+  H25  1  0.97078011  0.60900741  0.49776952  1
  H+  H26  1  0.86316609  0.13612358  0.16552931  1
  H+  H27  1  0.64919499  0.52861816  0.50202282  1
  H+  H28  1  0.10143604  0.63340796  0.68733394  1
  H+  H29  1  0.87328764  0.35908952  0.49482811  1
  H+  H30  1  0.40176570  0.10271999  0.65584087  1
  H+  H31  1  0.13420853  0.52012946  0.98418979  1
  H+  H32  1  0.28045713  0.15022818  0.34381893  1
  H+  H33  1  0.15440202  0.57890341  0.75294666  1
  H+  H34  1  0.90328929  0.85295372  0.84841081  1
  H+  H35  1  0.74261138  0.61184501  0.99589012  1
  H+  H36  1  0.36076991  0.88689580  0.16169470  1
  H+  H37  1  0.36877032  0.21357887  0.67588529  1
  H+  H38  1  0.88513627  0.86670573  0.00371483  1
  H+  H39  1  0.53259682  0.40371081  0.49510866  1
  H+  H40  1  0.37068367  0.23501615  0.82948865  1
  H+  H41  1  0.38454685  0.78459289  0.50965260  1
  H+  H42  1  0.35945304  0.38130116  0.82822961  1
  H+  H43  1  0.16800476  0.32592538  0.92446367  1
  H+  H44  1  0.61540183  0.48457928  0.83507123  1
  H+  H45  1  0.88216029  0.77252820  0.50322916  1
  H+  H46  1  0.64286281  0.51249060  0.17801475  1
  H+  H47  1  0.36536105  0.47093536  0.67679908  1
  H+  H48  1  0.17390081  0.82919367  0.23840822  1
  H+  H49  1  0.12880316  0.77335101  0.66180416  1
  H+  H50  1  0.42186575  0.83176439  0.93815660  1
  H+  H51  1  0.02716731  0.88442591  0.16059483  1
  H+  H52  1  0.34074252  0.63678586  0.50913639  1
  H+  H53  1  0.31868567  0.65582669  0.09866265  1
  H+  H54  1  0.88316933  0.48759725  0.00074373  1
  H+  H55  1  0.21219989  0.60964471  0.52113691  1
  H+  H56  1  0.85484248  0.88260797  0.15354335  1
  H+  H57  1  0.11441185  0.14069691  0.66774738  1
  H+  H58  1  0.53329364  0.37499124  0.16404465  1
  H+  H59  1  0.27393565  0.07411234  0.49016776  1
  H+  H60  1  0.62318001  0.89182288  0.31456513  1
  H+  H61  1  0.37926399  0.12070688  0.85018406  1
  H+  H62  1  0.27668911  0.89346453  0.16302744  1
  H+  H63  1  0.12113069  0.63870933  0.34395477  1
  H+  H64  1  0.76052713  0.61227340  0.67337540  1
  H+  H65  1  0.91229284  0.81807289  0.09727232  1
  H+  H66  1  0.07194422  0.73077630  0.82796150  1
  H+  H67  1  0.88028763  0.38849121  1.00153100  1
  H+  H68  1  0.41820376  0.88123476  0.84083692  1
  H+  H69  1  0.22843474  0.64726837  0.83310845  1
  H+  H70  1  0.21876016  0.59757735  0.17284117  1
  H+  H71  1  0.86967718  0.63581612  0.34406328  1
  H+  H72  1  0.12159874  0.85393227  0.50871239  1
  H+  H73  1  0.63418461  0.98752415  0.15563247  1
  H+  H74  1  0.48308260  0.10618685  0.49591207  1
  H+  H75  1  0.06713542  0.14417743  0.12685367  1
  H+  H76  1  1.01780534  0.38030161  0.66478818  1
  H+  H77  1  0.13011569  0.50917217  0.17686856  1
  H+  H78  1  0.36236168  0.12854186  0.17127533  1
  H+  H79  1  0.38959959  0.36720266  0.51117084  1
  H+  H80  1  0.61195040  0.47427588  0.34133133  1
  H+  H81  1  0.78299102  0.14853333  1.01008480  1
  H+  H82  1  0.62119672  0.23179424  0.17319775  1
  H+  H83  1  0.36810151  0.73779781  0.83505117  1
  H+  H84  1  0.85185667  0.87403354  0.48633351  1
  H+  H85  1  0.20939313  0.84815651  0.98808351  1
  H+  H86  1  0.27271210  0.38685058  0.49624398  1
  H+  H87  1  0.83921452  0.67100838  0.43293611  1
  H+  H88  1  0.62674231  0.35238975  0.49389299  1
  H+  H89  1  0.13866722  0.01895033  0.19217754  1
  H+  H90  1  0.10523749  0.37640156  0.81797272  1
  H+  H91  1  0.36037688  0.23206975  0.02630733  1
  H+  H92  1  0.72961388  0.60807711  0.84687675  1
  H+  H93  1  0.37404131  0.38998296  0.34221932  1
  H+  H94  1  -0.01499345  0.60640883  -0.00483864  1
  H+  H95  1  0.47209471  0.84817109  0.66833161  1
  H+  H96  1  0.68717462  0.34978482  0.93897323  1
  H+  H97  1  0.72135937  0.85625357  0.19167819  1
  H+  H98  1  0.62588688  0.89507556  0.16444668  1
  H+  H99  1  0.54542052  0.39505801  0.00525019  1
  H+  H100  1  0.45939452  0.99576772  0.78517524  1
  H+  H101  1  -0.03032735  0.60492646  0.83887478  1
  H+  H102  1  0.70488264  0.10347484  0.50125100  1
  H+  H103  1  0.47130522  0.84985552  1.00152218  1
  H+  H104  1  1.01443374  0.37171126  0.81771928  1
  H+  H105  1  -0.02094013  0.12251778  0.33709544  1
  H+  H106  1  0.13268780  0.27687895  0.50795702  1
  H+  H107  1  0.09078737  0.13854409  0.50284069  1
  H+  H108  1  0.87987566  0.26555419  0.65671881  1
  H+  H109  1  0.86358677  0.48169807  0.45714075  1
  H+  H110  1  0.10422251  0.66042244  0.82186462  1
  H+  H111  1  0.16073528  0.26229594  0.97702516  1
  H+  H112  1  0.63734117  0.60984046  0.65653961  1
  H+  H113  1  0.96487470  0.09717138  0.18732710  1
  H+  H114  1  0.37401017  0.73618700  0.35181084  1
  H+  H115  1  0.48384176  0.24417441  0.44641717  1
  H+  H116  1  0.35572165  0.72209894  0.00506937  1
  H+  H117  1  0.54748005  0.61775405  0.45939497  1
  H+  H118  1  0.86867590  0.63842516  0.49131887  1
  H+  H119  1  0.75650407  0.87223142  0.48621163  1
  H+  H120  1  0.10328540  0.72435796  0.49653109  1
  H+  H121  1  0.37673538  -0.01321611  0.48931463  1
  H+  H122  1  0.92001202  0.85318808  0.27038039  1
  H+  H123  1  0.89299532  0.52522595  0.34730546  1
  H+  H124  1  0.86167902  0.72120580  0.33731475  1
  H+  H125  1  0.60139359  0.12350985  0.46813391  1
  H+  H126  1  0.10924562  0.62805478  0.16488403  1
  H+  H127  1  0.08688835  0.20466787  0.18694267  1
  H+  H128  1  0.85205664  0.45545766  0.66394795  1
  H+  H129  1  0.77266441  0.38335137  0.82377976  1
  H+  H130  1  0.39718146  0.86078826  0.33295870  1
  H+  H131  1  0.95310408  0.32549502  0.25818919  1
  H+  H132  1  0.05335186  0.90146140  0.34585790  1
  H+  H133  1  0.38782213  0.51777284  0.32965761  1
  H+  H134  1  0.62081595  -0.03266863  0.67354255  1
  H+  H135  1  0.64365855  0.37654804  0.84757711  1
  H+  H136  1  0.11298671  0.47498038  0.50178055  1
  H+  H137  1  0.63056692  0.85306544  0.49599822  1
  H+  H138  1  0.60020097  0.21325463  0.46984036  1
  H+  H139  1  0.85864458  0.12723804  0.83340294  1
  H+  H140  1  0.62160271  0.09710551  0.63661688  1
  H+  H141  1  -0.02419729  0.62001543  0.18662298  1
  H+  H142  1  0.64163764  0.77849407  0.28840547  1
  H+  H143  1  0.15454526  0.77794208  0.33568801  1
  H+  H144  1  0.34991676  0.62656254  0.15820770  1
  H+  H145  1  0.48730548  0.36559901  0.32771512  1
  H+  H146  1  0.53077950  0.01233923  0.95320503  1
  H+  H147  1  0.92561288  0.82419393  0.65607828  1
  H+  H148  1  0.87831854  1.02449653  -0.00355514  1
  H+  H149  1  0.40278251  0.82040145  0.23313512  1
  H+  H150  1  0.13979189  0.76926474  0.17884828  1
  H+  H151  1  0.15398009  0.37080191  0.34225228  1
  H+  H152  1  -0.03282775  0.59519910  0.65218213  1
  H+  H153  1  0.10636869  0.71884652  0.00689175  1
  H+  H154  1  0.70803976  0.73099739  0.06495197  1
  H+  H155  1  0.31925839  -0.09157052  1.06002634  1
  H+  H156  1  0.62660615  0.96865153  0.82490280  1
  H+  H157  1  0.89741706  0.28150311  -0.00584692  1
  H+  H158  1  0.60646265  -0.03508286  0.48033708  1
  H+  H159  1  0.38630223  0.97870432  0.34081001  1
  H+  H160  1  0.09403330  0.33604910  0.18376994  1
  H+  H161  1  0.63154558  0.48026941  0.67268072  1
  H+  H162  1  0.27227987  0.12845347  0.17484886  1
  H+  H163  1  0.36694163  0.76265504  0.17408115  1
  H+  H164  1  0.48158294  0.11498199  0.17881156  1
  H+  H165  1  0.15278527  1.04488484  0.84113002  1
  H+  H166  1  0.77294849  0.64272785  0.19170067  1
  H+  H167  1  0.87162498  0.63340210  0.00629102  1
  H+  H168  1  1.04112706  0.37821914  0.34272540  1
  H+  H169  1  0.88437302  0.75684273  0.85275300  1
  H+  H170  1  0.52955328  0.63466987  0.67501184  1
  H+  H171  1  0.11505103  0.88255252  0.17324286  1
  H+  H172  1  0.45759890  0.49079967  0.12120951  1
  H+  H173  1  0.85097972  0.96846524  0.17001431  1
  H+  H174  1  0.15866986  1.03788566  0.34396653  1
  H+  H175  1  0.86634838  0.65309361  0.20181940  1
  H+  H176  1  0.59383344  0.14049642  0.00294717  1
  H+  H177  1  0.41166808  0.29078276  0.50349054  1
  H+  H178  1  0.63643576  0.86053319  -0.00649100  1
  H+  H179  1  0.37959237  0.36691980  0.00433464  1
  H+  H180  1  0.23174003  0.60995574  0.33086628  1
  H+  H181  1  0.26173489  0.38028106  0.00035704  1
  H+  H182  1  0.85581429  0.68826575  0.68108556  1
  H+  H183  1  0.61878821  0.23925597  1.00681414  1
  H+  H184  1  0.67568422  0.43579360  0.70576621  1
  H+  H185  1  0.48376804  0.37184901  0.84642728  1
  H+  H186  1  0.37138795  0.52005994  0.51166090  1
  H+  H187  1  0.40300232  0.51628380  0.84094257  1
  H+  H188  1  0.37829368  0.47349495  0.15562110  1
  H+  H189  1  0.61943755  0.72395566  0.67019746  1
  H+  H190  1  0.88074213  0.35345091  0.83607359  1
  H+  H191  1  0.90546031  0.56565563  0.55293353  1
  H+  H192  1  0.86090897  0.98518504  0.34659640  1
  H+  H193  1  0.46164840  0.59907840  0.17084668  1
  H+  H194  1  0.47837410  0.35242857  0.66429767  1
  H+  H195  1  0.09840265  0.13398324  0.02596371  1
  H+  H196  1  -0.02581734  0.11586093  0.66051113  1
  H+  H197  1  0.75884313  0.16156353  0.33702737  1
  H+  H198  1  0.73552661  0.37881534  0.35030431  1
  H+  H199  1  0.85197433  0.36732500  0.66819246  1
  H+  H200  1  1.12776594  0.51773614  0.69550974  1
  H+  H201  1  0.96138364  0.12981302  0.50808877  1
  H+  H202  1  0.35564142  0.63340553  0.00474917  1
  H+  H203  1  0.64473915  0.61711540  0.84331606  1
  H+  H204  1  0.76758214  0.12338354  0.67657978  1
  H+  H205  1  0.12550851  0.85382731  0.00146400  1
  H+  H206  1  0.03078484  0.89188825  0.01996564  1
  H+  H207  1  0.63767426  0.85744615  0.65930172  1
  H+  H208  1  0.48485634  0.85813741  0.32509753  1
  H+  H209  1  0.78667713  0.39057757  0.00481121  1
  H+  H210  1  0.53065032  0.64518243  0.32589923  1
  H+  H211  1  0.86495470  0.98638698  0.67346532  1
  H+  H212  1  0.38226218  0.89191508  0.48967647  1
  H+  H213  1  0.11033268  0.14047341  0.82520633  1
  H+  H214  1  0.37780505  0.24901142  0.33203245  1
  H+  H215  1  0.62719385  0.32570535  0.64566664  1
  H+  H216  1  0.66829386  0.82917154  0.59943031  1
  H+  H217  1  0.38037567  0.13353755  1.00692537  1
  H+  H218  1  0.89959858  0.89580638  0.65295874  1
  H+  H219  1  0.78987944  0.88320077  0.82932710  1
  H+  H220  1  0.72868208  0.60970780  0.32928909  1
  H+  H221  1  0.48170611  0.14252198  0.00093397  1
  H+  H222  1  0.89197908  0.12510482  0.34011631  1
  H+  H223  1  0.45121614  0.61526106  0.51967911  1
  H+  H224  1  0.38958811  0.26498483  0.17717634  1
  H+  H225  1  0.29080233  0.89176476  0.34089374  1
  H+  H226  1  0.64252012  0.61602638  0.32237999  1
  H+  H227  1  0.46770659  0.60448156  0.00349090  1
  H+  H228  1  0.88464185  0.11671254  0.66485789  1
  H+  H229  1  0.72081271  0.33796591  0.64582805  1
  H+  H230  1  0.28711057  0.09459279  0.52118140  1
  H+  H231  1  0.16133704  0.33124238  0.27980038  1
  H+  H232  1  0.34674755  0.87206107  0.00484458  1
  H+  H233  1  0.83869205  0.88740717  0.33359668  1
  H+  H234  1  0.36014081  -0.03681927  0.66866123  1
  H+  H235  1  0.26946676  0.87869930  0.67927960  1
  H+  H236  1  0.14284136  0.86966055  0.65840502  1
  H+  H237  1  0.90079394  0.07586988  0.24249743  1
  H+  H238  1  0.54298303  0.13692782  0.37774070  1
  H+  H239  1  0.59845183  0.95925766  0.00437633  1
  H+  H240  1  0.88932905  0.28204688  0.17670693  1
  H+  H241  1  0.11443059  0.38007004  -0.00000265  1
  H+  H242  1  0.27534081  0.62812279  0.69594655  1
  H+  H243  1  0.12342705  0.38455971  0.49982214  1
  H+  H244  1  0.04662867  0.28557712  0.24358414  1
  H+  H245  1  0.15970633  0.86952767  0.33725017  1
  H+  H246  1  0.14610689  1.00833187  0.66014488  1
  H+  H247  1  -0.01128020  0.36944826  -0.00894313  1
  H+  H248  1  0.72946131  0.11372418  0.83413547  1
  H+  H249  1  0.11194881  0.63157406  1.00428158  1
  H+  H250  1  0.64730759  0.35766785  0.18944593  1
  H+  H251  1  0.39139249  0.66804160  0.38520003  1
  H+  H252  1  0.23040230  0.13618917  0.84521514  1
  H+  H253  1  0.87367358  0.58301181  0.65333939  1
  H+  H254  1  0.98334773  0.36064023  0.16576727  1
  H+  H255  1  0.22347869  0.35979837  0.83455556  1
  H+  H256  1  0.61771518  0.09916997  0.31503220  1
  H+  H257  1  0.38784044  0.60615976  0.67571306  1
  H+  H258  1  0.43911584  0.36199728  1.05212362  1
  H+  H259  1  0.31179880  0.67017813  0.45162402  1
  H+  H260  1  0.86900798  0.72122704  0.00950099  1
  H+  H261  1  0.65980711  0.37637767  1.00063443  1
  H+  H262  1  0.09144583  0.66929190  0.40364860  1
  H+  H263  1  0.37849504  0.51891470  0.99408214  1
  H+  H264  1  0.64537943  0.09188795  0.79735375  1
  H+  H265  1  0.59781372  0.66811430  0.76796695  1
  H+  H266  1  0.10174925  0.63303225  0.49855150  1
  H+  H267  1  0.10897726  0.22638733  0.67114259  1
  H+  H268  1  0.61524446  0.18299802  0.62113654  1
  H+  H269  1  0.91562941  0.26493028  0.31634259  1
  H+  H270  1  0.36177614  0.37977296  0.67389269  1
  H+  H271  1  0.63873588  0.63860822  0.48168377  1
  H+  H272  1  0.97532533  0.11239465  0.84010753  1
  H+  H273  1  0.48179717  0.08797162  0.63570179  1
  H+  H274  1  0.54025229  0.63394501  0.82903113  1
  H+  H275  1  0.62993755  0.88073897  0.82893067  1
  H+  H276  1  0.28178351  0.12565730  0.67646147  1
  H+  H277  1  0.11937903  0.23252429  0.34726435  1
  H+  H278  1  0.65123071  0.77247870  0.83986239  1
  H+  H279  1  0.84361235  0.13452962  0.49671385  1
  H+  H280  1  0.18439623  0.10485576  0.50622777  1
  H+  H281  1  0.82727269  0.64438628  0.77634013  1
  H+  H282  1  0.85924851  0.21800067  0.83304931  1
  H+  H283  1  0.63451019  0.76526431  0.49664326  1
  H+  H284  1  0.09666907  0.97713298  0.50133318  1
  H+  H285  1  0.05312616  0.92924128  0.66134524  1
  H+  H286  1  0.58763560  0.90199764  0.73096642  1
  H+  H287  1  0.44470737  0.08629987  0.27333153  1
  H+  H288  1  0.05898717  0.66993809  0.73064221  1
  H+  H289  1  0.66120232  0.57112747  0.23748098  1
  H+  H290  1  0.82529385  0.92263909  0.07110808  1
  H+  H291  1  0.77996514  0.89212922  0.67183327  1
  H+  H292  1  0.33095096  0.40947164  0.76744999  1
  H+  H293  1  0.85916850  0.61752579  0.83589936  1
  H+  H294  1  0.66097684  0.65507244  1.01809566  1
  H+  H295  1  0.17208311  0.13439278  0.93421599  1
  H+  H296  1  0.92405832  0.58942503  0.24978825  1
  H+  H297  1  0.84203052  0.17109597  0.10441530  1
  H+  H298  1  0.82671531  0.40418386  0.76121896  1
  H+  H299  1  0.07722821  0.16437584  0.76375382  1
  H+  H300  1  0.64159565  0.12008472  0.17216153  1
  H+  H301  1  0.36803613  0.18792043  0.39336743  1
  H+  H302  1  0.58539349  0.42432210  0.43179581  1
  H+  H303  1  0.67897541  0.83283280  0.89955931  1
  H+  H304  1  0.33845034  0.16822045  0.77274236  1
  H+  H305  1  0.41002380  0.09937192  0.94153083  1
  H+  H306  1  0.81130941  0.16556987  0.43726341  1
  H+  H307  1  0.13507462  0.36469889  0.65713404  1
  H+  H308  1  0.49721762  0.86460113  0.84519184  1
  H+  H309  1  0.83483014  0.76997181  0.25941757  1
  H+  H310  1  0.34853968  0.92400886  0.42660052  1
  H+  H311  1  0.03241521  0.31216743  0.11271797  1
  H+  H312  1  0.67890988  0.34043000  0.28903976  1
  H+  H313  1  0.43426142  0.57576170  0.90020785  1
  H+  H314  1  0.83185150  0.16452031  0.73487564  1
  H+  H315  1  0.67001385  0.58200999  0.59602816  1
  H+  H316  1  0.39434703  0.03832277  0.84954682  1
  H+  H317  1  0.98393339  0.61572974  0.34060816  1
  H+  H318  1  0.42211604  0.33999989  0.90435309  1
  H+  H319  1  0.09664776  0.92519945  0.41123705  1
  H+  H320  1  0.16808975  0.33807975  0.56808112  1
  H+  H321  1  0.37407107  0.59794755  0.31902718  1
  H+  H322  1  0.84866400  0.91614306  0.77047258  1
  H+  H323  1  0.09563376  0.92093905  0.07553348  1
  H+  H324  1  0.33817278  0.67167150  0.77986077  1
  H+  H325  1  0.91405530  0.08395813  0.93655402  1
  H+  H326  1  0.17059467  0.57546023  0.27198574  1
  H+  H327  1  0.63885776  0.28618933  0.86231923  1
  H+  H328  1  0.91334106  0.84453841  0.55776497  1
  H+  H329  1  0.82243432  0.91075178  0.42113285  1
  H+  H330  1  0.58872463  0.90927475  0.41948623  1
  H+  H331  1  0.09048843  0.41766272  0.43514088  1
  H+  H332  1  0.86686941  0.13946371  0.00537913  1
  H+  H333  1  0.58804318  0.18099737  0.10921644  1
  H+  H334  1  0.86111886  0.47941458  0.18150467  1
  H+  H335  1  0.66946354  0.08776122  0.26069925  1
  H+  H336  1  0.13451031  0.10602369  0.19378190  1
  H+  H337  1  0.88114401  0.76896398  0.16085090  1
  H+  H338  1  0.63177287  0.48564146  0.00963131  1
  H+  H339  1  0.08308328  0.66084488  0.10568253  1
  H+  H340  1  0.10726276  0.82175206  0.90716486  1
  H+  H341  1  0.64949069  0.30665437  0.54708947  1
  H+  H342  1  0.42127109  0.07875187  0.55729165  1
  H+  H343  1  0.40909229  0.57658014  0.61339934  1
  H+  H344  1  0.60265431  0.68680767  0.37700850  1
  H+  H345  1  0.01298245  0.88624870  0.48986288  1
  H+  H346  1  0.91660170  0.83002846  0.94904074  1
  H+  H347  1  0.67472412  0.58554110  0.93931293  1
  H+  H348  1  0.42732230  0.33531028  0.26605312  1
  H+  H349  1  0.47829664  0.86342458  0.49024707  1
  H+  H350  1  0.32520602  0.16126333  0.07967881  1
  H+  H351  1  0.32864641  0.41741266  0.05935937  1
  H+  H352  1  0.62004423  0.38797342  0.34655664  1
  H+  H353  1  0.13304418  0.95703571  0.75866526  1
  H+  H354  1  0.14989244  0.09003452  0.57633574  1
  H+  H355  1  0.15278136  0.59419538  0.87925753  1
  H+  H356  1  0.80812335  0.25389118  0.36742261  1
  H+  H357  1  0.62475935  0.08097113  0.54686990  1
  H+  H358  1  0.59687820  0.41000389  0.10643325  1
  H+  H359  1  0.36462782  0.93781857  0.76488745  1
  H+  H360  1  0.33706014  0.41894142  0.43862296  1
  H+  H361  1  0.07145924  0.39880384  0.72733943  1
  H+  H362  1  0.59227385  0.91253932  0.06776624  1
  H+  H363  1  0.28325648  0.38750831  0.34300839  1
  H+  H364  1  0.63434713  0.21200182  0.76107497  1
  H+  H365  1  0.21998880  0.60981839  0.98460545  1
  H+  H366  1  0.15559548  0.82485100  0.56576336  1
  H+  H367  1  0.17827160  0.08965962  0.28114617  1
  H+  H368  1  0.90195556  0.32503037  0.59627818  1
  H+  H369  1  0.62892870  0.17681011  0.73968467  1
  H+  H370  1  0.65544666  0.78180768  0.99815626  1
  H+  H371  1  0.22658607  0.17218693  0.62767723  1
  H+  H372  1  0.58764918  0.42389461  0.77551788  1
  H+  H373  1  0.41453303  0.16170920  0.47959045  1
  H+  H374  1  0.90383713  0.09477819  0.56712513  1
  H+  H375  1  0.40745124  0.57535509  0.23204742  1
  H+  H376  1  0.69543727  0.04874841  0.61269238  1
  H+  H377  1  0.07557476  0.17414294  0.43997698  1
  H+  H378  1  0.38276912  0.84693683  0.67175744  1
  H+  H379  1  0.40723711  0.36284165  0.17002713  1
  H+  H380  1  0.08495631  0.40610778  0.06144319  1
  H+  H381  1  0.61960342  0.06120170  0.92100297  1
  H+  H382  1  0.36463733  0.71708281  0.68347453  1
  H+  H383  1  0.92200364  0.57186696  0.93437098  1
  O2-  O384  1  0.06945984  0.14521415  0.17293072  1
  O2-  O385  1  0.07239990  0.17863763  0.48504710  1
  O2-  O386  1  0.07622967  0.16691259  0.80935939  1
  O2-  O387  1  0.06327949  0.36980202  0.13046487  1
  O2-  O388  1  0.09181318  0.41628481  0.48263647  1
  O2-  O389  1  0.07194934  0.40052902  0.79847304  1
  O2-  O390  1  0.08337700  0.66279091  0.15102990  1
  O2-  O391  1  0.07518385  0.66331908  0.47865950  1
  O2-  O392  1  0.05928691  0.67530028  0.80817927  1
  O2-  O393  1  0.09077687  0.91961185  0.15996807  1
  O2-  O394  1  0.07598457  0.91942369  0.48136718  1
  O2-  O395  1  0.15446888  0.96832230  0.80093430  1
  O2-  O396  1  0.33104960  0.15832718  0.15614036  1
  O2-  O397  1  0.42239553  0.21361827  0.45608414  1
  O2-  O398  1  0.33759147  0.17309451  0.81797201  1
  O2-  O399  1  0.39828110  0.44197358  0.12878319  1
  O2-  O400  1  0.33487648  0.42026689  0.48415377  1
  O2-  O401  1  0.32904340  0.41088132  0.81287861  1
  O2-  O402  1  0.31564673  0.65318160  0.14423277  1
  O2-  O403  1  0.31075811  0.66861270  0.49684237  1
  O2-  O404  1  0.32669552  0.67789357  0.82319500  1
  O2-  O405  1  0.33659860  0.92395988  0.14748600  1
  O2-  O406  1  0.34885507  0.92459354  0.47348937  1
  O2-  O407  1  0.40191048  0.96249918  0.80247111  1
  O2-  O408  1  0.58738214  0.17273203  0.15361368  1
  O2-  O409  1  0.56879496  0.15202523  0.45355587  1
  O2-  O410  1  0.58321914  0.18355049  0.87972720  1
  O2-  O411  1  0.59481433  0.40860994  0.15153256  1
  O2-  O412  1  0.59126910  0.42869468  0.47768146  1
  O2-  O413  1  0.58396043  0.42252086  0.82051445  1
  O2-  O414  1  0.54802214  0.60009709  0.13462648  1
  O2-  O415  1  0.60638505  0.66532727  0.46089784  1
  O2-  O416  1  0.60137761  0.67052364  0.81319040  1
  O2-  O417  1  0.61848032  0.93229393  0.13512931  1
  O2-  O418  1  0.58215611  0.90476578  0.46473338  1
  O2-  O419  1  0.59530457  0.90726117  0.81372617  1
  O2-  O420  1  0.83814104  0.17099488  0.14948133  1
  O2-  O421  1  0.80542879  0.15832272  0.48187996  1
  O2-  O422  1  0.82664593  0.15652468  0.81891391  1
  O2-  O423  1  0.83174735  0.41905533  0.16748892  1
  O2-  O424  1  0.84376703  0.42284355  0.44135337  1
  O2-  O425  1  0.83193759  0.40803684  0.80669401  1
  O2-  O426  1  0.83411789  0.68559403  0.20138844  1
  O2-  O427  1  0.84000330  0.67235507  0.47866292  1
  O2-  O428  1  0.83073885  0.65056771  0.82116882  1
  O2-  O429  1  0.81784989  0.90937980  0.15184996  1
  O2-  O430  1  0.81843159  0.90232593  0.47019584  1
  O2-  O431  1  0.85118287  0.91388406  0.81560366  1
  O2-  O432  1  0.16985891  0.07983716  0.20758974  1
  O2-  O433  1  0.12960568  0.07618526  0.52776869  1
  O2-  O434  1  0.16953080  0.10337576  0.85873795  1
  O2-  O435  1  0.09836176  0.29951176  0.21942130  1
  O2-  O436  1  0.16789153  0.33932042  0.52161284  1
  O2-  O437  1  0.16310006  0.33059754  0.85028952  1
  O2-  O438  1  0.16017745  0.56771361  0.19320933  1
  O2-  O439  1  0.14917396  0.57029049  0.53125853  1
  O2-  O440  1  0.16324127  0.61775717  0.83760177  1
  O2-  O441  1  0.16819910  0.83005871  0.19344967  1
  O2-  O442  1  0.14734137  0.81874194  0.52087986  1
  O2-  O443  1  0.08134154  0.81773715  0.86588800  1
  O2-  O444  1  0.42260850  0.08340943  0.19696872  1
  O2-  O445  1  0.42197917  0.08094182  0.51148688  1
  O2-  O446  1  0.40815977  0.09197094  0.87200068  1
  O2-  O447  1  0.42715686  0.32628731  0.19056517  1
  O2-  O448  1  0.42604705  0.34376281  0.52670563  1
  O2-  O449  1  0.42181252  0.33807858  0.85998828  1
  O2-  O450  1  0.40196473  0.57460922  0.18705474  1
  O2-  O451  1  0.39093285  0.57859128  0.53034936  1
  O2-  O452  1  0.44963892  0.57080582  0.85799749  1
  O2-  O453  1  0.39583023  0.82274088  0.18887295  1
  O2-  O454  1  0.42185708  0.84778757  0.50943459  1
  O2-  O455  1  0.43784528  0.84489838  0.86113876  1
  O2-  O456  1  0.67216797  0.08964946  0.18691616  1
  O2-  O457  1  0.64012937  0.06808758  0.50645593  1
  O2-  O458  1  0.66333795  0.08496792  0.83800968  1
  O2-  O459  1  0.67446259  0.32610848  0.20688317  1
  O2-  O460  1  0.63476746  0.30302541  0.50334397  1
  O2-  O461  1  0.67787335  0.35038314  0.86275429  1
  O2-  O462  1  0.66401045  0.57291152  0.19190311  1
  O2-  O463  1  0.67897284  0.58968517  0.51781398  1
  O2-  O464  1  0.66875777  0.58178890  0.86179441  1
  O2-  O465  1  0.66020703  0.82725624  0.20678492  1
  O2-  O466  1  0.66257685  0.82487481  0.51288333  1
  O2-  O467  1  0.68319167  0.83389947  0.85414010  1
  O2-  O468  1  0.90184093  0.07178452  0.19752069  1
  O2-  O469  1  0.90097921  0.09850315  0.52210420  1
  O2-  O470  1  0.91569184  0.07982412  0.85758972  1
  O2-  O471  1  0.92770112  0.34194089  0.19077153  1
  O2-  O472  1  0.89171080  0.32589731  0.52009768  1
  O2-  O473  1  0.90999004  0.32250293  0.85213454  1
  O2-  O474  1  0.91764156  0.59467022  0.20497674  1
  O2-  O475  1  0.90788295  0.57622334  0.50828712  1
  O2-  O476  1  0.91133985  0.56740555  0.85856672  1
  O2-  O477  1  0.91307039  0.82825767  0.14103369  1
  O2-  O478  1  0.90674129  0.83559497  0.51266649  1
  O2-  O479  1  0.91961699  0.81516662  0.87072711  1
  O2-  O480  1  0.18434798  0.09752358  0.32721055  1
  O2-  O481  1  0.18047947  0.11352353  0.63488871  1
  O2-  O482  1  0.18079474  0.16326966  0.97460285  1
  O2-  O483  1  0.18024655  0.33845052  0.32389174  1
  O2-  O484  1  0.16624116  0.33473483  0.64138662  1
  O2-  O485  1  0.16972613  0.32061451  0.97039186  1
  O2-  O486  1  0.17131979  0.57793703  0.31769207  1
  O2-  O487  1  0.15821054  0.57980614  0.70795223  1
  O2-  O488  1  0.15947012  0.58026430  0.96934690  1
  O2-  O489  1  0.18767266  0.83858062  0.32002707  1
  O2-  O490  1  0.16729031  0.83269636  0.64639264  1
  O2-  O491  1  0.14612298  0.81851867  0.97867298  1
  O2-  O492  1  0.44698488  0.08196640  0.31921682  1
  O2-  O493  1  0.41767034  0.06480086  0.63351811  1
  O2-  O494  1  0.41794554  0.10966492  0.98799379  1
  O2-  O495  1  0.42513785  0.33587629  0.31196407  1
  O2-  O496  1  0.41913568  0.32324475  0.64933082  1
  O2-  O497  1  0.41901731  0.34197573  1.01075265  1
  O2-  O498  1  0.41495647  0.57780917  0.31192696  1
  O2-  O499  1  0.41854439  0.57662539  0.65765406  1
  O2-  O500  1  0.41315348  0.58115218  0.98198502  1
  O2-  O501  1  0.42099435  0.82380212  0.31913538  1
  O2-  O502  1  0.40976714  0.81317517  0.65883179  1
  O2-  O503  1  0.41283008  0.82542962  0.98315517  1
  O2-  O504  1  0.66415614  0.08575849  0.30678296  1
  O2-  O505  1  0.67822498  0.05989699  0.65215880  1
  O2-  O506  1  0.59214578  0.04890149  0.96147977  1
  O2-  O507  1  0.67514264  0.34906557  0.33332992  1
  O2-  O508  1  0.66214372  0.30412417  0.62695904  1
  O2-  O509  1  0.68863171  0.34471881  0.98464131  1
  O2-  O510  1  0.66804992  0.57897512  0.31410941  1
  O2-  O511  1  0.66695165  0.57794479  0.64162166  1
  O2-  O512  1  0.67884861  0.58471213  0.98488363  1
  O2-  O513  1  0.67124427  0.83882269  0.27315164  1
  O2-  O514  1  0.67124056  0.82903198  0.64435155  1
  O2-  O515  1  0.67378496  0.83761822  0.97749772  1
  O2-  O516  1  0.91697237  0.09166360  0.32435523  1
  O2-  O517  1  0.91259054  0.08481718  0.64718283  1
  O2-  O518  1  0.90834368  0.08552802  0.98183541  1
  O2-  O519  1  0.97043557  0.30543443  0.29621300  1
  O2-  O520  1  0.90887115  0.32643415  0.64183720  1
  O2-  O521  1  0.92607220  0.34119717  0.97751259  1
  O2-  O522  1  0.92234399  0.58523993  0.32809563  1
  O2-  O523  1  0.90784762  0.55949622  0.63473433  1
  O2-  O524  1  0.92253571  0.57205769  0.98027645  1
  O2-  O525  1  0.86559059  0.81509983  0.29050612  1
  O2-  O526  1  0.93776373  0.87510209  0.63292292  1
  O2-  O527  1  0.91498954  0.83366789  0.99444604  1
  O2-  O528  1  0.05278667  0.12725346  0.05462680  1
  O2-  O529  1  0.08392049  0.17123760  0.36081239  1
  O2-  O530  1  0.07942835  0.16586546  0.68568142  1
  O2-  O531  1  0.08775539  0.41326438  0.01490954  1
  O2-  O532  1  0.09441679  0.41853285  0.36703261  1
  O2-  O533  1  0.07775527  0.40881272  0.68121154  1
  O2-  O534  1  0.07925556  0.65797573  0.02280881  1
  O2-  O535  1  0.09495355  0.67307885  0.35791320  1
  O2-  O536  1  0.06638689  0.66258883  0.68610573  1
  O2-  O537  1  0.09193728  0.91618902  0.03064868  1
  O2-  O538  1  0.10956609  0.93011381  0.36540561  1
  O2-  O539  1  0.11234898  0.94802961  0.67491421  1
  O2-  O540  1  0.32836674  0.16885594  0.03395847  1
  O2-  O541  1  0.34656984  0.18526251  0.35006341  1
  O2-  O542  1  0.34150490  0.15416302  0.69262058  1
  O2-  O543  1  0.32417740  0.41572689  0.01445452  1
  O2-  O544  1  0.34418328  0.41981653  0.35889365  1
  O2-  O545  1  0.33042305  0.40863257  0.68856315  1
  O2-  O546  1  0.32277540  0.66077543  0.01955212  1
  O2-  O547  1  0.34384364  0.67559080  0.37160223  1
  O2-  O548  1  0.33868976  0.65598314  0.70006178  1
  O2-  O549  1  0.31313025  0.90025043  0.01541966  1
  O2-  O550  1  0.35130993  0.91873989  0.35731150  1
  O2-  O551  1  0.33066136  0.90952679  0.69337036  1
  O2-  O552  1  0.57729017  0.18005472  0.02213156  1
  O2-  O553  1  0.53953285  0.12907281  0.33224368  1
  O2-  O554  1  0.58397402  0.11995963  0.61624336  1
  O2-  O555  1  0.60316407  0.42335468  0.02339085  1
  O2-  O556  1  0.58076914  0.41408095  0.35705792  1
  O2-  O557  1  0.61873870  0.42588045  0.69470987  1
  O2-  O558  1  0.65411212  0.69944747  0.04250985  1
  O2-  O559  1  0.59372444  0.67940122  0.33254614  1
  O2-  O560  1  0.59189179  0.66340443  0.68588864  1
  O2-  O561  1  0.57939526  0.90220650  0.02204693  1
  O2-  O562  1  0.59414142  0.91653562  0.33899859  1
  O2-  O563  1  0.58476600  0.90265740  0.68597136  1
  O2-  O564  1  0.84295735  0.17635728  0.02269297  1
  O2-  O565  1  0.81441055  0.20410001  0.35766467  1
  O2-  O566  1  0.83123337  0.16453962  0.68984625  1
  O2-  O567  1  0.85045156  0.42163134  0.01644634  1
  O2-  O568  1  0.83886712  0.42793968  0.37531035  1
  O2-  O569  1  0.81864143  0.39649143  0.68168999  1
  O2-  O570  1  0.83772862  0.65951456  0.02088780  1
  O2-  O571  1  0.83493414  0.66395031  0.35630371  1
  O2-  O572  1  0.81794803  0.62894426  0.69320491  1
  O2-  O573  1  0.83242516  0.92311200  0.02600301  1
  O2-  O574  1  0.82495012  0.92394260  0.35939949  1
  O2-  O575  1  0.84045425  0.92443081  0.68696798  1
