# generated using pymatgen
data_H2O
_symmetry_space_group_name_H-M   'P 1'
_cell_length_a   17.99477013
_cell_length_b   17.99182358
_cell_length_c   22.00506454
_cell_angle_alpha   90.00976216
_cell_angle_beta   89.99869744
_cell_angle_gamma   119.99183824
_symmetry_Int_Tables_number   1
_chemical_formula_structural   H2O
_chemical_formula_sum   'H384 O192'
_cell_volume   6170.35953254
_cell_formula_units_Z   192
loop_
 _symmetry_equiv_pos_site_id
 _symmetry_equiv_pos_as_xyz
  1  'x, y, z'
loop_
 _atom_type_symbol
 _atom_type_oxidation_number
  H+  1.0
  O2-  -2.0
loop_
 _atom_site_type_symbol
 _atom_site_label
 _atom_site_symmetry_multiplicity
 _atom_site_fract_x
 _atom_site_fract_y
 _atom_site_fract_z
 _atom_site_occupancy
  H+  H0  1  0.90080869  0.53336832  0.32971116  1
  H+  H1  1  0.35106903  0.09948182  0.68680254  1
  H+  H2  1  -0.00894626  0.61923496  -0.00861867  1
  H+  H3  1  0.37720237  0.37108914  0.50755070  1
  H+  H4  1  0.91080987  0.55971776  0.89517801  1
  H+  H5  1  0.03051454  0.88765156  0.16042018  1
  H+  H6  1  0.50374909  0.62841964  0.65620748  1
  H+  H7  1  0.86703495  0.13841332  0.34266753  1
  H+  H8  1  0.10976081  0.47685015  0.49101883  1
  H+  H9  1  0.39543888  0.03502114  0.99852580  1
  H+  H10  1  0.34816050  0.61876670  0.66565322  1
  H+  H11  1  0.12322694  0.53112324  0.98798181  1
  H+  H12  1  0.86883335  0.13962951  0.83032636  1
  H+  H13  1  0.86008676  0.47471614  -0.00325605  1
  H+  H14  1  0.71975582  0.11391231  0.99192636  1
  H+  H15  1  0.55414314  0.64667599  0.71762542  1
  H+  H16  1  0.11855535  0.28676583  0.17829243  1
  H+  H17  1  0.62337721  0.40111474  0.82190164  1
  H+  H18  1  0.64978174  0.13174235  0.32097699  1
  H+  H19  1  0.73000947  0.12125300  0.50672700  1
  H+  H20  1  0.33005606  0.92322580  0.63106284  1
  H+  H21  1  0.09073647  -0.04857002  0.99767961  1
  H+  H22  1  0.11712037  0.88599103  0.49297257  1
  H+  H23  1  0.20247102  0.83676614  0.65845489  1
  H+  H24  1  0.78517993  0.14387445  0.67305475  1
  H+  H25  1  0.96762505  0.60646394  0.66087984  1
  H+  H26  1  0.63094547  -0.01433516  0.16689988  1
  H+  H27  1  0.28529731  0.89313259  0.14774927  1
  H+  H28  1  0.01452498  0.13633087  0.34769507  1
  H+  H29  1  0.10595730  0.13629441  0.35131311  1
  H+  H30  1  0.96792657  0.84921900  0.65936326  1
  H+  H31  1  0.48389717  0.06263648  0.33113097  1
  H+  H32  1  0.36674849  0.63074643  0.49814123  1
  H+  H33  1  0.34592056  0.25173788  0.35512255  1
  H+  H34  1  0.89309124  0.28395707  0.16840500  1
  H+  H35  1  0.89254131  0.11569954  0.66008827  1
  H+  H36  1  0.98425666  0.61639793  0.17616560  1
  H+  H37  1  0.48384800  0.87016680  0.16203399  1
  H+  H38  1  0.37046478  0.63930353  0.15347204  1
  H+  H39  1  0.85822812  0.15181822  -0.00645688  1
  H+  H40  1  0.09860754  0.71111301  0.82931005  1
  H+  H41  1  0.64678046  0.62518339  -0.00399533  1
  H+  H42  1  0.32766576  0.15608173  0.89657589  1
  H+  H43  1  0.28084157  0.63605948  0.49362236  1
  H+  H44  1  0.84787182  0.60721315  0.82289745  1
  H+  H45  1  0.80982967  0.88350727  0.81415397  1
  H+  H46  1  0.43137850  0.83423878  0.56320802  1
  H+  H47  1  0.92323155  0.83821094  0.22754359  1
  H+  H48  1  0.12930524  0.96564708  0.15219341  1
  H+  H49  1  0.73563311  0.62416656  0.98871245  1
  H+  H50  1  0.78412073  0.89504537  0.00982160  1
  H+  H51  1  0.59549286  0.92331129  0.07707455  1
  H+  H52  1  0.34942682  0.47867185  0.50293286  1
  H+  H53  1  0.73492086  0.87807083  0.32818833  1
  H+  H54  1  0.20648287  0.62279278  0.98946489  1
  H+  H55  1  0.03013847  0.63873189  0.34144951  1
  H+  H56  1  0.13894414  0.26565156  0.81919347  1
  H+  H57  1  0.97627420  0.36421160  0.32548517  1
  H+  H58  1  0.47720005  0.84300322  0.83797811  1
  H+  H59  1  0.07817727  0.42830989  0.05791798  1
  H+  H60  1  0.11532525  0.24697178  0.49660363  1
  H+  H61  1  -0.01804594  0.36497621  0.83966692  1
  H+  H62  1  0.60924559  0.21858973  0.02228931  1
  H+  H63  1  0.22569781  0.85049528  0.33297830  1
  H+  H64  1  0.64139688  0.02960269  0.50928902  1
  H+  H65  1  0.86958472  0.98150453  0.16375585  1
  H+  H66  1  0.37731560  0.28447532  0.17994427  1
  H+  H67  1  0.49628024  0.41066149  0.65625288  1
  H+  H68  1  0.36258470  0.48528823  0.34179534  1
  H+  H69  1  0.12566823  0.17233742  0.04855557  1
  H+  H70  1  0.35307227  0.72951432  0.00004215  1
  H+  H71  1  0.85518205  0.71755403  0.67021869  1
  H+  H72  1  0.45619490  0.58169316  0.51726658  1
  H+  H73  1  0.85121213  0.07688323  0.20469486  1
  H+  H74  1  0.55812011  0.21703639  0.34814573  1
  H+  H75  1  -0.02384375  0.59884185  0.83674988  1
  H+  H76  1  0.41068839  0.08287399  0.31566129  1
  H+  H77  1  0.23902051  0.62297345  0.65677866  1
  H+  H78  1  0.40777565  0.57402183  0.26405044  1
  H+  H79  1  0.11333509  0.38810415  0.33897637  1
  H+  H80  1  0.02103683  0.40110740  0.15364432  1
  H+  H81  1  0.89730377  0.03143486  0.50684398  1
  H+  H82  1  0.85658566  0.75503711  0.31921191  1
  H+  H83  1  0.86277289  0.38766402  0.33659600  1
  H+  H84  1  0.09390607  0.04640144  0.19905069  1
  H+  H85  1  0.53431415  0.12282254  0.16508176  1
  H+  H86  1  0.86020557  0.39096182  0.15886509  1
  H+  H87  1  0.46116903  0.85402853  0.32906453  1
  H+  H88  1  0.85859734  0.24071953  -0.00260046  1
  H+  H89  1  0.74296903  0.12505860  0.17015537  1
  H+  H90  1  0.38271337  0.14143313  0.84864361  1
  H+  H91  1  0.40290808  0.24866730  0.02275644  1
  H+  H92  1  0.34708872  0.63983416  -0.01242260  1
  H+  H93  1  0.12967336  0.26306933  0.33463319  1
  H+  H94  1  0.61250505  0.48410329  0.83170397  1
  H+  H95  1  0.17635351  0.33221416  0.60517610  1
  H+  H96  1  0.50114662  0.13156367  0.83704147  1
  H+  H97  1  0.40217692  0.01283810  0.16064645  1
  H+  H98  1  0.49793825  0.86976379  0.65599803  1
  H+  H99  1  0.63002913  0.74698015  0.01805443  1
  H+  H100  1  1.01842456  0.14843808  0.49832984  1
  H+  H101  1  0.62471597  0.64692841  0.48471808  1
  H+  H102  1  0.22744315  0.35936954  0.66742039  1
  H+  H103  1  0.39176435  0.52713264  0.16310427  1
  H+  H104  1  0.93122172  0.32807929  0.57243239  1
  H+  H105  1  0.62720894  0.90425244  0.49981104  1
  H+  H106  1  0.10269203  0.62699581  0.67219920  1
  H+  H107  1  0.36288152  0.60312880  0.80649257  1
  H+  H108  1  0.31590170  0.76197846  0.84737026  1
  H+  H109  1  0.22719533  0.36586752  0.50496234  1
  H+  H110  1  0.54587039  0.15484689  0.67345618  1
  H+  H111  1  0.99126217  0.14400958  0.18130675  1
  H+  H112  1  0.14396571  0.86218269  0.32440824  1
  H+  H113  1  0.63973514  0.87329102  1.01278699  1
  H+  H114  1  0.88278919  0.85549123  0.65501527  1
  H+  H115  1  0.11765478  0.22032954  0.66896809  1
  H+  H116  1  0.85442829  0.88382300  0.34155091  1
  H+  H117  1  0.48931798  0.59943294  0.81789125  1
  H+  H118  1  0.14554815  0.02216829  0.51014895  1
  H+  H119  1  0.58901843  0.38092860  0.50035588  1
  H+  H120  1  0.60612765  0.88980973  0.82862046  1
  H+  H121  1  0.62139354  0.39607046  0.67779648  1
  H+  H122  1  0.89764158  0.26597053  0.50500604  1
  H+  H123  1  0.62918137  0.89515742  0.16541708  1
  H+  H124  1  0.34963320  0.85744695  0.35911835  1
  H+  H125  1  0.60840903  -0.02137059  0.32418590  1
  H+  H126  1  0.63407462  0.24312975  0.82391959  1
  H+  H127  1  0.07955838  0.41355725  0.43184093  1
  H+  H128  1  0.20566293  0.82905418  0.85104581  1
  H+  H129  1  0.63248064  0.64317255  0.83332034  1
  H+  H130  1  0.84334364  0.17235817  0.73323655  1
  H+  H131  1  0.27377310  0.39519129  0.14890301  1
  H+  H132  1  0.65120578  0.12085570  0.17201759  1
  H+  H133  1  0.21627876  0.70468473  0.83161641  1
  H+  H134  1  0.62740740  0.52225245  0.49588959  1
  H+  H135  1  0.36667920  0.68994614  0.82062076  1
  H+  H136  1  0.88887199  0.27448053  0.32648084  1
  H+  H137  1  0.35198089  0.94612179  0.35514827  1
  H+  H138  1  0.36542272  0.14800586  0.50305886  1
  H+  H139  1  0.62212869  0.73310358  0.16999546  1
  H+  H140  1  0.61633186  0.97471885  0.01330600  1
  H+  H141  1  0.21118472  0.08135286  0.67347540  1
  H+  H142  1  0.53601550  0.89902830  0.49659474  1
  H+  H143  1  0.54258259  0.65850832  0.02772348  1
  H+  H144  1  0.86836215  0.38756768  0.66172968  1
  H+  H145  1  0.10906540  0.40059294  0.14899105  1
  H+  H146  1  0.64506778  0.11946395  0.84010457  1
  H+  H147  1  0.22317196  0.10853278  0.83444116  1
  H+  H148  1  0.76427191  0.38034486  0.46079371  1
  H+  H149  1  0.86584860  0.97697783  0.66411076  1
  H+  H150  1  0.37808434  0.75994735  0.33813770  1
  H+  H151  1  0.40052397  0.84669859  0.65931891  1
  H+  H152  1  0.64209996  0.63682451  0.32915337  1
  H+  H153  1  0.65829744  0.79206631  0.50373597  1
  H+  H154  1  0.77015515  0.38788353  0.15481094  1
  H+  H155  1  0.87676048  0.89678100  0.49722075  1
  H+  H156  1  0.41335942  0.34451314  0.27424512  1
  H+  H157  1  0.87454420  0.47755334  0.81896365  1
  H+  H158  1  0.94829270  0.07260475  0.93074325  1
  H+  H159  1  0.60359141  0.18012426  0.76661960  1
  H+  H160  1  0.76536780  0.63128499  0.66556621  1
  H+  H161  1  0.72251443  0.60274254  0.84151112  1
  H+  H162  1  0.49054337  0.36829567  0.84185883  1
  H+  H163  1  0.93017969  0.59117510  0.26890565  1
  H+  H164  1  0.13666886  0.61013680  0.49832257  1
  H+  H165  1  0.46787564  0.37075380  0.17411285  1
  H+  H166  1  0.89113485  0.53185222  0.17935203  1
  H+  H167  1  0.87713649  0.36640788  0.99169601  1
  H+  H168  1  0.86661237  0.47697362  0.66369994  1
  H+  H169  1  0.90594966  0.87978159  0.16959094  1
  H+  H170  1  0.11167988  0.13464377  0.81362695  1
  H+  H171  1  0.55125007  0.66826111  0.46407236  1
  H+  H172  1  0.61696755  0.49164329  1.00293759  1
  H+  H173  1  0.39533474  0.78188865  0.15926024  1
  H+  H174  1  0.91583643  0.87379167  0.83926131  1
  H+  H175  1  0.27143956  0.39102629  -0.00258187  1
  H+  H176  1  0.65303162  0.12244260  0.66129599  1
  H+  H177  1  0.36749501  0.25824376  0.69123551  1
  H+  H178  1  0.89712739  0.27446132  0.65746467  1
  H+  H179  1  0.73741795  0.59456588  0.32522983  1
  H+  H180  1  0.34515493  0.91895952  0.88484388  1
  H+  H181  1  0.60922377  0.89119734  0.32180906  1
  H+  H182  1  0.09507017  0.91841135  0.39482403  1
  H+  H183  1  0.83165255  0.65997336  0.08305309  1
  H+  H184  1  0.23219661  0.86452058  0.51366766  1
  H+  H185  1  0.45188410  0.60544694  0.95409068  1
  H+  H186  1  0.13818001  0.29112499  0.00226195  1
  H+  H187  1  -0.00366553  0.36331875  0.50472048  1
  H+  H188  1  0.33719819  0.42427334  0.05353949  1
  H+  H189  1  0.39711819  0.77627989  0.50319400  1
  H+  H190  1  0.27536330  0.39436064  0.35102481  1
  H+  H191  1  0.05381122  0.18161606  0.12159045  1
  H+  H192  1  0.70776479  0.86725594  0.86674856  1
  H+  H193  1  0.86554708  0.87888670  0.00334076  1
  H+  H194  1  0.78926358  0.90086417  0.49915963  1
  H+  H195  1  0.86289587  0.75288290  0.98879179  1
  H+  H196  1  0.43757608  0.04536269  0.65516619  1
  H+  H197  1  0.77950871  0.14282551  0.34154966  1
  H+  H198  1  0.13614331  0.60771436  0.32995458  1
  H+  H199  1  0.91837669  0.83068229  0.56303322  1
  H+  H200  1  0.87753339  0.60635663  0.65846701  1
  H+  H201  1  0.35631795  0.14081413  0.28815893  1
  H+  H202  1  0.36984761  0.88730055  0.50448827  1
  H+  H203  1  0.91484462  0.42174300  0.48913153  1
  H+  H204  1  0.26809536  0.62452094  0.34557232  1
  H+  H205  1  0.87680826  0.64199987  0.33852613  1
  H+  H206  1  0.08802070  0.62800579  -0.00439703  1
  H+  H207  1  0.09600995  0.86678101  0.67015672  1
  H+  H208  1  0.64593366  0.70432774  0.77713091  1
  H+  H209  1  0.37946747  0.60476529  0.32374338  1
  H+  H210  1  0.77653467  0.88664959  0.66959832  1
  H+  H211  1  0.38943073  0.37832089  -0.01598019  1
  H+  H212  1  0.63466714  0.24127819  0.67742938  1
  H+  H213  1  0.87226692  0.66273559  -0.00531078  1
  H+  H214  1  0.63485747  0.52623613  0.65361655  1
  H+  H215  1  0.87620926  0.65009200  0.14219116  1
  H+  H216  1  0.23950205  0.61350326  0.17992276  1
  H+  H217  1  0.38442117  0.41922188  0.69348599  1
  H+  H218  1  0.59012700  0.15680177  0.10361872  1
  H+  H219  1  0.50746256  0.38952510  0.48883171  1
  H+  H220  1  0.09483348  0.71040814  0.67228320  1
  H+  H221  1  0.89103998  0.02637613  0.33444223  1
  H+  H222  1  0.63096346  0.26102765  0.16528604  1
  H+  H223  1  0.73928023  0.86848044  0.17097008  1
  H+  H224  1  0.63056047  0.98559588  0.67245445  1
  H+  H225  1  0.11966438  0.72655348  0.33869497  1
  H+  H226  1  0.87052537  0.14174626  0.49429541  1
  H+  H227  1  0.59934490  0.37837168  0.15013016  1
  H+  H228  1  0.10999597  0.13887615  0.18844710  1
  H+  H229  1  0.92028706  0.55096080  0.50128086  1
  H+  H230  1  0.72939533  0.11175691  0.84077056  1
  H+  H231  1  0.32689406  0.42301583  0.43945892  1
  H+  H232  1  0.11283114  0.47720913  0.33992764  1
  H+  H233  1  0.80003593  0.77775671  0.27816490  1
  H+  H234  1  0.41042606  1.04050475  0.84145528  1
  H+  H235  1  0.13153149  0.85453627  0.83943946  1
  H+  H236  1  0.37123319  0.89196269  0.13927255  1
  H+  H237  1  0.62713835  0.61049641  0.64839884  1
  H+  H238  1  0.60772055  0.13025762  0.00987549  1
  H+  H239  1  0.01869331  0.39302224  -0.00082755  1
  H+  H240  1  0.23629314  0.11977327  1.03366648  1
  H+  H241  1  0.86768865  0.22794087  0.82861111  1
  H+  H242  1  -0.01734593  0.37091698  0.65702147  1
  H+  H243  1  0.62413612  0.51512165  0.17838019  1
  H+  H244  1  -0.01613493  0.12032475  0.83659904  1
  H+  H245  1  0.63236362  0.77081477  0.65779584  1
  H+  H246  1  0.11220308  0.84191965  -0.00584352  1
  H+  H247  1  0.39202209  0.37857764  0.33409712  1
  H+  H248  1  0.77261966  0.63761033  0.48864901  1
  H+  H249  1  0.88796265  0.77675871  0.50149093  1
  H+  H250  1  0.04939791  0.04682942  0.95742193  1
  H+  H251  1  0.47796493  0.11250991  0.50771143  1
  H+  H252  1  0.38062604  0.47699304  0.74849976  1
  H+  H253  1  0.11860033  0.00311733  0.66523494  1
  H+  H254  1  0.61715207  0.13886047  0.49763110  1
  H+  H255  1  0.14134966  0.37905012  0.99190553  1
  H+  H256  1  0.91643671  0.00757353  0.98946790  1
  H+  H257  1  0.95787310  0.84975884  0.99335710  1
  H+  H258  1  0.11318909  0.72469761  0.15329195  1
  H+  H259  1  0.02920960  0.88733616  0.49099344  1
  H+  H260  1  0.26638005  0.15602107  0.16035384  1
  H+  H261  1  0.09313935  0.73347295  0.99085847  1
  H+  H262  1  0.98019736  0.11241351  0.65703939  1
  H+  H263  1  0.40126687  0.17482634  0.29706600  1
  H+  H264  1  0.73444463  0.37062302  0.66158606  1
  H+  H265  1  0.11789525  0.96736906  0.81542740  1
  H+  H266  1  0.76994237  0.34331410  0.47109428  1
  H+  H267  1  0.48581782  0.38611005  0.98784430  1
  H+  H268  1  0.64235431  0.86471712  0.66209122  1
  H+  H269  1  0.02993255  0.87897160  0.82944073  1
  H+  H270  1  0.89388765  0.36572029  0.83247121  1
  H+  H271  1  0.03478905  0.13941207  0.01736105  1
  H+  H272  1  0.48157543  0.61555195  0.17141142  1
  H+  H273  1  0.85273227  0.56679205  0.96660485  1
  H+  H274  1  0.60852352  0.97922481  0.82639908  1
  H+  H275  1  0.13679969  0.36599801  0.50766779  1
  H+  H276  1  0.37088579  0.51628893  0.97117822  1
  H+  H277  1  0.61040653  0.26105489  0.51815056  1
  H+  H278  1  0.21756833  0.13633674  0.34504672  1
  H+  H279  1  0.33697501  0.24112984  0.66481463  1
  H+  H280  1  0.72844022  0.36811139  1.00636223  1
  H+  H281  1  0.25023708  0.09149238  0.01786880  1
  H+  H282  1  0.14336807  0.85500225  0.17165051  1
  H+  H283  1  0.62980415  0.60565423  0.18787880  1
  H+  H284  1  0.10423280  0.49462619  0.67182906  1
  H+  H285  1  0.63190137  0.77378429  0.85098169  1
  H+  H286  1  0.12822132  0.47886956  0.82979346  1
  H+  H287  1  0.74900317  0.38103541  0.81986355  1
  H+  H288  1  0.17099274  0.57683536  0.27206673  1
  H+  H289  1  0.27281672  0.13989220  0.50928607  1
  H+  H290  1  0.16626810  0.58072586  0.55751866  1
  H+  H291  1  0.89842903  0.03115874  0.83698250  1
  H+  H292  1  0.42970775  0.38435563  0.60127488  1
  H+  H293  1  0.65259290  0.25847347  0.35881371  1
  H+  H294  1  0.39955839  0.27406549  0.85158909  1
  H+  H295  1  0.84219540  0.17420484  0.43431612  1
  H+  H296  1  0.07170383  0.89623779  0.73231125  1
  H+  H297  1  0.20574317  0.67704127  0.61791666  1
  H+  H298  1  0.14548162  0.53170847  0.17570433  1
  H+  H299  1  0.20087006  0.30841261  0.28518907  1
  H+  H300  1  0.84347789  0.18051889  0.08985367  1
  H+  H301  1  0.42940449  0.34684716  0.91239260  1
  H+  H302  1  0.70043083  0.37432779  0.88043453  1
  H+  H303  1  0.16266242  0.10666725  0.28161467  1
  H+  H304  1  0.14874120  0.08958452  0.97485258  1
  H+  H305  1  0.43233393  0.09590382  0.59799697  1
  H+  H306  1  0.78637282  0.40960121  0.35176123  1
  H+  H307  1  0.06583132  0.66846477  0.09456252  1
  H+  H308  1  0.67915259  0.84147971  0.56748360  1
  H+  H309  1  0.85739492  0.92857128  0.75422140  1
  H+  H310  1  0.65548880  0.83286778  0.95223545  1
  H+  H311  1  0.16184369  0.36426369  0.22470607  1
  H+  H312  1  0.92592053  0.83682456  0.90302566  1
  H+  H313  1  0.66653240  0.55495845  0.27089772  1
  H+  H314  1  0.91785298  0.33837558  0.23034234  1
  H+  H315  1  0.88321956  0.15378830  0.14525659  1
  H+  H316  1  0.68259966  0.84481835  0.23226071  1
  H+  H317  1  0.11045484  0.12639191  0.67169900  1
  H+  H318  1  0.91051782  0.33896224  0.93108118  1
  H+  H319  1  0.31732441  0.19411768  0.41744491  1
  H+  H320  1  0.65302238  0.32841147  0.21883083  1
  H+  H321  1  0.03635076  0.65223379  0.49258777  1
  H+  H322  1  0.89803807  0.45535090  0.42732096  1
  H+  H323  1  0.14030868  0.81128108  0.93127085  1
  H+  H324  1  0.14241665  0.06540255  0.87907788  1
  H+  H325  1  0.34873474  0.18493549  0.11704647  1
  H+  H326  1  0.12334419  -0.01894666  0.33925239  1
  H+  H327  1  0.67503512  0.46506046  0.33343629  1
  H+  H328  1  0.59409853  0.92508796  0.73178961  1
  H+  H329  1  0.65974014  0.33422433  0.61007769  1
  H+  H330  1  0.61133131  0.39886545  0.00684923  1
  H+  H331  1  0.58409263  0.37636391  0.40404836  1
  H+  H332  1  0.83366679  0.42045879  0.06322285  1
  H+  H333  1  0.92349570  0.59718140  0.56426058  1
  H+  H334  1  0.07738525  0.17685643  0.43296656  1
  H+  H335  1  0.15046792  0.81655750  0.59657759  1
  H+  H336  1  0.07715854  0.16241180  0.75622674  1
  H+  H337  1  0.58841966  0.17405425  0.43964518  1
  H+  H338  1  0.33231303  0.66400655  0.09599378  1
  H+  H339  1  0.86487895  0.64300754  0.49233945  1
  H+  H340  1  0.09274412  0.67316914  0.43138606  1
  H+  H341  1  0.41100529  0.54653004  0.86209537  1
  H+  H342  1  0.38060592  0.52358334  0.65697424  1
  H+  H343  1  0.67888374  0.09182456  0.60056789  1
  H+  H344  1  0.12891859  0.39335763  0.81641142  1
  H+  H345  1  0.68884970  0.35374576  0.51555511  1
  H+  H346  1  0.43179695  0.81146075  0.90159420  1
  H+  H347  1  0.65871837  0.58076430  0.55594986  1
  H+  H348  1  0.07827461  0.65448151  0.76950883  1
  H+  H349  1  0.81502578  0.63807765  0.76549518  1
  H+  H350  1  0.41551843  0.08635761  0.93785286  1
  H+  H351  1  0.14432763  0.77487710  0.50402513  1
  H+  H352  1  0.40031700  0.57281866  0.58913860  1
  H+  H353  1  0.83938445  0.66830336  0.39661763  1
  H+  H354  1  0.60139321  0.67546011  0.11151727  1
  H+  H355  1  0.33053131  0.90927686  0.44728512  1
  H+  H356  1  0.65321318  0.31194892  0.95855354  1
  H+  H357  1  0.65949275  0.07652894  0.93408630  1
  H+  H358  1  0.28158156  0.36689897  0.78034295  1
  H+  H359  1  0.84648365  0.92499617  0.10107587  1
  H+  H360  1  0.36071021  0.39124071  0.15429140  1
  H+  H361  1  0.92181384  0.09051951  0.56714611  1
  H+  H362  1  0.65731340  0.78369673  0.31859791  1
  H+  H363  1  0.57167912  0.41874467  0.09649533  1
  H+  H364  1  0.84245567  0.92302237  0.40494030  1
  H+  H365  1  0.43763402  0.04477468  0.22740012  1
  H+  H366  1  0.33646544  0.88740614  0.81893163  1
  H+  H367  1  0.58995873  0.43054855  0.73387772  1
  H+  H368  1  0.38229783  0.28468614  0.51631980  1
  H+  H369  1  0.91942424  0.08251410  0.27260285  1
  H+  H370  1  0.08304250  0.43538774  0.73017717  1
  H+  H371  1  0.63003754  0.68358031  0.38581188  1
  H+  H372  1  0.84634327  0.41865500  0.75662119  1
  H+  H373  1  0.31501277  0.63669440  0.73038260  1
  H+  H374  1  0.38876020  0.02321377  0.51258264  1
  H+  H375  1  0.31895735  0.12530427  0.74511236  1
  H+  H376  1  0.40129119  0.16032253  0.02405623  1
  H+  H377  1  0.32884873  0.93261128  0.70196886  1
  H+  H378  1  0.17685777  0.82856059  0.23014744  1
  H+  H379  1  0.33281321  0.65451773  0.40290789  1
  H+  H380  1  0.07928846  0.90526628  0.06353893  1
  H+  H381  1  0.66637144  0.58792561  0.90446501  1
  H+  H382  1  0.68269870  0.10114547  0.26393114  1
  H+  H383  1  0.16758278  0.07229743  0.57327612  1
  O2-  O384  1  0.05439583  0.18466960  0.16669133  1
  O2-  O385  1  0.07895114  0.18299615  0.48020584  1
  O2-  O386  1  0.07955885  0.16457224  0.80234569  1
  O2-  O387  1  0.07909143  0.43112365  0.13444056  1
  O2-  O388  1  0.07954930  0.41378281  0.47783168  1
  O2-  O389  1  0.09520794  0.42293261  0.81030280  1
  O2-  O390  1  0.07251585  0.66567940  0.13865217  1
  O2-  O391  1  0.09625731  0.67534113  0.47744103  1
  O2-  O392  1  0.08051895  0.65220413  0.81454139  1
  O2-  O393  1  0.08940980  0.90720582  0.13938196  1
  O2-  O394  1  0.08980616  0.91816154  0.47662913  1
  O2-  O395  1  0.08807628  0.90472442  0.80706924  1
  O2-  O396  1  0.32890856  0.18513613  0.15941729  1
  O2-  O397  1  0.33438133  0.17913488  0.49472385  1
  O2-  O398  1  0.34246489  0.16681379  0.85347228  1
  O2-  O399  1  0.33294526  0.42145108  0.13300477  1
  O2-  O400  1  0.31940619  0.41614784  0.48488090  1
  O2-  O401  1  0.26269842  0.34034149  0.82141173  1
  O2-  O402  1  0.33798609  0.66841053  0.14070109  1
  O2-  O403  1  0.34170858  0.66622587  0.48089809  1
  O2-  O404  1  0.32919039  0.63273308  0.80283388  1
  O2-  O405  1  0.34162262  0.92473704  0.12731627  1
  O2-  O406  1  0.33741265  0.91767097  0.49319837  1
  O2-  O407  1  0.33961546  0.93490229  0.84275802  1
  O2-  O408  1  0.59626424  0.16175127  0.14967015  1
  O2-  O409  1  0.58309987  0.16711719  0.48435260  1
  O2-  O410  1  0.60326862  0.18149678  0.81232945  1
  O2-  O411  1  0.56972203  0.41120067  0.14127367  1
  O2-  O412  1  0.56861486  0.41211161  0.47433888  1
  O2-  O413  1  0.58416355  0.42430645  0.81373384  1
  O2-  O414  1  0.59064018  0.67186284  0.15589186  1
  O2-  O415  1  0.61305027  0.69194235  0.46683272  1
  O2-  O416  1  0.61036326  0.68120780  0.81337603  1
  O2-  O417  1  0.59960575  0.92627847  0.15048504  1
  O2-  O418  1  0.59823541  0.93649822  0.48786140  1
  O2-  O419  1  0.57873003  0.91969040  0.80902897  1
  O2-  O420  1  0.84998573  0.18217210  0.13515860  1
  O2-  O421  1  0.84456799  0.17711464  0.48030972  1
  O2-  O422  1  0.83677691  0.16722463  0.81369308  1
  O2-  O423  1  0.83110796  0.42112960  0.14190546  1
  O2-  O424  1  0.93044047  0.47397142  0.46622751  1
  O2-  O425  1  0.84312348  0.41530283  0.80202169  1
  O2-  O426  1  0.82072431  0.63365573  0.12387412  1
  O2-  O427  1  0.83351335  0.67133617  0.47531641  1
  O2-  O428  1  0.80716196  0.62623064  0.80966084  1
  O2-  O429  1  0.84353247  0.92135039  0.14637785  1
  O2-  O430  1  0.84976576  0.93117965  0.48322284  1
  O2-  O431  1  0.86344841  0.93186733  0.80020737  1
  O2-  O432  1  0.14003829  0.10594873  0.19980682  1
  O2-  O433  1  0.17577292  0.08029182  0.52875281  1
  O2-  O434  1  0.15982599  0.07642502  0.83533522  1
  O2-  O435  1  0.16106377  0.35035919  0.18165905  1
  O2-  O436  1  0.16433019  0.33261357  0.52104328  1
  O2-  O437  1  0.17675466  0.32929751  0.82748377  1
  O2-  O438  1  0.18457242  0.57962800  0.20228298  1
  O2-  O439  1  0.16230494  0.57454496  0.51225431  1
  O2-  O440  1  0.26413179  0.76358335  0.83477347  1
  O2-  O441  1  0.17740444  0.82842126  0.18475697  1
  O2-  O442  1  0.16943834  0.83281567  0.52428305  1
  O2-  O443  1  0.14658579  0.81443421  0.86132705  1
  O2-  O444  1  0.44132111  0.06605595  0.18596797  1
  O2-  O445  1  0.41967105  0.08487388  0.52649718  1
  O2-  O446  1  0.44094006  0.10250864  0.85302447  1
  O2-  O447  1  0.40877453  0.34785513  0.19071395  1
  O2-  O448  1  0.41388169  0.34810897  0.52412172  1
  O2-  O449  1  0.43048132  0.33760272  0.86055636  1
  O2-  O450  1  0.41904237  0.58541255  0.18163690  1
  O2-  O451  1  0.39790271  0.56790484  0.52652298  1
  O2-  O452  1  0.42817711  0.55496331  0.81877454  1
  O2-  O453  1  0.42147038  0.84370189  0.16874330  1
  O2-  O454  1  0.42598359  0.83699607  0.51772422  1
  O2-  O455  1  0.42836365  0.79376487  0.85887625  1
  O2-  O456  1  0.68548196  0.09425673  0.18925313  1
  O2-  O457  1  0.67102941  0.09321493  0.52335453  1
  O2-  O458  1  0.66827130  0.08239614  0.85453226  1
  O2-  O459  1  0.65641759  0.32491028  0.17486258  1
  O2-  O460  1  0.63276024  0.32062168  0.53520826  1
  O2-  O461  1  0.68804652  0.35729060  0.83796677  1
  O2-  O462  1  0.64914840  0.56696041  0.20424103  1
  O2-  O463  1  0.66005519  0.58309315  0.51041713  1
  O2-  O464  1  0.66210934  0.58376963  0.85829216  1
  O2-  O465  1  0.67879940  0.83998455  0.18662770  1
  O2-  O466  1  0.68583251  0.85012346  0.52255270  1
  O2-  O467  1  0.64582685  0.83037967  0.86946465  1
  O2-  O468  1  0.90408169  0.07522052  0.19954960  1
  O2-  O469  1  0.92377592  0.09316859  0.52116810  1
  O2-  O470  1  0.92565749  0.08874550  0.85652379  1
  O2-  O471  1  0.91894753  0.34318200  0.18510491  1
  O2-  O472  1  0.93334628  0.32763229  0.52370510  1
  O2-  O473  1  0.92097412  0.33483441  0.85247706  1
  O2-  O474  1  0.92753340  0.58819536  0.19866865  1
  O2-  O475  1  0.93011309  0.60645397  0.51934032  1
  O2-  O476  1  0.91372226  0.56535031  0.84810000  1
  O2-  O477  1  0.94349337  0.85798492  0.18576689  1
  O2-  O478  1  0.92106233  0.83669428  0.51768984  1
  O2-  O479  1  0.94045025  0.84148788  0.85781994  1
  O2-  O480  1  0.15797494  0.09641811  0.32595542  1
  O2-  O481  1  0.15499455  0.06526191  0.65440842  1
  O2-  O482  1  0.10336802  0.04280425  0.95153840  1
  O2-  O483  1  0.16687065  0.32056548  0.31381465  1
  O2-  O484  1  0.17108882  0.32212108  0.64952707  1
  O2-  O485  1  0.17188615  0.34705783  0.98216571  1
  O2-  O486  1  0.16320474  0.57280540  0.31834367  1
  O2-  O487  1  0.18256189  0.61788424  0.63162397  1
  O2-  O488  1  0.14661360  0.59185176  0.97476975  1
  O2-  O489  1  0.16991934  0.82672805  0.31057109  1
  O2-  O490  1  0.14333012  0.80997409  0.64250569  1
  O2-  O491  1  0.13588160  0.80503515  0.97757711  1
  O2-  O492  1  0.42620279  0.03792857  0.31453607  1
  O2-  O493  1  0.43995937  0.09899656  0.64437445  1
  O2-  O494  1  0.38246054  0.07384615  0.97587458  1
  O2-  O495  1  0.41525118  0.34213745  0.31920211  1
  O2-  O496  1  0.44512971  0.41242160  0.64183651  1
  O2-  O497  1  0.42538751  0.35206403  0.96979450  1
  O2-  O498  1  0.40594945  0.57083220  0.30900800  1
  O2-  O499  1  0.40782317  0.58107820  0.63846629  1
  O2-  O500  1  0.39074887  0.57005884  0.94607993  1
  O2-  O501  1  0.39738295  0.82095521  0.32868889  1
  O2-  O502  1  0.44034665  0.83464994  0.63719678  1
  O2-  O503  1  0.40463920  0.84919510  0.97406023  1
  O2-  O504  1  0.67963047  0.10074970  0.30984159  1
  O2-  O505  1  0.68235785  0.09134736  0.64617508  1
  O2-  O506  1  0.65888923  0.07801611  0.97938545  1
  O2-  O507  1  0.68143588  0.41351632  0.34808338  1
  O2-  O508  1  0.67056980  0.33971336  0.65487628  1
  O2-  O509  1  0.66283788  0.33724955  0.99881725  1
  O2-  O510  1  0.67678858  0.55028080  0.31630754  1
  O2-  O511  1  0.66177773  0.58463447  0.63438582  1
  O2-  O512  1  0.67095239  0.59130368  0.97756068  1
  O2-  O513  1  0.67864427  0.84498844  0.30714766  1
  O2-  O514  1  0.67046267  0.83210801  0.64667443  1
  O2-  O515  1  0.66953340  0.83940888  0.99590813  1
  O2-  O516  1  0.92048501  0.08727833  0.31917717  1
  O2-  O517  1  0.91892708  0.08324327  0.64203139  1
  O2-  O518  1  0.96721627  0.06054713  0.97055304  1
  O2-  O519  1  0.91584661  0.33432419  0.31016515  1
  O2-  O520  1  0.92432793  0.33232099  0.63690851  1
  O2-  O521  1  0.90829121  0.33578263  0.97640869  1
  O2-  O522  1  0.93054850  0.59385236  0.31559897  1
  O2-  O523  1  0.90894881  0.57755632  0.64195023  1
  O2-  O524  1  0.89982454  0.55475143  0.96450892  1
  O2-  O525  1  0.85659562  0.80456522  0.29715338  1
  O2-  O526  1  0.90862698  0.82068902  0.64114887  1
  O2-  O527  1  0.90166535  0.82931485  0.97388700  1
  O2-  O528  1  0.07949438  0.18536341  0.04422480  1
  O2-  O529  1  0.07496445  0.16865882  0.36552412  1
  O2-  O530  1  0.08040377  0.15886199  0.68285092  1
  O2-  O531  1  0.07967412  0.42600473  0.01232049  1
  O2-  O532  1  0.08119272  0.41462799  0.35519843  1
  O2-  O533  1  0.07120858  0.43558543  0.68617345  1
  O2-  O534  1  0.05257626  0.65631594  0.00803229  1
  O2-  O535  1  0.09108443  0.66707056  0.35674956  1
  O2-  O536  1  0.06743456  0.65068238  0.68926867  1
  O2-  O537  1  0.07172485  0.89611566  0.01841624  1
  O2-  O538  1  0.09954599  0.91988047  0.34981155  1
  O2-  O539  1  0.06689213  0.89728959  0.68668067  1
  O2-  O540  1  0.40667313  0.20791314  0.05016210  1
  O2-  O541  1  0.29846465  0.20060421  0.37642973  1
  O2-  O542  1  0.29965583  0.08430948  0.71173171  1
  O2-  O543  1  0.33554676  0.42227804  0.00800790  1
  O2-  O544  1  0.33517803  0.42730528  0.36484529  1
  O2-  O545  1  0.34511600  0.43253145  0.71853320  1
  O2-  O546  1  0.32273307  0.66854505  0.01196215  1
  O2-  O547  1  0.32984300  0.65322238  0.35752801  1
  O2-  O548  1  0.31141022  0.63992057  0.68474519  1
  O2-  O549  1  0.36172272  0.88698450  -0.03655075  1
  O2-  O550  1  0.31830371  0.88967298  0.37516175  1
  O2-  O551  1  0.31752672  0.89161065  0.66929059  1
  O2-  O552  1  0.57873777  0.15704376  0.03193043  1
  O2-  O553  1  0.60166362  0.20120884  0.35806741  1
  O2-  O554  1  0.60486999  0.17882908  0.69007394  1
  O2-  O555  1  0.57943362  0.42969613  0.01564457  1
  O2-  O556  1  0.59485748  0.34920610  0.36753158  1
  O2-  O557  1  0.59359744  0.43034660  0.68878435  1
  O2-  O558  1  0.60429469  0.68342226  0.03086794  1
  O2-  O559  1  0.63389571  0.68497174  0.34116824  1
  O2-  O560  1  0.56529785  0.65789095  0.67425136  1
  O2-  O561  1  0.59480655  0.91714320  0.03151654  1
  O2-  O562  1  0.57205561  0.91626085  0.32878745  1
  O2-  O563  1  0.60013062  0.92463500  0.68657848  1
  O2-  O564  1  0.82882734  0.17841424  0.01314169  1
  O2-  O565  1  0.83942969  0.17141671  0.35839166  1
  O2-  O566  1  0.84625083  0.17444113  0.68778796  1
  O2-  O567  1  0.82668531  0.41264049  0.01806431  1
  O2-  O568  1  0.84737942  0.42755371  0.35732013  1
  O2-  O569  1  0.83828419  0.41605442  0.67956849  1
  O2-  O570  1  0.83054297  0.68016404  0.00459692  1
  O2-  O571  1  0.83968828  0.66658263  0.35128299  1
  O2-  O572  1  0.82389753  0.65612321  0.68361651  1
  O2-  O573  1  0.84541930  0.92008511  0.02142449  1
  O2-  O574  1  0.83889179  0.92516253  0.35967860  1
  O2-  O575  1  0.83866795  0.91747541  0.68135898  1
