# generated using pymatgen
data_H2O
_symmetry_space_group_name_H-M   'P 1'
_cell_length_a   17.99320752
_cell_length_b   17.99515603
_cell_length_c   21.98867882
_cell_angle_alpha   90.01599749
_cell_angle_beta   89.99185132
_cell_angle_gamma   120.01508173
_symmetry_Int_Tables_number   1
_chemical_formula_structural   H2O
_chemical_formula_sum   'H384 O192'
_cell_volume   6164.92694744
_cell_formula_units_Z   192
loop_
 _symmetry_equiv_pos_site_id
 _symmetry_equiv_pos_as_xyz
  1  'x, y, z'
loop_
 _atom_type_symbol
 _atom_type_oxidation_number
  H+  1.0
  O2-  -2.0
loop_
 _atom_site_type_symbol
 _atom_site_label
 _atom_site_symmetry_multiplicity
 _atom_site_fract_x
 _atom_site_fract_y
 _atom_site_fract_z
 _atom_site_occupancy
  H+  H0  1  0.13446013  0.10928315  0.18109143  1
  H+  H1  1  0.23014990  0.61736409  0.32864293  1
  H+  H2  1  0.65142495  0.79013196  0.32837164  1
  H+  H3  1  0.85522725  0.63978046  0.00669072  1
  H+  H4  1  0.02535447  0.63784893  0.66801185  1
  H+  H5  1  0.89170202  0.52362310  0.65510942  1
  H+  H6  1  0.76991475  0.39053910  0.15567949  1
  H+  H7  1  0.49209474  0.14480341  0.50478148  1
  H+  H8  1  0.86607768  0.38764587  0.67091899  1
  H+  H9  1  0.87122333  0.48738833  0.82753815  1
  H+  H10  1  0.77070437  0.14296641  0.00323721  1
  H+  H11  1  0.14381064  0.54071247  0.65840984  1
  H+  H12  1  0.52166409  0.38378411  0.33793458  1
  H+  H13  1  0.11305878  0.38617428  0.34208929  1
  H+  H14  1  0.85954350  0.63680324  0.33506044  1
  H+  H15  1  0.08194519  0.66783464  0.42898592  1
  H+  H16  1  0.13627593  0.29636667  0.48806574  1
  H+  H17  1  0.85424199  0.23819114  0.15394222  1
  H+  H18  1  0.70788598  0.59527319  0.16382996  1
  H+  H19  1  0.27654011  0.13431750  0.49541120  1
  H+  H20  1  0.14608069  0.77093388  0.50338291  1
  H+  H21  1  0.61673813  0.98838498  0.34118075  1
  H+  H22  1  0.28052672  0.64332893  0.66445604  1
  H+  H23  1  0.28834628  0.51486660  0.26444359  1
  H+  H24  1  0.22441541  0.86069456  0.32641114  1
  H+  H25  1  0.64668536  0.59610579  1.05899697  1
  H+  H26  1  0.11359183  0.72908887  0.33622581  1
  H+  H27  1  0.88947004  0.86363224  0.66390519  1
  H+  H28  1  0.87459153  0.86223391  0.32306280  1
  H+  H29  1  0.36430345  0.72671761  0.33220788  1
  H+  H30  1  0.50777812  0.61435290  0.31152041  1
  H+  H31  1  -0.03526878  0.88415212  0.84024482  1
  H+  H32  1  0.88614002  0.12418788  -0.00287799  1
  H+  H33  1  0.38630290  0.86505607  0.32671418  1
  H+  H34  1  0.89178854  0.01720292  0.17415446  1
  H+  H35  1  0.23830997  0.59206898  0.82417975  1
  H+  H36  1  0.49774689  0.99893782  0.89552231  1
  H+  H37  1  0.09606953  0.66626364  0.10623316  1
  H+  H38  1  0.61166862  0.37235431  0.67546559  1
  H+  H39  1  0.16762644  0.59310498  0.59567595  1
  H+  H40  1  0.26639528  0.37384291  0.33721679  1
  H+  H41  1  0.37702635  -0.00670032  1.00689641  1
  H+  H42  1  0.64218538  0.50649972  0.66426532  1
  H+  H43  1  0.62992392  0.71440239  0.67461756  1
  H+  H44  1  0.53997490  0.14684358  0.83272944  1
  H+  H45  1  0.64046217  0.36224691  -0.01382043  1
  H+  H46  1  0.10941875  -0.02837173  0.49308039  1
  H+  H47  1  0.87215140  0.77257425  0.31850437  1
  H+  H48  1  0.10478515  0.92775679  0.05900312  1
  H+  H49  1  0.89581652  0.11772443  0.32846173  1
  H+  H50  1  0.03575672  0.80380618  0.81045317  1
  H+  H51  1  0.46997703  0.35379349  0.17150737  1
  H+  H52  1  0.47738562  0.84510174  0.83738085  1
  H+  H53  1  0.81958685  0.91364067  0.78041574  1
  H+  H54  1  0.73039677  0.62779703  0.01954560  1
  H+  H55  1  0.23079207  0.11313408  0.33240493  1
  H+  H56  1  0.63911553  0.12742632  -0.00508271  1
  H+  H57  1  0.13128602  0.22352145  0.63120458  1
  H+  H58  1  0.87548891  0.23325378  0.33334478  1
  H+  H59  1  0.32663363  0.16610939  0.75921655  1
  H+  H60  1  0.08391241  0.91792800  0.41821722  1
  H+  H61  1  0.59143450  0.60957044  0.53757580  1
  H+  H62  1  0.03242984  0.31411000  0.78448820  1
  H+  H63  1  0.11839806  0.13438209  0.35002469  1
  H+  H64  1  0.87197934  0.42380740  0.49571575  1
  H+  H65  1  1.02316960  0.64415099  0.48935363  1
  H+  H66  1  0.38446228  0.51823934  0.97668571  1
  H+  H67  1  0.62058919  0.90267417  0.68626985  1
  H+  H68  1  0.74934299  0.61198299  0.83527546  1
  H+  H69  1  0.27594672  0.63589429  0.17044327  1
  H+  H70  1  0.87246157  0.10532638  0.66246881  1
  H+  H71  1  0.60431857  0.73250678  0.83420288  1
  H+  H72  1  0.26427704  0.22772207  0.71527137  1
  H+  H73  1  0.39603000  0.87201298  0.98365889  1
  H+  H74  1  0.89895787  0.62630187  0.17220626  1
  H+  H75  1  0.72818588  0.35659116  0.65999175  1
  H+  H76  1  0.70281593  0.11037772  0.52274237  1
  H+  H77  1  0.34317253  0.75863479  1.02527959  1
  H+  H78  1  0.17032213  0.30089113  0.58234062  1
  H+  H79  1  0.60076265  0.21737314  0.16098146  1
  H+  H80  1  0.73347683  0.86897678  0.86040857  1
  H+  H81  1  0.12037302  0.19299007  0.53406532  1
  H+  H82  1  0.73240366  0.12112963  0.84061675  1
  H+  H83  1  0.88090621  0.02955388  0.84479817  1
  H+  H84  1  0.39827421  0.11476335  0.83743382  1
  H+  H85  1  0.34851439  0.87999271  0.67760700  1
  H+  H86  1  1.01001429  0.38342924  0.49124288  1
  H+  H87  1  0.88153159  0.27534291  0.99167705  1
  H+  H88  1  0.03691902  0.81549360  0.84344042  1
  H+  H89  1  0.33222439  0.57226592  0.80903789  1
  H+  H90  1  0.13781540  0.09963892  0.50665632  1
  H+  H91  1  0.81872232  0.67033834  0.19551774  1
  H+  H92  1  0.48531502  0.87448672  0.69089762  1
  H+  H93  1  0.35060989  0.63234834  0.32071773  1
  H+  H94  1  0.85521133  0.88873051  0.83923442  1
  H+  H95  1  0.49354851  0.64764682  0.48642558  1
  H+  H96  1  0.89982161  0.65685804  0.67910148  1
  H+  H97  1  0.09977995  1.00575784  0.81604544  1
  H+  H98  1  0.89234929  0.36339679  0.32495292  1
  H+  H99  1  0.86653440  0.98303818  0.34389807  1
  H+  H100  1  1.02594076  0.63253508  0.16110867  1
  H+  H101  1  0.02318431  0.12629064  0.16730131  1
  H+  H102  1  0.61909231  0.90166805  -0.02624683  1
  H+  H103  1  0.46590880  0.61143406  -0.03090118  1
  H+  H104  1  0.39140112  0.61637976  0.15991103  1
  H+  H105  1  0.36415076  0.87489182  0.46913638  1
  H+  H106  1  0.53777907  0.63097719  0.67817529  1
  H+  H107  1  0.63033203  0.23391317  0.82826785  1
  H+  H108  1  0.22478125  0.11309308  0.18009114  1
  H+  H109  1  0.86164711  0.73467855  0.48812751  1
  H+  H110  1  0.86168591  0.22823998  0.67011010  1
  H+  H111  1  0.98113530  0.61030989  0.85672985  1
  H+  H112  1  0.30447614  0.61129594  0.75237607  1
  H+  H113  1  0.90758501  0.11501395  0.50682484  1
  H+  H114  1  0.12974098  0.86221532  0.66593151  1
  H+  H115  1  0.35668639  0.62614574  0.51051304  1
  H+  H116  1  0.72202798  0.37240227  0.50877060  1
  H+  H117  1  0.35807176  0.33790805  0.82804020  1
  H+  H118  1  0.76901568  0.88640749  0.15198511  1
  H+  H119  1  0.14425958  0.14597993  0.84300113  1
  H+  H120  1  0.84923420  -0.03077853  0.68124534  1
  H+  H121  1  0.52259522  0.38521939  0.99719469  1
  H+  H122  1  0.48206470  0.95320261  0.88720753  1
  H+  H123  1  0.11640341  0.97169122  0.66778048  1
  H+  H124  1  0.15680746  0.62387778  0.83633375  1
  H+  H125  1  1.01255326  0.88623469  0.48802445  1
  H+  H126  1  0.36898604  0.72600834  0.68441507  1
  H+  H127  1  0.12543115  0.52426721  0.50567159  1
  H+  H128  1  0.88548118  0.86982991  0.16419080  1
  H+  H129  1  0.62960734  0.89995926  0.84308397  1
  H+  H130  1  0.60957203  0.47344370  0.33657991  1
  H+  H131  1  0.60925274  0.97815826  0.17266913  1
  H+  H132  1  0.40542760  0.52596584  0.67543654  1
  H+  H133  1  0.52080718  0.88234524  0.49063395  1
  H+  H134  1  0.08088866  0.42112820  0.72971895  1
  H+  H135  1  0.27823214  0.12624426  0.82035748  1
  H+  H136  1  0.62062963  0.78096485  0.50142100  1
  H+  H137  1  0.62694335  0.11092282  0.17973713  1
  H+  H138  1  0.60796680  0.64072712  0.14709257  1
  H+  H139  1  0.49364175  0.13338755  0.00187689  1
  H+  H140  1  0.63637112  0.87398898  0.50653398  1
  H+  H141  1  0.45132328  0.13706908  0.68176681  1
  H+  H142  1  0.22606526  0.84691360  0.17037570  1
  H+  H143  1  0.64373681  0.61467946  0.32307165  1
  H+  H144  1  0.29756401  0.80791681  0.10048798  1
  H+  H145  1  0.12675990  0.50178684  0.98295171  1
  H+  H146  1  0.13218451  0.61626456  0.50310454  1
  H+  H147  1  0.19441749  0.69607656  0.04096337  1
  H+  H148  1  0.76829745  0.14331030  0.67386004  1
  H+  H149  1  -0.01430760  0.37156693  0.32269990  1
  H+  H150  1  0.63860192  0.27746864  0.50524098  1
  H+  H151  1  0.61107161  0.89075225  0.16503782  1
  H+  H152  1  0.22849672  0.86123203  0.67180241  1
  H+  H153  1  0.12309325  0.26392767  0.18356273  1
  H+  H154  1  0.87726028  0.72973137  0.83562963  1
  H+  H155  1  0.02821340  0.12622190  0.50676251  1
  H+  H156  1  0.13977952  0.61067191  0.17845749  1
  H+  H157  1  0.48092348  0.86350833  0.17846443  1
  H+  H158  1  1.00503331  0.11978846  0.67693421  1
  H+  H159  1  0.98061384  0.36524052  0.65561476  1
  H+  H160  1  0.11923438  0.64570693  0.66674820  1
  H+  H161  1  0.88240094  0.86668207  0.50653258  1
  H+  H162  1  0.36370660  0.25319532  0.83515748  1
  H+  H163  1  0.17440274  0.10140771  0.93752122  1
  H+  H164  1  0.36598265  0.13555944  0.34360687  1
  H+  H165  1  0.21207336  0.11527175  0.66079038  1
  H+  H166  1  0.61011030  0.47405516  0.00832431  1
  H+  H167  1  0.29038742  0.88558191  0.83109761  1
  H+  H168  1  0.46739963  0.60997806  0.82667051  1
  H+  H169  1  0.36993380  0.14540373  1.00979997  1
  H+  H170  1  0.70142308  0.72311630  0.39375260  1
  H+  H171  1  0.36523797  0.38645108  -0.00199854  1
  H+  H172  1  0.13175235  0.26954663  0.33638721  1
  H+  H173  1  0.26870350  0.63051609  0.50488860  1
  H+  H174  1  0.14357148  0.02910736  0.99079571  1
  H+  H175  1  0.38806985  0.27141069  0.32815045  1
  H+  H176  1  0.63749940  0.27441724  0.32831214  1
  H+  H177  1  0.77349225  0.89910676  0.33792864  1
  H+  H178  1  0.64049489  0.27240847  -0.01141909  1
  H+  H179  1  0.08007134  0.41016835  0.06563547  1
  H+  H180  1  0.88451158  0.12058112  0.84009207  1
  H+  H181  1  0.86535650  -0.00854570  1.00033628  1
  H+  H182  1  0.24017187  0.19925678  0.86507982  1
  H+  H183  1  0.36685449  0.72586889  0.17096540  1
  H+  H184  1  0.00222896  0.36879829  0.82073758  1
  H+  H185  1  0.88818089  0.52616751  0.32093876  1
  H+  H186  1  0.86317265  0.23705190  0.82618286  1
  H+  H187  1  0.86375316  0.31292789  0.51284383  1
  H+  H188  1  0.47294213  0.36344906  0.51610094  1
  H+  H189  1  0.37254541  0.15043987  0.49880876  1
  H+  H190  1  0.62706294  0.98852426  0.83721361  1
  H+  H191  1  0.40294951  0.37437393  0.67079161  1
  H+  H192  1  0.38518427  0.27491729  0.51691072  1
  H+  H193  1  0.89561971  0.63797214  0.50322443  1
  H+  H194  1  0.76759895  0.88623678  0.49351106  1
  H+  H195  1  0.63778970  0.87213980  0.32306472  1
  H+  H196  1  0.12679905  0.72110105  0.82779457  1
  H+  H197  1  0.34721149  0.46228994  0.32291193  1
  H+  H198  1  0.64257941  0.12134883  0.83995440  1
  H+  H199  1  0.34680089  0.25027846  0.67670511  1
  H+  H200  1  0.41156009  0.81108535  0.89084134  1
  H+  H201  1  0.63942704  0.13008067  0.33600886  1
  H+  H202  1  0.63223041  0.02934392  0.67302121  1
  H+  H203  1  0.89244944  0.78813242  0.99946328  1
  H+  H204  1  0.47937179  0.86275065  -0.01440370  1
  H+  H205  1  0.52180050  0.64316425  0.14483460  1
  H+  H206  1  0.72783967  0.12698325  0.33448688  1
  H+  H207  1  0.61308619  0.65655512  -0.00715915  1
  H+  H208  1  0.88574839  0.54612084  0.50216916  1
  H+  H209  1  0.47892104  0.87032457  0.32951670  1
  H+  H210  1  0.78082725  0.90124427  -0.01199016  1
  H+  H211  1  0.32787482  0.90990200  0.39118932  1
  H+  H212  1  0.38080785  0.75362208  0.50472013  1
  H+  H213  1  0.85478722  0.48190642  1.00155885  1
  H+  H214  1  0.80515824  0.54023028  0.95437511  1
  H+  H215  1  0.60375797  0.38227835  0.49434147  1
  H+  H216  1  0.88911663  1.01784668  0.51005565  1
  H+  H217  1  0.13717084  0.36102121  0.84608172  1
  H+  H218  1  0.23928502  0.87599327  0.99018774  1
  H+  H219  1  0.40248167  0.32352722  0.92877401  1
  H+  H220  1  0.12793106  0.41171429  0.67254242  1
  H+  H221  1  0.65902764  0.51464156  0.51119257  1
  H+  H222  1  0.88693457  0.37590864  0.83861238  1
  H+  H223  1  0.41861200  0.33434037  0.60671187  1
  H+  H224  1  0.38752518  0.47920202  0.79242429  1
  H+  H225  1  0.35472050  -0.03063810  0.33093805  1
  H+  H226  1  0.34033653  0.91832396  0.05816065  1
  H+  H227  1  0.78235472  0.39703842  0.82317263  1
  H+  H228  1  0.03593811  0.89626311  0.00390627  1
  H+  H229  1  0.13799816  0.61343063  0.32913544  1
  H+  H230  1  0.57863442  0.78450228  0.64475129  1
  H+  H231  1  0.52336242  0.37437696  0.67725504  1
  H+  H232  1  0.35583305  0.22714523  0.16221197  1
  H+  H233  1  0.59969144  0.46067666  0.15434372  1
  H+  H234  1  0.37476955  0.11317587  0.17791843  1
  H+  H235  1  0.38838100  0.27443282  0.99164849  1
  H+  H236  1  0.27772653  0.14116832  0.00751816  1
  H+  H237  1  0.11164696  0.13601977  0.01057032  1
  H+  H238  1  0.12181142  0.88886806  0.34600771  1
  H+  H239  1  0.40333059  1.03045585  0.84435747  1
  H+  H240  1  0.76549597  0.87764581  0.68322322  1
  H+  H241  1  0.62503009  0.46792552  0.82745525  1
  H+  H242  1  0.16729641  0.57987818  0.23844593  1
  H+  H243  1  0.13517223  0.59477808  0.98517272  1
  H+  H244  1  0.85932197  0.18027460  0.39534191  1
  H+  H245  1  1.02342286  0.13909417  1.01051860  1
  H+  H246  1  0.01851539  0.14210318  0.82858877  1
  H+  H247  1  0.89424691  0.87809586  -0.00446244  1
  H+  H248  1  0.13751194  0.72991691  0.01214379  1
  H+  H249  1  0.60940150  0.14348667  0.49134513  1
  H+  H250  1  0.37248559  0.39672104  0.15366448  1
  H+  H251  1  0.63077481  0.35343668  0.16920681  1
  H+  H252  1  0.53492442  0.64239177  0.28593766  1
  H+  H253  1  0.53734174  0.18274037  0.35950095  1
  H+  H254  1  0.88762543  0.36803857  -0.00694756  1
  H+  H255  1  0.88581267  0.76024809  0.16579139  1
  H+  H256  1  0.63987573  0.78467664  0.95830707  1
  H+  H257  1  0.64819581  0.36635241  0.83484830  1
  H+  H258  1  0.27075958  0.40807767  0.48238775  1
  H+  H259  1  0.88740553  0.37762095  0.16909478  1
  H+  H260  1  0.10768879  0.23340492  0.82880726  1
  H+  H261  1  0.02487957  0.88461885  0.66797925  1
  H+  H262  1  0.13484239  0.89526743  0.15195727  1
  H+  H263  1  0.15603937  0.85355454  0.84291149  1
  H+  H264  1  0.81598585  0.13846829  0.48035313  1
  H+  H265  1  0.61358463  -0.01584697  0.99209025  1
  H+  H266  1  0.78336805  0.63475338  0.49383314  1
  H+  H267  1  0.28015832  0.87999081  0.48300919  1
  H+  H268  1  0.11502228  0.47545999  0.16079393  1
  H+  H269  1  0.02177642  0.39210196  0.15780687  1
  H+  H270  1  0.13077703  -0.01815345  0.15507592  1
  H+  H271  1  1.02522327  0.63953966  0.33426643  1
  H+  H272  1  0.75411445  0.36404799  0.34151239  1
  H+  H273  1  1.01854663  0.37663386  1.00650857  1
  H+  H274  1  0.46100775  0.10822861  0.17635971  1
  H+  H275  1  0.50305786  0.71653303  0.43768079  1
  H+  H276  1  0.76658569  0.14846122  0.15774047  1
  H+  H277  1  0.38529093  0.52185590  0.50431833  1
  H+  H278  1  0.38491069  0.35897236  0.32547814  1
  H+  H279  1  0.90560441  0.78280964  0.66459811  1
  H+  H280  1  0.89757361  0.24060671  0.49757761  1
  H+  H281  1  0.13601396  0.35735446  0.99765708  1
  H+  H282  1  0.12805736  0.37944795  0.49755258  1
  H+  H283  1  0.13400986  0.76823742  0.17798038  1
  H+  H284  1  0.64042722  0.36723144  0.32327476  1
  H+  H285  1  0.27570023  0.38546333  0.00215483  1
  H+  H286  1  0.11747416  0.47882645  0.33977205  1
  H+  H287  1  0.62684747  0.65540025  0.53966286  1
  H+  H288  1  0.63490514  0.77494876  0.16513746  1
  H+  H289  1  0.57339868  0.40164575  0.09492599  1
  H+  H290  1  0.68251880  0.33905394  0.89365194  1
  H+  H291  1  0.06610481  0.94241712  0.75994970  1
  H+  H292  1  0.60317479  0.97592386  0.49792644  1
  H+  H293  1  0.39711434  0.52782491  0.15530833  1
  H+  H294  1  0.16379957  0.83416898  0.26820888  1
  H+  H295  1  0.07128303  0.42076046  0.43128957  1
  H+  H296  1  0.40415938  0.56148513  0.88201076  1
  H+  H297  1  0.65006682  0.59755907  0.66299971  1
  H+  H298  1  0.65211507  0.21452576  0.05327388  1
  H+  H299  1  0.12478312  0.98230317  0.34646390  1
  H+  H300  1  0.66859657  0.33154458  0.59976911  1
  H+  H301  1  0.91884241  0.34535045  0.22701778  1
  H+  H302  1  0.83505926  0.17650568  0.76638695  1
  H+  H303  1  0.12162743  0.35230566  0.18155831  1
  H+  H304  1  0.58838151  0.67534245  0.77430392  1
  H+  H305  1  0.35694574  0.86011588  0.15333666  1
  H+  H306  1  0.88259113  0.64182781  0.83601611  1
  H+  H307  1  0.60211470  0.22578527  0.66389805  1
  H+  H308  1  0.82517009  0.42064878  0.43425487  1
  H+  H309  1  0.91398778  0.34161529  0.89916856  1
  H+  H310  1  0.98242945  0.11343132  0.33622022  1
  H+  H311  1  0.83061394  0.42446652  0.09598207  1
  H+  H312  1  0.62333636  0.11356229  0.66477261  1
  H+  H313  1  0.82777492  0.17554217  0.06420131  1
  H+  H314  1  0.31202311  0.69855879  0.08635657  1
  H+  H315  1  0.90377030  0.57976380  0.91117572  1
  H+  H316  1  0.39220654  0.83507301  0.54422179  1
  H+  H317  1  0.33808101  0.16800869  0.40340053  1
  H+  H318  1  0.12844552  0.76509290  0.66555539  1
  H+  H319  1  0.44304455  0.84412919  0.62779060  1
  H+  H320  1  0.16281366  0.32768064  0.90525044  1
  H+  H321  1  0.69676339  0.56569257  0.57439443  1
  H+  H322  1  0.09168396  0.16418318  0.41075064  1
  H+  H323  1  0.08457470  0.16274734  0.10858874  1
  H+  H324  1  0.39990092  0.61148417  0.66474942  1
  H+  H325  1  0.14655725  0.86914776  0.98865026  1
  H+  H326  1  0.32227417  0.90994018  0.73738119  1
  H+  H327  1  0.87827662  0.68930122  0.74151495  1
  H+  H328  1  0.41343692  0.33120684  0.23238208  1
  H+  H329  1  0.41809161  0.83308116  0.23712638  1
  H+  H330  1  0.16780248  0.08169598  0.27409443  1
  H+  H331  1  0.15238743  0.32349119  0.27349922  1
  H+  H332  1  0.08915258  0.66398621  0.76797497  1
  H+  H333  1  0.66515317  0.32952739  0.22925851  1
  H+  H334  1  0.66949629  0.09644916  0.93421986  1
  H+  H335  1  0.92108028  0.58901217  0.59751872  1
  H+  H336  1  0.91607409  0.58368311  0.26091408  1
  H+  H337  1  0.13832764  0.26973755  0.99911333  1
  H+  H338  1  0.65047976  0.83003179  0.59520725  1
  H+  H339  1  0.59954561  0.92963777  0.75190074  1
  H+  H340  1  0.17867676  0.83008855  0.56197863  1
  H+  H341  1  0.40771986  0.07991981  0.26249775  1
  H+  H342  1  0.57928467  0.69318070  0.04222241  1
  H+  H343  1  0.42436032  0.57429432  0.56938630  1
  H+  H344  1  0.16397705  0.06858868  0.56604176  1
  H+  H345  1  0.88356462  0.52912393  0.16818158  1
  H+  H346  1  0.38333231  0.56228947  0.24046104  1
  H+  H347  1  0.72588812  0.60691460  0.31871427  1
  H+  H348  1  0.32815739  0.16776418  0.10292036  1
  H+  H349  1  0.47178904  0.09169041  0.31724399  1
  H+  H350  1  0.92383372  0.07168210  0.23589206  1
  H+  H351  1  0.66667118  0.83240995  0.22650995  1
  H+  H352  1  0.91576101  0.83774848  0.56512360  1
  H+  H353  1  0.37563879  0.88217283  0.82177484  1
  H+  H354  1  0.78310728  0.31151310  0.38191162  1
  H+  H355  1  0.82745197  0.91754830  0.43357721  1
  H+  H356  1  0.67451136  0.60143493  0.87899148  1
  H+  H357  1  0.57709766  0.41433862  0.43501058  1
  H+  H358  1  0.45269800  0.12900263  0.57045014  1
  H+  H359  1  0.91274418  0.84444273  0.22764376  1
  H+  H360  1  0.11605744  0.09217869  0.65882705  1
  H+  H361  1  0.58824252  0.92547752  0.39839429  1
  H+  H362  1  0.33434281  0.43239008  0.42570109  1
  H+  H363  1  0.59935390  0.18692683  0.42682337  1
  H+  H364  1  0.92048126  0.32483636  0.59684214  1
  H+  H365  1  0.56702372  0.15510103  0.10366740  1
  H+  H366  1  0.65592434  0.57567645  0.22610219  1
  H+  H367  1  0.77551412  0.38715648  0.00354627  1
  H+  H368  1  0.58680894  0.40474696  0.77159995  1
  H+  H369  1  0.91780404  0.84553308  0.90472559  1
  H+  H370  1  0.60329541  0.68972553  0.40545454  1
  H+  H371  1  0.18286258  0.82960614  0.90523141  1
  H+  H372  1  0.90471420  0.07177583  0.60565359  1
  H+  H373  1  0.82812415  0.92033145  0.09220671  1
  H+  H374  1  0.84731497  0.68022594  0.07160356  1
  H+  H375  1  0.64223341  0.07528925  0.57886929  1
  H+  H376  1  0.82866705  0.66671091  0.39400726  1
  H+  H377  1  0.91725776  0.09677937  0.93709452  1
  H+  H378  1  0.17974520  0.58418390  0.89855295  1
  H+  H379  1  0.83979070  0.42298759  0.72949884  1
  H+  H380  1  0.07188670  0.15942716  0.73249461  1
  H+  H381  1  0.43643756  0.10243811  0.94155629  1
  H+  H382  1  0.34759899  0.42547519  0.09106306  1
  H+  H383  1  0.66528289  0.09286198  0.23988040  1
  O2-  O384  1  0.08579196  0.16113507  0.15371485  1
  O2-  O385  1  0.09049603  0.16082787  0.49519598  1
  O2-  O386  1  0.07751665  0.17304379  0.81067319  1
  O2-  O387  1  0.08259556  0.41613549  0.14391097  1
  O2-  O388  1  0.07045909  0.42284109  0.47683907  1
  O2-  O389  1  0.05317293  0.37338193  0.79685374  1
  O2-  O390  1  0.08843857  0.66315742  0.15157763  1
  O2-  O391  1  0.08349860  0.66787824  0.47452682  1
  O2-  O392  1  0.09352567  0.66079084  0.81281963  1
  O2-  O393  1  0.11731848  0.93151157  0.12920344  1
  O2-  O394  1  0.07343146  0.91380246  0.47257146  1
  O2-  O395  1  0.04793821  0.96123111  0.79660079  1
  O2-  O396  1  0.32530206  0.16583488  0.14827880  1
  O2-  O397  1  0.33556148  0.17205698  0.47982575  1
  O2-  O398  1  0.33546997  0.15056531  0.80140048  1
  O2-  O399  1  0.35239169  0.43421893  0.13600365  1
  O2-  O400  1  0.33205124  0.43952710  0.47028793  1
  O2-  O401  1  0.37807283  0.42407108  0.77273077  1
  O2-  O402  1  0.33486559  0.66668276  0.15221075  1
  O2-  O403  1  0.33131411  0.66120454  0.49612142  1
  O2-  O404  1  0.28113302  0.57240483  0.78840746  1
  O2-  O405  1  0.31239213  0.85999360  0.12566967  1
  O2-  O406  1  0.33628819  0.90883557  0.46066073  1
  O2-  O407  1  0.34728315  0.91649161  0.81047646  1
  O2-  O408  1  0.56673407  0.15549348  0.14914941  1
  O2-  O409  1  0.59414741  0.18482341  0.47451299  1
  O2-  O410  1  0.59932225  0.17160405  0.81723074  1
  O2-  O411  1  0.57320122  0.40024220  0.14061873  1
  O2-  O412  1  0.57622915  0.41539873  0.48022206  1
  O2-  O413  1  0.59230021  0.40589764  0.81670827  1
  O2-  O414  1  0.58311329  0.67358975  0.12890549  1
  O2-  O415  1  0.53746068  0.69649930  0.45880014  1
  O2-  O416  1  0.57093574  0.67463176  0.81712376  1
  O2-  O417  1  0.57591228  0.91810145  0.15779265  1
  O2-  O418  1  0.58258335  0.91868251  0.47859837  1
  O2-  O419  1  0.60025289  0.92697858  0.82220875  1
  O2-  O420  1  0.82218439  0.18003269  0.13611410  1
  O2-  O421  1  0.87664379  0.17548678  0.47173740  1
  O2-  O422  1  0.83753455  0.17633039  0.81176978  1
  O2-  O423  1  0.83065771  0.42683023  0.14193240  1
  O2-  O424  1  0.83137789  0.43873382  0.47817224  1
  O2-  O425  1  0.84393477  0.42897954  0.80792423  1
  O2-  O426  1  0.85348980  0.68932786  0.15870002  1
  O2-  O427  1  0.83814968  0.67629211  0.47023354  1
  O2-  O428  1  0.85367379  0.67224488  0.81702821  1
  O2-  O429  1  0.82973354  0.91615643  0.13717990  1
  O2-  O430  1  0.82831553  0.91586239  0.47949457  1
  O2-  O431  1  0.82221983  0.91812195  0.82570503  1
  O2-  O432  1  0.16572639  0.08032172  0.19782761  1
  O2-  O433  1  0.16668259  0.06730681  0.52060244  1
  O2-  O434  1  0.19163429  0.13914776  0.86208546  1
  O2-  O435  1  0.14620235  0.32126242  0.20320152  1
  O2-  O436  1  0.16398279  0.35254852  0.50797113  1
  O2-  O437  1  0.16183768  0.32598186  0.85962930  1
  O2-  O438  1  0.17023697  0.58005682  0.19278024  1
  O2-  O439  1  0.15934128  0.58438283  0.52146521  1
  O2-  O440  1  0.20034294  0.61195723  0.85584978  1
  O2-  O441  1  0.16970207  0.82966992  0.19042567  1
  O2-  O442  1  0.18471045  0.83062018  0.51784348  1
  O2-  O443  1  0.18653400  0.82563397  0.85874570  1
  O2-  O444  1  0.40267568  0.08153421  0.19460454  1
  O2-  O445  1  0.43685818  0.12073218  0.52726167  1
  O2-  O446  1  0.42940234  0.09027546  0.85930644  1
  O2-  O447  1  0.41023273  0.32981040  0.18691075  1
  O2-  O448  1  0.41652759  0.33192976  0.53689260  1
  O2-  O449  1  0.34981175  0.29279055  0.85744797  1
  O2-  O450  1  0.42603538  0.58934387  0.17278398  1
  O2-  O451  1  0.41906291  0.58138949  0.52517972  1
  O2-  O452  1  0.40682816  0.56332403  0.83558033  1
  O2-  O453  1  0.41794124  0.82835240  0.19181487  1
  O2-  O454  1  0.41704169  0.82091923  0.51000747  1
  O2-  O455  1  0.41527321  0.81574455  0.84574461  1
  O2-  O456  1  0.66345808  0.08764963  0.19482898  1
  O2-  O457  1  0.64227252  0.07477930  0.53248615  1
  O2-  O458  1  0.67237721  0.08905960  0.85593101  1
  O2-  O459  1  0.66392682  0.32597668  0.18372125  1
  O2-  O460  1  0.66294999  0.33670442  0.52421816  1
  O2-  O461  1  0.68480586  0.33982010  0.84823984  1
  O2-  O462  1  0.64988607  0.57116144  0.18030256  1
  O2-  O463  1  0.70995294  0.56373098  0.53004709  1
  O2-  O464  1  0.68719503  0.57456471  0.84547773  1
  O2-  O465  1  0.66747237  0.83465104  0.18129968  1
  O2-  O466  1  0.66064594  0.83717534  0.52098250  1
  O2-  O467  1  0.67091030  0.83777678  0.87618070  1
  O2-  O468  1  0.92829912  0.07551328  0.19113091  1
  O2-  O469  1  0.92399720  0.07588319  0.52890588  1
  O2-  O470  1  0.91462952  0.09102785  0.85708905  1
  O2-  O471  1  0.91807257  0.34679460  0.18174956  1
  O2-  O472  1  0.91562713  0.31123106  0.52249665  1
  O2-  O473  1  0.91357961  0.34113134  0.85340452  1
  O2-  O474  1  0.92028547  0.58751620  0.18676415  1
  O2-  O475  1  0.92262682  0.60430070  0.51932353  1
  O2-  O476  1  0.91894594  0.58292040  0.86353152  1
  O2-  O477  1  0.91793071  0.84332130  0.18202923  1
  O2-  O478  1  0.91513083  0.83790919  0.51951752  1
  O2-  O479  1  0.90893887  0.84242982  0.85952319  1
  O2-  O480  1  0.16888485  0.08140423  0.32014184  1
  O2-  O481  1  0.15489402  0.07082044  0.64437913  1
  O2-  O482  1  0.17244758  0.09255844  0.98234914  1
  O2-  O483  1  0.15983287  0.32908708  0.32000588  1
  O2-  O484  1  0.16809239  0.24724065  0.59467767  1
  O2-  O485  1  0.16860716  0.32949245  0.98208110  1
  O2-  O486  1  0.16739321  0.58183627  0.31536186  1
  O2-  O487  1  0.17420981  0.60001251  0.64146365  1
  O2-  O488  1  0.15251616  0.55870904  0.96223158  1
  O2-  O489  1  0.16191008  0.83268081  0.31388227  1
  O2-  O490  1  0.16260878  0.83006257  0.65308323  1
  O2-  O491  1  0.17846071  0.83907368  0.97577458  1
  O2-  O492  1  0.41229689  0.07658954  0.30975705  1
  O2-  O493  1  0.48408906  0.12545096  0.65143741  1
  O2-  O494  1  0.43334259  0.10257651  0.98681870  1
  O2-  O495  1  0.41826282  0.33105300  0.31126686  1
  O2-  O496  1  0.42014990  0.33287493  0.65352018  1
  O2-  O497  1  0.41833939  0.33308917  0.97266024  1
  O2-  O498  1  0.34739929  0.54340443  0.27906015  1
  O2-  O499  1  0.43272472  0.58282053  0.65304401  1
  O2-  O500  1  0.40748621  0.57326541  0.95389188  1
  O2-  O501  1  0.41910620  0.83575405  0.31419903  1
  O2-  O502  1  0.42741402  0.84120389  0.67052202  1
  O2-  O503  1  0.41589818  0.83043752  0.97566169  1
  O2-  O504  1  0.66665015  0.09625305  0.32157588  1
  O2-  O505  1  0.65747952  0.08591175  0.65150482  1
  O2-  O506  1  0.66803182  0.09375998  0.97957622  1
  O2-  O507  1  0.67044905  0.33687502  0.30789970  1
  O2-  O508  1  0.66758844  0.32443926  0.64515493  1
  O2-  O509  1  0.67305184  0.33451867  0.97203400  1
  O2-  O510  1  0.66498088  0.57953925  0.30307008  1
  O2-  O511  1  0.67740110  0.56565058  0.64757467  1
  O2-  O512  1  0.66507876  0.59553524  1.01739111  1
  O2-  O513  1  0.67065122  0.84506898  0.30672574  1
  O2-  O514  1  0.64035136  0.82342523  0.64087741  1
  O2-  O515  1  0.67771001  0.84545858  0.94284133  1
  O2-  O516  1  0.92333158  0.08278019  0.31886670  1
  O2-  O517  1  0.89909972  0.07004572  0.65113810  1
  O2-  O518  1  0.91769628  0.09429963  0.98240368  1
  O2-  O519  1  0.92541148  0.33940592  0.30576192  1
  O2-  O520  1  0.91984595  0.33160075  0.64270949  1
  O2-  O521  1  0.91563848  0.33628590  0.97628899  1
  O2-  O522  1  0.91620344  0.58554424  0.30713196  1
  O2-  O523  1  0.92660755  0.58501834  0.64244696  1
  O2-  O524  1  0.86371020  0.56840007  0.97036497  1
  O2-  O525  1  0.89979852  0.83137646  0.30192473  1
  O2-  O526  1  0.92299497  0.84060820  0.64393338  1
  O2-  O527  1  0.92487558  0.84731133  0.98229431  1
  O2-  O528  1  0.08330249  0.16758634  0.02666170  1
  O2-  O529  1  0.08766875  0.16399443  0.36591457  1
  O2-  O530  1  0.06716606  0.14763104  0.68774354  1
  O2-  O531  1  0.07972522  0.40510293  0.02020293  1
  O2-  O532  1  0.08232011  0.41784643  0.35426466  1
  O2-  O533  1  0.09162018  0.43499684  0.68490327  1
  O2-  O534  1  0.13266340  0.67883488  0.03296862  1
  O2-  O535  1  0.08429436  0.66790664  0.35111118  1
  O2-  O536  1  0.08631443  0.67275904  0.68407341  1
  O2-  O537  1  0.09854538  0.92532645  0.01261376  1
  O2-  O538  1  0.09521121  0.92206791  0.36362965  1
  O2-  O539  1  0.08563296  0.91101551  0.68408169  1
  O2-  O540  1  0.33779051  0.17442515  0.02359204  1
  O2-  O541  1  0.33685757  0.16716062  0.35747696  1
  O2-  O542  1  0.29399910  0.19953869  0.69826801  1
  O2-  O543  1  0.33785365  0.41913554  0.01350877  1
  O2-  O544  1  0.32958268  0.40854463  0.34628630  1
  O2-  O545  1  0.36492848  0.42892775  0.70901830  1
  O2-  O546  1  0.29520768  0.72816874  0.05527881  1
  O2-  O547  1  0.32974779  0.66523677  0.34401189  1
  O2-  O548  1  0.33731022  0.66245751  0.68430555  1
  O2-  O549  1  0.34339440  0.92997424  0.01348322  1
  O2-  O550  1  0.32565185  0.90829613  0.34448168  1
  O2-  O551  1  0.31156470  0.90272377  0.69185766  1
  O2-  O552  1  0.60478719  0.18465854  0.02468669  1
  O2-  O553  1  0.59570482  0.19224509  0.35929352  1
  O2-  O554  1  0.56892348  0.16440910  0.67998783  1
  O2-  O555  1  0.58067158  0.41180684  0.01687192  1
  O2-  O556  1  0.58250573  0.41417799  0.35314446  1
  O2-  O557  1  0.58381914  0.40348471  0.69254933  1
  O2-  O558  1  0.58340968  0.69020260  -0.00257658  1
  O2-  O559  1  0.64657328  0.70063099  0.37288828  1
  O2-  O560  1  0.59787288  0.65834166  0.69450647  1
  O2-  O561  1  0.58435344  0.92034959  -0.00361155  1
  O2-  O562  1  0.58842021  0.92635334  0.35310588  1
  O2-  O563  1  0.59167123  0.93084332  0.70565141  1
  O2-  O564  1  0.83203915  0.17400676  0.01795792  1
  O2-  O565  1  0.84351124  0.17437117  0.35108430  1
  O2-  O566  1  0.82912876  0.16862560  0.68722803  1
  O2-  O567  1  0.83564202  0.42212667  0.01939667  1
  O2-  O568  1  0.80602200  0.37012224  0.36690059  1
  O2-  O569  1  0.83564514  0.41839177  0.68388953  1
  O2-  O570  1  0.83656020  0.67982127  0.02764334  1
  O2-  O571  1  0.82420091  0.66212734  0.34828855  1
  O2-  O572  1  0.89958187  0.70596444  0.69902533  1
  O2-  O573  1  0.83502582  0.92833417  0.01114103  1
  O2-  O574  1  0.83046862  0.92175502  0.35813980  1
  O2-  O575  1  0.82386692  0.91013026  0.69940200  1
