# generated using pymatgen
data_H2O
_symmetry_space_group_name_H-M   'P 1'
_cell_length_a   17.99772031
_cell_length_b   18.00228101
_cell_length_c   22.00755553
_cell_angle_alpha   89.99847722
_cell_angle_beta   89.99602981
_cell_angle_gamma   119.98845290
_symmetry_Int_Tables_number   1
_chemical_formula_structural   H2O
_chemical_formula_sum   'H384 O192'
_cell_volume   6175.86781970
_cell_formula_units_Z   192
loop_
 _symmetry_equiv_pos_site_id
 _symmetry_equiv_pos_as_xyz
  1  'x, y, z'
loop_
 _atom_type_symbol
 _atom_type_oxidation_number
  H+  1.0
  O2-  -2.0
loop_
 _atom_site_type_symbol
 _atom_site_label
 _atom_site_symmetry_multiplicity
 _atom_site_fract_x
 _atom_site_fract_y
 _atom_site_fract_z
 _atom_site_occupancy
  H+  H0  1  0.58441441  0.15745841  0.77248364  1
  H+  H1  1  0.60361340  0.36765637  0.20767961  1
  H+  H2  1  0.36605317  0.38075994  0.16251730  1
  H+  H3  1  0.70779966  0.86707984  0.49937710  1
  H+  H4  1  0.61831900  0.38728385  -0.02072857  1
  H+  H5  1  0.11151411  0.38754132  0.48617096  1
  H+  H6  1  0.74893253  0.11834616  1.01212748  1
  H+  H7  1  0.52168767  0.63164209  0.33717689  1
  H+  H8  1  0.85869641  0.63242912  0.34376434  1
  H+  H9  1  0.63143222  0.10058246  0.84749496  1
  H+  H10  1  0.78490923  0.13826452  0.16673176  1
  H+  H11  1  0.36822597  0.23542595  0.51075583  1
  H+  H12  1  0.64236657  0.61475403  0.33253621  1
  H+  H13  1  0.24092121  0.15717290  0.00923533  1
  H+  H14  1  0.39257344  0.28571439  0.82185444  1
  H+  H15  1  1.01659558  0.88149124  1.00706597  1
  H+  H16  1  0.23266675  0.86079068  0.65997336  1
  H+  H17  1  0.38897412  0.69795237  0.36301620  1
  H+  H18  1  0.03586229  0.63741964  0.67419303  1
  H+  H19  1  0.49152099  0.59339620  0.65972337  1
  H+  H20  1  0.89473835  0.61751265  0.64933776  1
  H+  H21  1  0.88683585  0.36218213  0.50705745  1
  H+  H22  1  0.82679487  0.84638187  0.69610325  1
  H+  H23  1  0.34902326  0.57360274  0.32253105  1
  H+  H24  1  0.12551278  0.48030553  0.67438267  1
  H+  H25  1  0.29516923  0.40635363  0.82297061  1
  H+  H26  1  0.29747029  0.66478137  0.33716720  1
  H+  H27  1  0.35128645  0.34902002  0.66343504  1
  H+  H28  1  0.61818317  0.85593888  0.66134017  1
  H+  H29  1  0.92308464  0.30585980  0.29837729  1
  H+  H30  1  0.38491268  0.77577902  0.51646524  1
  H+  H31  1  0.76135619  0.63151286  0.34439330  1
  H+  H32  1  0.87065946  0.39372424  0.67636657  1
  H+  H33  1  0.17271600  0.38101276  0.83338502  1
  H+  H34  1  0.22787401  0.86781422  0.50306159  1
  H+  H35  1  0.38968826  0.61739061  0.84231601  1
  H+  H36  1  0.26750725  0.37850782  0.49241571  1
  H+  H37  1  0.14224944  0.49572924  0.82884588  1
  H+  H38  1  0.88268865  0.39719824  0.33121547  1
  H+  H39  1  0.52072949  0.12473440  0.82956856  1
  H+  H40  1  0.87106220  0.23890125  0.67841657  1
  H+  H41  1  0.44828927  0.09387517  0.15730875  1
  H+  H42  1  0.47285014  0.86602698  0.50860259  1
  H+  H43  1  0.08961369  0.42613910  0.39133771  1
  H+  H44  1  0.92968530  0.57210684  0.89267800  1
  H+  H45  1  0.33275799  0.16386152  0.41056695  1
  H+  H46  1  0.33531278  0.66842838  0.06185848  1
  H+  H47  1  0.58460848  0.66899981  0.39342759  1
  H+  H48  1  0.13303422  0.39449378  0.15585785  1
  H+  H49  1  0.38217670  0.26890084  0.17904481  1
  H+  H50  1  0.37636448  0.60898152  0.48921646  1
  H+  H51  1  0.67411685  0.32900983  0.60272816  1
  H+  H52  1  0.14719195  0.61717807  0.83683219  1
  H+  H53  1  0.02477107  0.64709189  0.34943464  1
  H+  H54  1  0.14308830  0.89438840  -0.01450020  1
  H+  H55  1  0.26937976  0.63693277  0.00505053  1
  H+  H56  1  0.12532040  0.72527656  0.67232018  1
  H+  H57  1  0.11746556  0.23098934  0.66251921  1
  H+  H58  1  0.10848890  0.88236695  0.81760665  1
  H+  H59  1  0.47212915  0.35316837  0.19968854  1
  H+  H60  1  0.46124083  0.26876609  0.61927570  1
  H+  H61  1  0.16047194  0.32933495  0.55882165  1
  H+  H62  1  0.11255814  -0.03363253  0.16139306  1
  H+  H63  1  0.38599521  0.36684438  0.50828455  1
  H+  H64  1  0.62203623  0.66633511  -0.02918253  1
  H+  H65  1  0.48132424  0.55064668  0.59493332  1
  H+  H66  1  0.85485882  0.18285780  0.35106526  1
  H+  H67  1  0.87600757  0.84863272  0.32950490  1
  H+  H68  1  0.64711626  0.01969238  0.17112694  1
  H+  H69  1  0.67982751  0.58730816  0.23933455  1
  H+  H70  1  0.82440114  0.64525482  -0.01963746  1
  H+  H71  1  0.87217426  0.64069623  0.15864507  1
  H+  H72  1  0.93697788  0.05903029  0.84213403  1
  H+  H73  1  0.89197872  0.52900847  0.66610667  1
  H+  H74  1  0.51400999  0.63552054  0.47469994  1
  H+  H75  1  0.61424165  0.37942713  0.82201319  1
  H+  H76  1  0.62767995  0.84514820  0.30209522  1
  H+  H77  1  0.69009927  0.31163196  0.17282466  1
  H+  H78  1  0.84420870  0.95128776  0.31564468  1
  H+  H79  1  0.12017960  0.88361410  0.66861610  1
  H+  H80  1  0.15401380  0.36760292  -0.01073011  1
  H+  H81  1  0.99633507  0.60133173  0.51218449  1
  H+  H82  1  0.86804623  -0.02839833  0.14508420  1
  H+  H83  1  0.24095864  0.62381506  0.83861375  1
  H+  H84  1  0.37044276  0.73371324  0.83366573  1
  H+  H85  1  0.13442683  0.11421772  0.65371161  1
  H+  H86  1  0.88614030  0.76898698  0.17347336  1
  H+  H87  1  0.46640451  0.59729276  0.15491969  1
  H+  H88  1  0.89293722  0.27982530  0.16120435  1
  H+  H89  1  0.38539243  0.86287192  0.83980936  1
  H+  H90  1  0.53175392  0.13284361  0.50008351  1
  H+  H91  1  0.21622535  0.10507695  0.17128983  1
  H+  H92  1  0.22894737  0.10619730  0.33326349  1
  H+  H93  1  0.88042147  0.76004270  0.84215210  1
  H+  H94  1  0.67210912  0.06628055  0.27407566  1
  H+  H95  1  0.12218913  0.72755990  0.49837349  1
  H+  H96  1  0.88641119  0.27387443  0.50778126  1
  H+  H97  1  0.61429648  0.38387114  0.49644406  1
  H+  H98  1  0.17433780  0.29222477  0.82997354  1
  H+  H99  1  0.37430881  0.40711349  0.99799649  1
  H+  H100  1  0.38505786  0.79580810  0.31431528  1
  H+  H101  1  0.60427143  0.57186091  0.64340340  1
  H+  H102  1  0.60874319  0.88527388  0.50420754  1
  H+  H103  1  0.55406196  0.08187424  0.13017827  1
  H+  H104  1  0.21646520  0.95626276  0.94226845  1
  H+  H105  1  0.87302788  0.48799115  0.49218438  1
  H+  H106  1  0.38592121  0.50665815  0.83382970  1
  H+  H107  1  0.41555954  0.89705310  -0.01069847  1
  H+  H108  1  0.64203484  0.11435123  0.51944143  1
  H+  H109  1  0.05893077  0.17502090  0.82398631  1
  H+  H110  1  0.24746668  0.37255595  0.16857632  1
  H+  H111  1  0.12324526  0.63319930  0.16574860  1
  H+  H112  1  0.51195439  0.14689907  1.00494201  1
  H+  H113  1  0.38752676  0.86432273  0.15388672  1
  H+  H114  1  0.36740774  0.22635191  0.35173793  1
  H+  H115  1  0.12832125  0.26953005  0.49919174  1
  H+  H116  1  0.37862121  0.65037995  0.15187639  1
  H+  H117  1  0.24337546  0.62339118  0.16378845  1
  H+  H118  1  0.16132000  0.29642480  0.32176259  1
  H+  H119  1  0.38243442  1.01454925  0.83703683  1
  H+  H120  1  -0.02640881  0.12541108  0.54104207  1
  H+  H121  1  0.27678258  0.90014810  0.33379638  1
  H+  H122  1  0.97621936  0.12367909  0.66847283  1
  H+  H123  1  0.18529683  0.53005941  0.31897986  1
  H+  H124  1  0.88335536  0.52727976  0.32887988  1
  H+  H125  1  0.16673809  0.84132867  0.88956909  1
  H+  H126  1  0.81350952  0.42016834  0.12071241  1
  H+  H127  1  0.39304609  0.02005955  0.50441558  1
  H+  H128  1  0.62560374  0.61673990  1.05517252  1
  H+  H129  1  0.42460153  0.84633430  0.21364475  1
  H+  H130  1  0.15753254  0.08305506  0.56047433  1
  H+  H131  1  0.85509990  0.09175084  -0.00172197  1
  H+  H132  1  0.14008947  0.52429157  0.50542340  1
  H+  H133  1  0.59055430  0.24320756  0.01184107  1
  H+  H134  1  0.84490510  0.37604849  0.82203902  1
  H+  H135  1  0.36488364  0.61944294  -0.00873564  1
  H+  H136  1  0.84160122  0.68329854  0.58977995  1
  H+  H137  1  0.89346363  0.08962408  0.32149910  1
  H+  H138  1  0.98124373  0.11910658  0.13836959  1
  H+  H139  1  0.98139350  0.10641210  1.00977004  1
  H+  H140  1  0.09238466  0.66967187  0.43795172  1
  H+  H141  1  0.14629519  0.36764464  0.65458755  1
  H+  H142  1  0.21731300  0.11274285  0.50205880  1
  H+  H143  1  -0.01297569  0.37162610  0.66328619  1
  H+  H144  1  0.61994831  0.22689174  0.67675858  1
  H+  H145  1  0.36462063  0.21404688  0.68283955  1
  H+  H146  1  0.63895294  0.50924434  0.65274961  1
  H+  H147  1  0.91017676  0.88097860  0.54241877  1
  H+  H148  1  0.52596703  0.38572158  0.49296317  1
  H+  H149  1  0.48989510  0.66165733  0.99394460  1
  H+  H150  1  0.11413430  0.96902401  0.66573592  1
  H+  H151  1  0.13284175  0.76496681  0.17425092  1
  H+  H152  1  0.17768860  0.58595197  0.93227186  1
  H+  H153  1  0.27114169  0.88359082  0.82380787  1
  H+  H154  1  0.13739355  0.86522251  0.32588641  1
  H+  H155  1  0.31250284  0.16443114  0.86598951  1
  H+  H156  1  0.73366043  0.60359632  0.17783603  1
  H+  H157  1  0.63112371  0.52199509  0.49806450  1
  H+  H158  1  0.76791452  0.09675441  0.34646378  1
  H+  H159  1  0.39607425  0.66553522  0.68787813  1
  H+  H160  1  0.32472499  0.90735713  0.05913273  1
  H+  H161  1  0.34672949  0.65837830  0.57092407  1
  H+  H162  1  0.54961768  0.72563416  0.67365825  1
  H+  H163  1  0.95935663  0.05348942  0.31821521  1
  H+  H164  1  0.32449824  0.15262138  0.55131076  1
  H+  H165  1  0.09316304  0.66564680  0.76536353  1
  H+  H166  1  0.62431973  0.77174170  0.50145329  1
  H+  H167  1  0.15206866  0.61388927  0.66439348  1
  H+  H168  1  0.36759247  0.88897440  0.67466061  1
  H+  H169  1  0.62678246  0.38170497  0.67268536  1
  H+  H170  1  0.36762269  0.12962497  0.83474787  1
  H+  H171  1  0.03588979  0.37736957  0.00781051  1
  H+  H172  1  0.37437315  0.10136883  0.98971946  1
  H+  H173  1  0.39263111  0.88700626  0.30900439  1
  H+  H174  1  0.38945487  0.10747850  0.66322836  1
  H+  H175  1  0.65288910  0.24574648  0.33840433  1
  H+  H176  1  0.88525398  0.11349328  0.51817756  1
  H+  H177  1  0.37912431  0.53289096  0.99439275  1
  H+  H178  1  0.21198961  0.09555265  0.81484458  1
  H+  H179  1  0.80930185  0.96327782  0.82270623  1
  H+  H180  1  0.05253924  0.17325448  0.32416668  1
  H+  H181  1  0.01915504  0.88710398  0.48887323  1
  H+  H182  1  0.12666123  0.39838966  0.33439462  1
  H+  H183  1  0.61032192  0.71978682  0.81927360  1
  H+  H184  1  1.00660099  0.39385227  0.31049847  1
  H+  H185  1  0.91498926  0.32506318  1.06043477  1
  H+  H186  1  0.37272130  0.28996267  0.97832690  1
  H+  H187  1  0.60004067  0.50741708  -0.00319162  1
  H+  H188  1  0.34635862  0.13585331  0.14122726  1
  H+  H189  1  0.63130823  1.00031799  0.32881868  1
  H+  H190  1  0.09583058  0.17869520  0.72444120  1
  H+  H191  1  0.63534389  0.60739100  0.83507693  1
  H+  H192  1  0.08397631  0.23442700  0.06533724  1
  H+  H193  1  0.02522139  0.39120626  0.48725722  1
  H+  H194  1  0.27838898  0.89959521  -0.00500056  1
  H+  H195  1  0.72262431  0.87689542  0.83144977  1
  H+  H196  1  0.90249385  0.53892612  0.18032566  1
  H+  H197  1  0.70058866  0.38071200  0.99321174  1
  H+  H198  1  0.75876529  0.64786280  0.50272557  1
  H+  H199  1  0.34044707  0.95828879  0.14493724  1
  H+  H200  1  0.74675056  0.34698644  0.32933684  1
  H+  H201  1  0.86095153  0.72719060  0.34485870  1
  H+  H202  1  0.59993089  0.87628600  0.84327589  1
  H+  H203  1  0.39447979  0.35383955  0.33723013  1
  H+  H204  1  0.15694679  0.53218022  0.16604990  1
  H+  H205  1  0.39220159  0.78341857  0.66132734  1
  H+  H206  1  0.61500646  0.46116760  0.20582119  1
  H+  H207  1  0.22097521  0.10994948  0.65597548  1
  H+  H208  1  0.38324821  0.01747415  0.99495308  1
  H+  H209  1  0.36714234  -0.02279286  0.67520022  1
  H+  H210  1  0.88259001  0.51660931  0.83512287  1
  H+  H211  1  0.54274923  0.39424124  0.33707662  1
  H+  H212  1  0.85185987  0.20855619  0.82956457  1
  H+  H213  1  0.62969868  0.75844748  0.31005462  1
  H+  H214  1  0.56063097  0.42904639  0.04052875  1
  H+  H215  1  0.36536183  0.99118868  0.33530311  1
  H+  H216  1  0.46803017  0.37525056  0.97127568  1
  H+  H217  1  0.39977807  0.11207174  0.50857489  1
  H+  H218  1  0.62031934  0.11792983  0.34698793  1
  H+  H219  1  0.71041509  0.63455658  1.01723080  1
  H+  H220  1  0.38843688  0.41073927  0.81776519  1
  H+  H221  1  0.28351251  0.39808139  0.00739351  1
  H+  H222  1  0.52645640  0.89178413  0.67823112  1
  H+  H223  1  0.53235843  0.90377080  0.14126815  1
  H+  H224  1  0.74851670  0.13625345  0.66887578  1
  H+  H225  1  0.13592237  0.86126177  0.50633734  1
  H+  H226  1  0.10891503  0.12907723  0.48245546  1
  H+  H227  1  0.72813731  0.36487083  0.50669166  1
  H+  H228  1  0.37572163  0.47108367  0.34979422  1
  H+  H229  1  0.11570704  0.73123490  0.34597231  1
  H+  H230  1  0.88414235  0.80862379  0.74844306  1
  H+  H231  1  0.23251213  0.36119537  0.64711590  1
  H+  H232  1  0.14712979  0.11652124  0.32503269  1
  H+  H233  1  0.75680986  0.86466483  0.32158074  1
  H+  H234  1  0.86135024  0.76163955  0.68099750  1
  H+  H235  1  0.53107507  0.13603763  0.67501749  1
  H+  H236  1  0.25754653  0.86643452  0.15269596  1
  H+  H237  1  0.84134163  0.97835299  0.48125079  1
  H+  H238  1  0.52030914  0.63751607  0.83050524  1
  H+  H239  1  0.13663811  0.76956855  0.83604400  1
  H+  H240  1  0.91151905  0.83044295  -0.06770818  1
  H+  H241  1  0.63298223  0.78591878  0.91720495  1
  H+  H242  1  0.40249673  0.13190572  0.34354646  1
  H+  H243  1  0.36190780  0.88844781  0.48855428  1
  H+  H244  1  0.87589128  0.14527283  0.15378444  1
  H+  H245  1  0.89194733  0.40653495  0.14068891  1
  H+  H246  1  0.84193190  -0.04741876  1.00345440  1
  H+  H247  1  0.21959109  0.58244208  0.25770015  1
  H+  H248  1  0.47497270  0.86232229  0.83965265  1
  H+  H249  1  0.53869425  0.13460839  0.34915863  1
  H+  H250  1  0.12720989  0.14322084  0.81339661  1
  H+  H251  1  0.28720114  0.38769047  0.33914260  1
  H+  H252  1  0.02275945  0.87791776  0.16271673  1
  H+  H253  1  0.02918802  0.63178212  0.82229530  1
  H+  H254  1  0.14642713  0.52258686  0.98848352  1
  H+  H255  1  0.07423207  0.40277020  0.85108944  1
  H+  H256  1  0.60875700  0.83018342  0.14995646  1
  H+  H257  1  0.71812514  0.09699795  0.84662154  1
  H+  H258  1  0.10543394  0.96965355  0.34020872  1
  H+  H259  1  0.14315605  0.61557401  0.50852017  1
  H+  H260  1  0.63989463  0.02385441  0.52488742  1
  H+  H261  1  0.53017653  0.38845129  0.81695120  1
  H+  H262  1  0.27132233  0.63233523  0.52371411  1
  H+  H263  1  0.99044590  0.62417407  0.18477343  1
  H+  H264  1  0.55238771  0.94026299  0.99149499  1
  H+  H265  1  0.86934384  0.14665056  0.67858706  1
  H+  H266  1  0.37340519  0.73618151  0.14727873  1
  H+  H267  1  0.86655327  0.88421428  0.15647522  1
  H+  H268  1  0.73534727  0.36078070  0.66194687  1
  H+  H269  1  0.75738626  0.37898878  0.82644672  1
  H+  H270  1  0.87889794  0.86114097  0.99081932  1
  H+  H271  1  0.89759299  0.37303752  0.97819658  1
  H+  H272  1  0.87134936  0.09647922  0.83938336  1
  H+  H273  1  0.60742635  0.22241846  0.18128419  1
  H+  H274  1  0.82380729  0.89438309  0.06118539  1
  H+  H275  1  0.77418450  0.13442861  0.50555348  1
  H+  H276  1  0.95520474  0.35072960  0.81032246  1
  H+  H277  1  0.13163537  0.01962238  1.00323208  1
  H+  H278  1  0.39152610  0.58131171  0.38888643  1
  H+  H279  1  0.64503525  0.52459065  0.33547133  1
  H+  H280  1  0.61884361  0.61007868  0.15159030  1
  H+  H281  1  0.84068492  0.40117584  -0.06360609  1
  H+  H282  1  0.50013927  0.34922913  0.66153782  1
  H+  H283  1  0.67934246  0.09523825  0.60735696  1
  H+  H284  1  0.37466148  0.51896017  0.47761678  1
  H+  H285  1  0.50859613  0.87888720  0.31528385  1
  H+  H286  1  0.96873788  0.85309111  0.33333300  1
  H+  H287  1  0.65638280  0.11143355  0.18501751  1
  H+  H288  1  0.44316498  0.86383809  0.93160986  1
  H+  H289  1  0.68280217  0.88601747  0.92586331  1
  H+  H290  1  0.65300861  0.57479915  0.55950777  1
  H+  H291  1  0.87281820  0.24837684  1.01384769  1
  H+  H292  1  0.92494562  0.34102418  0.60521988  1
  H+  H293  1  0.16807385  0.83395499  0.26767368  1
  H+  H294  1  0.04316264  0.39279164  0.14989226  1
  H+  H295  1  0.64327278  0.27180213  0.50955774  1
  H+  H296  1  0.34298033  0.41502301  0.10065107  1
  H+  H297  1  0.79400227  0.47009291  0.45091878  1
  H+  H298  1  0.17484077  0.58076216  0.60421458  1
  H+  H299  1  0.82919370  0.14865860  0.44527352  1
  H+  H300  1  0.88667673  0.06281606  0.93882176  1
  H+  H301  1  0.63977619  0.52231382  0.83692056  1
  H+  H302  1  0.56199625  0.37602257  0.10520233  1
  H+  H303  1  0.91765017  0.50860782  0.06786306  1
  H+  H304  1  0.55912592  0.15895379  0.09057579  1
  H+  H305  1  0.41884263  0.84357932  0.60174212  1
  H+  H306  1  0.41430382  0.07320806  0.89770155  1
  H+  H307  1  0.76780801  0.63209639  0.87201505  1
  H+  H308  1  0.16626589  0.06853570  0.23326548  1
  H+  H309  1  0.60221300  0.63467249  0.48800413  1
  H+  H310  1  0.07961208  0.90867188  0.75613524  1
  H+  H311  1  0.11012907  0.97130808  0.49059034  1
  H+  H312  1  0.91373118  0.82391252  0.23462643  1
  H+  H313  1  0.94423180  0.09234737  0.20650685  1
  H+  H314  1  0.07510073  0.90496665  0.06835989  1
  H+  H315  1  0.61032658  0.40517525  0.10470729  1
  H+  H316  1  0.01740153  0.11589438  0.46507406  1
  H+  H317  1  0.32261247  0.15041308  0.73828658  1
  H+  H318  1  0.73104922  0.85015204  0.67249070  1
  H+  H319  1  0.60167025  0.94835183  0.08701103  1
  H+  H320  1  0.40891002  0.58470907  0.90648103  1
  H+  H321  1  0.19188058  0.35783693  0.26371812  1
  H+  H322  1  0.04472293  0.64042482  0.00356045  1
  H+  H323  1  0.33470694  0.91621761  0.76647986  1
  H+  H324  1  0.38662354  0.44747530  0.65871544  1
  H+  H325  1  0.64048685  0.81945918  0.59996647  1
  H+  H326  1  0.63441125  0.79775384  0.20892717  1
  H+  H327  1  0.49970005  0.68543854  0.18387242  1
  H+  H328  1  0.91663773  0.59370255  0.27363365  1
  H+  H329  1  0.92259108  0.49102777  -0.00722152  1
  H+  H330  1  0.81418281  0.14930057  0.06997131  1
  H+  H331  1  0.84529288  0.66920359  0.46928829  1
  H+  H332  1  0.85381559  0.73521362  0.00559553  1
  H+  H333  1  0.67288552  0.29886561  0.27197927  1
  H+  H334  1  0.65247999  0.32649182  0.89716949  1
  H+  H335  1  0.80422385  0.92586062  0.41996756  1
  H+  H336  1  0.11938261  0.01194224  0.81697443  1
  H+  H337  1  0.15519400  0.28654863  0.17867349  1
  H+  H338  1  0.41715731  0.34196683  0.88201224  1
  H+  H339  1  0.64694460  0.12753929  0.66954673  1
  H+  H340  1  0.83054262  0.41781473  0.73356847  1
  H+  H341  1  0.26639617  0.24729091  0.03744240  1
  H+  H342  1  -0.03318440  0.84649402  0.82098095  1
  H+  H343  1  0.83446115  0.66340676  0.09908370  1
  H+  H344  1  0.07796600  0.90950120  0.39901226  1
  H+  H345  1  0.93528748  0.56887392  0.57215434  1
  H+  H346  1  0.45305474  0.14191214  0.28343487  1
  H+  H347  1  0.42605545  0.34312230  0.56654904  1
  H+  H348  1  0.29410277  0.63735174  0.67519767  1
  H+  H349  1  0.33061307  0.40253310  0.43452163  1
  H+  H350  1  0.60658118  0.96623974  0.83421459  1
  H+  H351  1  0.10367492  0.42011645  0.06084126  1
  H+  H352  1  0.59602636  0.16051882  0.44327520  1
  H+  H353  1  0.41196120  0.31566054  0.27787942  1
  H+  H354  1  0.19197965  0.34125922  0.93367315  1
  H+  H355  1  0.33655556  0.92318740  0.42884878  1
  H+  H356  1  0.85535303  0.63049399  0.86554748  1
  H+  H357  1  0.34388694  0.67793202  0.77235249  1
  H+  H358  1  0.59463373  0.41380951  0.73088729  1
  H+  H359  1  0.09740663  0.18152892  0.38828958  1
  H+  H360  1  0.37568868  0.05878395  0.20903498  1
  H+  H361  1  0.31439796  0.18546960  0.09619724  1
  H+  H362  1  0.60706814  0.68800413  0.13054655  1
  H+  H363  1  0.93484246  0.35523922  0.21123954  1
  H+  H364  1  0.82570587  0.15640870  0.76862127  1
  H+  H365  1  0.42322305  0.08136708  0.60303362  1
  H+  H366  1  0.65140232  0.05957590  0.94311814  1
  H+  H367  1  0.13185662  0.85422273  0.17173045  1
  H+  H368  1  0.92940852  0.34633005  0.87897402  1
  H+  H369  1  0.58357980  0.90812452  0.73723376  1
  H+  H370  1  0.17360796  0.83025386  0.59989069  1
  H+  H371  1  0.52519710  0.67193708  0.73503389  1
  H+  H372  1  0.09732753  0.41981776  0.73271293  1
  H+  H373  1  0.07502548  0.64488926  0.10899692  1
  H+  H374  1  0.62832514  0.25910831  0.84135153  1
  H+  H375  1  0.59249515  0.42221895  0.39973500  1
  H+  H376  1  0.59782771  0.93964358  0.45119282  1
  H+  H377  1  0.77810139  0.89530069  0.73702628  1
  H+  H378  1  0.77152334  0.63448670  0.63916496  1
  H+  H379  1  0.84420563  0.41826861  0.39285818  1
  H+  H380  1  0.87759725  0.79720438  0.50352659  1
  H+  H381  1  0.90188958  0.07528836  0.62014701  1
  H+  H382  1  0.11251700  0.09532345  0.99651454  1
  H+  H383  1  0.55122903  0.86104123  0.37207619  1
  O2-  O384  1  0.06096948  0.17448304  0.07773984  1
  O2-  O385  1  0.07874044  0.15820988  0.46319551  1
  O2-  O386  1  0.11283490  0.19120214  0.80338114  1
  O2-  O387  1  0.10395585  0.42432795  0.13721293  1
  O2-  O388  1  0.08468150  0.42104786  0.47099378  1
  O2-  O389  1  0.11332026  0.43111872  0.81732172  1
  O2-  O390  1  0.08598480  0.65788534  0.15267946  1
  O2-  O391  1  0.09577441  0.66703075  0.48383742  1
  O2-  O392  1  0.09099490  0.66410467  0.81115243  1
  O2-  O393  1  0.08215810  0.90520985  0.14567497  1
  O2-  O394  1  0.08081645  0.91075890  0.47665937  1
  O2-  O395  1  0.07553237  0.90935069  0.80238209  1
  O2-  O396  1  0.32179993  0.17416468  0.13959479  1
  O2-  O397  1  0.33703346  0.17011475  0.50872534  1
  O2-  O398  1  0.33632822  0.16288777  0.82634379  1
  O2-  O399  1  0.33535858  0.40930618  0.14556631  1
  O2-  O400  1  0.32933934  0.40831730  0.48006901  1
  O2-  O401  1  0.35836391  0.44475216  0.80983410  1
  O2-  O402  1  0.34099993  0.67391145  0.13708854  1
  O2-  O403  1  0.33671937  0.66367759  0.52794557  1
  O2-  O404  1  0.34221533  0.67268279  0.81741255  1
  O2-  O405  1  0.31652034  0.89725898  0.13337961  1
  O2-  O406  1  0.33551518  0.92289149  0.47424643  1
  O2-  O407  1  0.33350217  0.91620288  0.81222180  1
  O2-  O408  1  0.55156812  0.13450786  0.13558868  1
  O2-  O409  1  0.59412527  0.16432204  0.48829727  1
  O2-  O410  1  0.58283046  0.15616692  0.81773376  1
  O2-  O411  1  0.57616074  0.40076355  0.21855799  1
  O2-  O412  1  0.58669812  0.41526950  0.47895066  1
  O2-  O413  1  0.59145665  0.41520217  0.80431257  1
  O2-  O414  1  0.59117519  0.62833916  0.12034015  1
  O2-  O415  1  0.57789859  0.66926867  0.47027393  1
  O2-  O416  1  0.57180810  0.66254549  0.80329600  1
  O2-  O417  1  0.59524276  0.93582062  0.13156784  1
  O2-  O418  1  0.58401736  0.92453113  0.49388333  1
  O2-  O419  1  0.57600877  0.90581525  0.81883671  1
  O2-  O420  1  0.84087081  0.17396168  0.14561397  1
  O2-  O421  1  0.83412865  0.16379491  0.48892352  1
  O2-  O422  1  0.82342450  0.14925828  0.81391929  1
  O2-  O423  1  0.87574013  0.44998301  0.12560061  1
  O2-  O424  1  0.82334986  0.44003327  0.46523475  1
  O2-  O425  1  0.81897867  0.41184301  0.81224978  1
  O2-  O426  1  0.83551811  0.66412324  0.14424361  1
  O2-  O427  1  0.82293992  0.68654903  0.50349647  1
  O2-  O428  1  0.83000233  0.66237244  0.88424450  1
  O2-  O429  1  0.83463652  0.90959819  0.13727378  1
  O2-  O430  1  0.78842417  0.94285626  0.45846509  1
  O2-  O431  1  0.76189016  0.91618397  0.79997100  1
  O2-  O432  1  0.15929189  0.06449795  0.18868034  1
  O2-  O433  1  0.15639074  0.08187214  0.51441423  1
  O2-  O434  1  0.15196477  0.07601637  0.82451473  1
  O2-  O435  1  0.18548049  0.34782475  0.18754941  1
  O2-  O436  1  0.15962926  0.32976310  0.51297233  1
  O2-  O437  1  0.20476437  0.35199285  0.84705470  1
  O2-  O438  1  0.18463374  0.59091371  0.18357452  1
  O2-  O439  1  0.16972568  0.58168011  0.52543442  1
  O2-  O440  1  0.17891059  0.58776144  0.85121524  1
  O2-  O441  1  0.16424382  0.82595399  0.18791217  1
  O2-  O442  1  0.16960119  0.83455323  0.52127346  1
  O2-  O443  1  0.16641432  0.83245940  0.84496145  1
  O2-  O444  1  0.38488891  0.06603148  0.16528581  1
  O2-  O445  1  0.42746131  0.07965981  0.52268755  1
  O2-  O446  1  0.41472258  0.07616128  0.85238512  1
  O2-  O447  1  0.40782424  0.32458764  0.20134324  1
  O2-  O448  1  0.42002623  0.33883116  0.52178417  1
  O2-  O449  1  0.42341690  0.34580849  0.83605290  1
  O2-  O450  1  0.44732782  0.62804895  0.18169546  1
  O2-  O451  1  0.40368177  0.58102697  0.46602456  1
  O2-  O452  1  0.41788144  0.58559172  0.85927718  1
  O2-  O453  1  0.42801237  0.84529861  0.16842956  1
  O2-  O454  1  0.41208578  0.83898433  0.52218700  1
  O2-  O455  1  0.41471636  0.83257754  0.85641066  1
  O2-  O456  1  0.68087007  0.07559755  0.19609184  1
  O2-  O457  1  0.67344458  0.08597015  0.53707665  1
  O2-  O458  1  0.65918916  0.06860045  0.86391919  1
  O2-  O459  1  0.64393439  0.27922294  0.20166922  1
  O2-  O460  1  0.66968782  0.33218757  0.52462962  1
  O2-  O461  1  0.65769894  0.32176782  0.85251027  1
  O2-  O462  1  0.67461695  0.57313396  0.19542905  1
  O2-  O463  1  0.65389662  0.58159244  0.51402778  1
  O2-  O464  1  0.66161256  0.57863291  0.85690744  1
  O2-  O465  1  0.60525237  0.77911932  0.16910203  1
  O2-  O466  1  0.65096264  0.83009477  0.52018089  1
  O2-  O467  1  0.65504406  0.84216703  0.89459043  1
  O2-  O468  1  0.92868488  0.09255963  0.16369500  1
  O2-  O469  1  0.91478396  0.08134682  0.53156935  1
  O2-  O470  1  0.88664281  0.05626003  0.86067587  1
  O2-  O471  1  0.92684429  0.34433932  0.16652461  1
  O2-  O472  1  0.91869447  0.33493665  0.52172415  1
  O2-  O473  1  0.90644684  0.32539868  0.83828868  1
  O2-  O474  1  0.92838769  0.59713101  0.19765665  1
  O2-  O475  1  0.93791341  0.55915888  0.52779804  1
  O2-  O476  1  0.92123276  0.57677068  0.84945780  1
  O2-  O477  1  0.91828905  0.82861620  0.18982435  1
  O2-  O478  1  0.91642541  0.86062389  0.50283196  1
  O2-  O479  1  0.90300646  0.81762120  0.82326730  1
  O2-  O480  1  0.16957501  0.07724438  0.31691532  1
  O2-  O481  1  0.16414545  0.08459816  0.63599217  1
  O2-  O482  1  0.15642956  0.07890383  0.98689907  1
  O2-  O483  1  0.19036127  0.35786798  0.30950599  1
  O2-  O484  1  0.17055829  0.33449238  0.63488902  1
  O2-  O485  1  0.18812165  0.33964710  0.97838343  1
  O2-  O486  1  0.23814276  0.57434961  0.29879434  1
  O2-  O487  1  0.18195348  0.58291478  0.64940055  1
  O2-  O488  1  0.17242577  0.58363128  0.97705393  1
  O2-  O489  1  0.17308531  0.83985670  0.31289276  1
  O2-  O490  1  0.17218560  0.82679677  0.64523937  1
  O2-  O491  1  0.19115854  0.89819772  0.95860190  1
  O2-  O492  1  0.43977037  0.11189143  0.32236337  1
  O2-  O493  1  0.42613194  0.08437195  0.64837602  1
  O2-  O494  1  0.41068747  0.07826115  0.97693156  1
  O2-  O495  1  0.41978835  0.31836713  0.32327577  1
  O2-  O496  1  0.44360852  0.30476998  0.64094672  1
  O2-  O497  1  0.40851284  0.34349691  0.95445025  1
  O2-  O498  1  0.40018692  0.57995485  0.34390354  1
  O2-  O499  1  0.48874217  0.54206186  0.63774439  1
  O2-  O500  1  0.39675982  0.58747881  0.97224049  1
  O2-  O501  1  0.41806946  0.85305607  0.29212286  1
  O2-  O502  1  0.42100823  0.84420396  0.64710630  1
  O2-  O503  1  0.46111005  0.88703265  0.97341499  1
  O2-  O504  1  0.66810419  0.06306139  0.31963422  1
  O2-  O505  1  0.68448984  0.10337058  0.65367081  1
  O2-  O506  1  0.64830154  0.06210310  0.98860426  1
  O2-  O507  1  0.68313917  0.30610336  0.31750240  1
  O2-  O508  1  0.67372002  0.32699064  0.64821763  1
  O2-  O509  1  0.64472693  0.34960907  0.97357474  1
  O2-  O510  1  0.67849441  0.58850336  0.32185783  1
  O2-  O511  1  0.65587092  0.56702702  0.63532128  1
  O2-  O512  1  0.64660227  0.60783932  1.01424054  1
  O2-  O513  1  0.66010230  0.81631206  0.29015173  1
  O2-  O514  1  0.63545858  0.81312505  0.64490650  1
  O2-  O515  1  0.55086074  0.70957031  1.00214179  1
  O2-  O516  1  0.92735198  0.07349594  0.29396129  1
  O2-  O517  1  0.91280117  0.09522576  0.66255665  1
  O2-  O518  1  0.88661170  0.06229282  0.98400314  1
  O2-  O519  1  0.94682008  0.36690972  0.29058396  1
  O2-  O520  1  0.92528245  0.34191180  0.65039018  1
  O2-  O521  1  0.91426744  0.31337785  1.01699188  1
  O2-  O522  1  0.90861971  0.58900600  0.31907359  1
  O2-  O523  1  0.92848731  0.58740066  0.64874239  1
  O2-  O524  1  0.93659738  0.54091295  1.02686515  1
  O2-  O525  1  0.90741606  0.81728342  0.31924694  1
  O2-  O526  1  0.87653628  0.81520708  0.70352410  1
  O2-  O527  1  0.91491482  0.83354764  0.97670961  1
  O2-  O528  1  0.04581408  0.13366564  0.01781918  1
  O2-  O529  1  0.10788477  0.18998775  0.34326448  1
  O2-  O530  1  0.08707358  0.17133851  0.67965124  1
  O2-  O531  1  0.09763658  0.41462161  0.01535255  1
  O2-  O532  1  0.09447946  0.42848385  0.34596243  1
  O2-  O533  1  0.09267475  0.41849304  0.68796481  1
  O2-  O534  1  0.03045382  0.59295200  0.03247325  1
  O2-  O535  1  0.08424005  0.67297912  0.36398666  1
  O2-  O536  1  0.09651200  0.66489163  0.68863300  1
  O2-  O537  1  0.07685019  0.91052863  0.02292521  1
  O2-  O538  1  0.07387633  0.90844043  0.35341983  1
  O2-  O539  1  0.08817743  0.91154201  0.68393957  1
  O2-  O540  1  0.29257289  0.21321046  0.02550912  1
  O2-  O541  1  0.33683996  0.16342730  0.36629343  1
  O2-  O542  1  0.32663808  0.15268903  0.69364176  1
  O2-  O543  1  0.34496517  0.43101887  0.02243600  1
  O2-  O544  1  0.34440759  0.40862937  0.35939860  1
  O2-  O545  1  0.33437501  0.39223997  0.66840213  1
  O2-  O546  1  0.33187113  0.66774411  0.01641281  1
  O2-  O547  1  0.34579994  0.71528137  0.35862851  1
  O2-  O548  1  0.35087423  0.68173157  0.69128839  1
  O2-  O549  1  0.33550416  0.92101140  0.01450139  1
  O2-  O550  1  0.33854204  0.93075742  0.34795108  1
  O2-  O551  1  0.33504081  0.91718049  0.69030200  1
  O2-  O552  1  0.56667471  0.18397181  0.02691065  1
  O2-  O553  1  0.59949536  0.15694162  0.36284543  1
  O2-  O554  1  0.59089928  0.16579815  0.69174696  1
  O2-  O555  1  0.56933161  0.44168367  -0.00308324  1
  O2-  O556  1  0.60022972  0.43029961  0.35507195  1
  O2-  O557  1  0.59314453  0.41025563  0.68479292  1
  O2-  O558  1  0.59370946  0.69599865  -0.04982595  1
  O2-  O559  1  0.58329942  0.66278093  0.34784266  1
  O2-  O560  1  0.50126185  0.67431598  0.69451052  1
  O2-  O561  1  0.61611307  0.97214702  0.00723027  1
  O2-  O562  1  0.56700127  0.89253278  0.33383786  1
  O2-  O563  1  0.58601752  0.91255146  0.69225089  1
  O2-  O564  1  0.81154427  0.14957285  0.02454081  1
  O2-  O565  1  0.82865145  0.12256750  0.36229531  1
  O2-  O566  1  0.83673518  0.17772900  0.69233077  1
  O2-  O567  1  0.89838988  0.42175284  -0.04748055  1
  O2-  O568  1  0.84026354  0.41288425  0.34733382  1
  O2-  O569  1  0.83554945  0.42029938  0.68833114  1
  O2-  O570  1  0.81961895  0.67270016  0.01768923  1
  O2-  O571  1  0.82800138  0.66385302  0.36030852  1
  O2-  O572  1  0.83448736  0.67108077  0.63384898  1
  O2-  O573  1  0.82113430  0.89239095  0.01554563  1
  O2-  O574  1  0.81630402  0.89828007  0.33976202  1
  O2-  O575  1  0.78908073  0.88188439  0.69332922  1
