# generated using pymatgen
data_H2O
_symmetry_space_group_name_H-M   'P 1'
_cell_length_a   17.96965722
_cell_length_b   17.97269533
_cell_length_c   21.97948478
_cell_angle_alpha   89.99409849
_cell_angle_beta   89.99421690
_cell_angle_gamma   120.00682575
_symmetry_Int_Tables_number   1
_chemical_formula_structural   H2O
_chemical_formula_sum   'H384 O192'
_cell_volume   6147.11390749
_cell_formula_units_Z   192
loop_
 _symmetry_equiv_pos_site_id
 _symmetry_equiv_pos_as_xyz
  1  'x, y, z'
loop_
 _atom_type_symbol
 _atom_type_oxidation_number
  H+  1.0
  O2-  -2.0
loop_
 _atom_site_type_symbol
 _atom_site_label
 _atom_site_symmetry_multiplicity
 _atom_site_fract_x
 _atom_site_fract_y
 _atom_site_fract_z
 _atom_site_occupancy
  H+  H0  1  0.01156423  0.13372027  0.67374802  1
  H+  H1  1  0.23651857  0.87132343  0.51769169  1
  H+  H2  1  0.36434803  0.21223120  0.33870612  1
  H+  H3  1  0.33917840  0.70356724  0.34155399  1
  H+  H4  1  0.85366223  0.95961159  0.33971729  1
  H+  H5  1  0.32984996  0.52744924  0.16421560  1
  H+  H6  1  0.22421508  0.11088024  0.32618854  1
  H+  H7  1  0.35524607  0.49491662  0.82378488  1
  H+  H8  1  0.02349643  0.39340162  0.82753701  1
  H+  H9  1  0.89296046  0.51634278  0.16210237  1
  H+  H10  1  0.87198406  0.84607754  0.31983055  1
  H+  H11  1  0.65802992  0.83685872  0.91250597  1
  H+  H12  1  0.69393573  0.58290575  0.98760160  1
  H+  H13  1  -0.00360709  0.38472478  0.49520649  1
  H+  H14  1  0.25453461  0.66644058  0.19394614  1
  H+  H15  1  0.89358402  0.88740073  0.50838427  1
  H+  H16  1  0.50875100  0.62561437  0.36150893  1
  H+  H17  1  0.38058848  0.08207828  -0.01529088  1
  H+  H18  1  0.61311852  0.73677956  0.67360439  1
  H+  H19  1  0.29425378  0.66132413  0.00100222  1
  H+  H20  1  0.87480261  0.66625418  0.59809926  1
  H+  H21  1  0.52071158  0.67362095  0.22031168  1
  H+  H22  1  0.38266667  0.26729199  0.51125807  1
  H+  H23  1  0.66130372  0.64923829  0.98074171  1
  H+  H24  1  0.51384495  0.86307271  0.66056893  1
  H+  H25  1  0.85732930  0.38576920  0.52594212  1
  H+  H26  1  0.85382353  0.88373462  0.15726712  1
  H+  H27  1  0.87470472  0.86756326  0.66561244  1
  H+  H28  1  0.13298926  0.33178240  0.98236031  1
  H+  H29  1  0.10432939  0.88543899  0.67136973  1
  H+  H30  1  0.12837593  0.34962196  0.31931050  1
  H+  H31  1  0.88617589  0.12291886  0.83628392  1
  H+  H32  1  0.09945002  0.45912405  0.33853949  1
  H+  H33  1  0.21582603  0.34845235  0.30967447  1
  H+  H34  1  0.09510017  0.61230667  0.15428460  1
  H+  H35  1  0.60936022  0.47326667  0.82443428  1
  H+  H36  1  0.21390102  0.11908606  0.66209922  1
  H+  H37  1  0.36625924  0.59403295  0.34975478  1
  H+  H38  1  0.28190843  0.89963816  0.36776187  1
  H+  H39  1  0.47342079  0.11431727  0.51426347  1
  H+  H40  1  0.37712074  0.08678925  0.17398754  1
  H+  H41  1  0.62480462  0.86639401  0.98015855  1
  H+  H42  1  0.47437313  0.34834769  0.32220221  1
  H+  H43  1  0.60770725  0.73958466  0.14860392  1
  H+  H44  1  -0.00962922  0.13169356  0.83034446  1
  H+  H45  1  0.13318802  0.07363310  0.98960444  1
  H+  H46  1  0.42277859  0.94017393  0.69545754  1
  H+  H47  1  0.11980105  0.42469971  0.07688960  1
  H+  H48  1  0.76294409  0.12827057  0.15661267  1
  H+  H49  1  0.67770313  0.60638284  0.18157238  1
  H+  H50  1  0.39063144  0.87817161  1.02582123  1
  H+  H51  1  0.90185820  0.82669808  0.22918913  1
  H+  H52  1  0.64934268  0.94398946  0.51263536  1
  H+  H53  1  0.22782016  0.08475492  -0.00640722  1
  H+  H54  1  0.88019108  0.74739649  0.15077298  1
  H+  H55  1  0.84604843  0.96981645  0.77901159  1
  H+  H56  1  0.61391578  0.49436246  0.67596310  1
  H+  H57  1  0.10026774  0.21180828  0.33677904  1
  H+  H58  1  0.72940326  0.11033044  0.66493200  1
  H+  H59  1  0.88419424  0.36438130  0.83842147  1
  H+  H60  1  0.58187292  0.44411679  -0.00196657  1
  H+  H61  1  0.72806952  0.39185201  0.37539302  1
  H+  H62  1  0.62380090  -0.01785584  0.15623860  1
  H+  H63  1  0.35254947  0.19779648  0.00290964  1
  H+  H64  1  0.25748472  0.34356653  0.15147939  1
  H+  H65  1  0.91786626  0.33537450  0.89680774  1
  H+  H66  1  0.15913006  0.65233798  -0.00879293  1
  H+  H67  1  0.76615795  0.11937819  0.33497357  1
  H+  H68  1  0.63539625  0.86794430  0.82634363  1
  H+  H69  1  0.62866665  0.26597721  0.83389498  1
  H+  H70  1  0.77848346  0.13597916  -0.00031984  1
  H+  H71  1  -0.00906077  0.88503422  0.51203439  1
  H+  H72  1  0.37827744  0.62107842  0.83496360  1
  H+  H73  1  0.10930151  0.67230969  0.09526062  1
  H+  H74  1  0.50611391  0.36646457  0.15336129  1
  H+  H75  1  0.86906823  0.73626728  0.83943186  1
  H+  H76  1  0.64198212  0.10973063  0.98892530  1
  H+  H77  1  1.01941989  0.89254247  0.67512404  1
  H+  H78  1  0.52895188  0.65093499  0.51040345  1
  H+  H79  1  0.01376018  0.66569843  0.51596929  1
  H+  H80  1  0.62776924  0.10627614  0.16943177  1
  H+  H81  1  0.90424127  0.89068732  -0.01613781  1
  H+  H82  1  0.85535490  0.46969051  0.82964112  1
  H+  H83  1  0.51848314  0.39745841  0.67463032  1
  H+  H84  1  0.88160335  0.78364496  0.64597002  1
  H+  H85  1  0.34611684  0.65281325  0.14418018  1
  H+  H86  1  0.77711509  0.14006781  0.82845703  1
  H+  H87  1  1.06036398  0.70857848  0.16956490  1
  H+  H88  1  0.37343377  -0.01268828  0.50465039  1
  H+  H89  1  0.90012674  0.86922997  0.82855104  1
  H+  H90  1  0.13374940  1.00066376  0.17503976  1
  H+  H91  1  0.87832336  0.64638247  0.32751129  1
  H+  H92  1  0.85753703  -0.02610483  1.00002948  1
  H+  H93  1  0.10114990  0.23139020  0.82160219  1
  H+  H94  1  0.72014617  0.61525942  0.82966837  1
  H+  H95  1  0.27866482  0.89743859  0.05724361  1
  H+  H96  1  0.97488010  0.11636337  0.50351941  1
  H+  H97  1  0.37493702  0.32723290  0.16573867  1
  H+  H98  1  0.58908552  0.20396388  0.15168599  1
  H+  H99  1  0.19278099  0.84347945  0.28886653  1
  H+  H100  1  1.07154115  0.84290560  0.16790783  1
  H+  H101  1  0.41351594  0.79277424  0.66010057  1
  H+  H102  1  0.82045772  0.68895345  -0.01064413  1
  H+  H103  1  0.46605037  0.34634888  0.83456353  1
  H+  H104  1  0.06573858  0.40169413  0.39792543  1
  H+  H105  1  0.60327935  0.23600609  0.66107607  1
  H+  H106  1  0.37655109  0.53998562  0.15922803  1
  H+  H107  1  0.27975639  0.65409266  0.66794540  1
  H+  H108  1  0.46577923  0.61546960  0.83247581  1
  H+  H109  1  0.05021193  0.66495407  0.33534955  1
  H+  H110  1  0.48260941  0.10868547  0.32833451  1
  H+  H111  1  0.11288325  0.21158090  0.49275991  1
  H+  H112  1  0.47796391  0.62023919  0.66576951  1
  H+  H113  1  0.10914067  0.12822527  0.33792371  1
  H+  H114  1  0.83056494  0.64318706  0.14539215  1
  H+  H115  1  0.01508260  0.11308483  0.15275285  1
  H+  H116  1  0.81360489  0.16747997  0.41929174  1
  H+  H117  1  0.00958245  0.61735258  0.63856243  1
  H+  H118  1  0.12207636  0.59706639  0.33278008  1
  H+  H119  1  0.87728050  0.09037072  0.32799110  1
  H+  H120  1  0.14316681  0.78535049  0.51611550  1
  H+  H121  1  0.62700211  0.98157207  0.81644550  1
  H+  H122  1  0.39361036  0.61496283  -0.01311806  1
  H+  H123  1  0.84868162  0.67472032  0.78385731  1
  H+  H124  1  0.94233062  0.58404508  0.27359741  1
  H+  H125  1  0.90314879  0.36494895  0.99735100  1
  H+  H126  1  0.15029530  0.72303861  0.33016751  1
  H+  H127  1  0.86792498  0.75577771  0.31401167  1
  H+  H128  1  0.60426382  0.37257417  0.49815785  1
  H+  H129  1  0.52122975  0.92487100  0.51991035  1
  H+  H130  1  0.62675714  0.01716412  0.32044536  1
  H+  H131  1  0.19758912  0.88165827  0.95875828  1
  H+  H132  1  0.60736689  0.20996316  0.00247900  1
  H+  H133  1  0.71588255  0.09566053  0.49896814  1
  H+  H134  1  0.86662090  0.23245377  0.82834364  1
  H+  H135  1  0.36207640  0.73745108  0.81677270  1
  H+  H136  1  0.04632434  0.66442860  0.00171779  1
  H+  H137  1  0.71258713  0.35143884  0.52887948  1
  H+  H138  1  0.38611093  0.34740510  0.31161612  1
  H+  H139  1  0.47524032  0.35395170  0.51044021  1
  H+  H140  1  0.50617129  0.11001165  0.15576965  1
  H+  H141  1  0.32935354  0.12156257  0.66900778  1
  H+  H142  1  0.71895814  0.85797928  0.82155374  1
  H+  H143  1  0.86159513  0.13345948  0.67703804  1
  H+  H144  1  0.86164007  0.65553989  0.66807827  1
  H+  H145  1  0.13165823  0.10676856  0.50494023  1
  H+  H146  1  0.37410309  0.38410880  0.51647610  1
  H+  H147  1  0.52491821  0.63808869  -0.00924690  1
  H+  H148  1  0.64645466  0.02354901  0.98829556  1
  H+  H149  1  0.15084442  0.01669601  0.83816854  1
  H+  H150  1  0.41369155  0.90664023  0.51714434  1
  H+  H151  1  0.12864734  0.02700742  0.66059666  1
  H+  H152  1  0.11300562  0.43895905  -0.03054461  1
  H+  H153  1  0.12506061  0.51732270  0.65992395  1
  H+  H154  1  0.13095081  0.61234348  0.83241314  1
  H+  H155  1  0.58170952  0.42563447  0.73907928  1
  H+  H156  1  1.03714470  0.88833741  0.82821002  1
  H+  H157  1  0.36185386  0.48265967  0.67558328  1
  H+  H158  1  0.27214925  0.39068130  0.67800012  1
  H+  H159  1  0.53529457  0.89550026  0.80660111  1
  H+  H160  1  0.75060523  0.59255343  0.48830677  1
  H+  H161  1  0.87533061  0.26891757  0.50785935  1
  H+  H162  1  0.37685754  -0.00143776  0.17396746  1
  H+  H163  1  0.79758597  0.52143599  0.43500445  1
  H+  H164  1  0.27046654  0.64779547  0.82493717  1
  H+  H165  1  0.93602473  0.82312060  0.98214730  1
  H+  H166  1  0.98153404  0.41802392  0.19827308  1
  H+  H167  1  0.84899157  0.61505440  0.50067067  1
  H+  H168  1  0.11441919  0.62098226  0.51681489  1
  H+  H169  1  0.22548655  0.34053762  0.98099825  1
  H+  H170  1  0.88648184  0.50214751  0.19478026  1
  H+  H171  1  0.38418629  0.11523836  0.50644925  1
  H+  H172  1  0.76609603  0.38019787  0.82874889  1
  H+  H173  1  0.47117663  0.08814149  -0.01132885  1
  H+  H174  1  0.88750642  0.11944840  0.50539928  1
  H+  H175  1  0.20821860  0.80254174  0.23058139  1
  H+  H176  1  0.83862679  0.34467838  0.15634201  1
  H+  H177  1  0.96848691  0.09497917  0.32691062  1
  H+  H178  1  0.11490677  0.89184924  0.50638712  1
  H+  H179  1  0.87202421  0.38869270  0.31926226  1
  H+  H180  1  0.17546315  0.89758482  0.86179454  1
  H+  H181  1  0.11391851  0.19473422  0.99514602  1
  H+  H182  1  0.91774353  0.08636332  0.89473025  1
  H+  H183  1  0.35691672  0.46491745  0.33103019  1
  H+  H184  1  0.20460142  0.84465181  0.67281097  1
  H+  H185  1  0.89187912  0.51902482  0.56816133  1
  H+  H186  1  0.27170313  0.13589755  0.49507868  1
  H+  H187  1  0.37490554  0.85112867  0.33285325  1
  H+  H188  1  0.61780746  0.35113212  0.16017943  1
  H+  H189  1  0.91609938  0.42394508  0.32813085  1
  H+  H190  1  0.11261250  0.60767242  0.65406769  1
  H+  H191  1  0.91094839  0.31973851  0.57338569  1
  H+  H192  1  0.62457710  0.77136835  0.97581528  1
  H+  H193  1  0.36249219  0.87362514  0.15028677  1
  H+  H194  1  0.72735159  0.86080359  0.17261952  1
  H+  H195  1  0.97295605  0.71285870  0.16447179  1
  H+  H196  1  0.52691297  0.89584056  0.00725523  1
  H+  H197  1  0.35536028  0.22265377  0.67527134  1
  H+  H198  1  0.66227870  0.08365096  0.23080536  1
  H+  H199  1  0.88555813  0.60961657  0.84907999  1
  H+  H200  1  0.01371070  0.62008914  0.81931962  1
  H+  H201  1  0.71878055  0.84223450  0.33542916  1
  H+  H202  1  0.41279034  0.57874624  0.92741786  1
  H+  H203  1  0.59666182  0.60033724  0.33846597  1
  H+  H204  1  0.61383412  0.38923388  0.34649487  1
  H+  H205  1  0.96660241  0.33734066  0.16282132  1
  H+  H206  1  0.89309232  0.11508590  0.98632955  1
  H+  H207  1  0.49006789  0.87978010  0.16992881  1
  H+  H208  1  0.14640337  0.57547240  0.59261959  1
  H+  H209  1  0.20364223  0.47854385  0.11560266  1
  H+  H210  1  0.53381853  0.11836407  0.82951917  1
  H+  H211  1  0.62839333  0.34837094  -0.00726923  1
  H+  H212  1  0.61072395  0.11344678  0.67914922  1
  H+  H213  1  0.82950460  0.90585109  0.40153251  1
  H+  H214  1  0.44281786  0.68689944  0.21326462  1
  H+  H215  1  0.61032798  0.21679345  0.50491098  1
  H+  H216  1  0.13099824  0.08723640  0.16645651  1
  H+  H217  1  0.60283517  0.72491353  0.82139776  1
  H+  H218  1  0.74546733  0.33476558  0.14537190  1
  H+  H219  1  0.10710406  0.49387051  0.17474465  1
  H+  H220  1  0.07770720  0.13772523  0.05554440  1
  H+  H221  1  0.23931181  0.34849210  0.52674594  1
  H+  H222  1  0.71881297  0.35282202  0.98935648  1
  H+  H223  1  0.38952081  0.36820072  0.66426878  1
  H+  H224  1  0.35695901  0.19522578  0.15691553  1
  H+  H225  1  0.10150642  0.13496264  0.67449236  1
  H+  H226  1  0.34586031  0.63300262  0.49757906  1
  H+  H227  1  0.11963147  0.80822951  0.37840047  1
  H+  H228  1  0.27096782  0.91491835  0.86975674  1
  H+  H229  1  0.13034519  0.27337553  0.67478525  1
  H+  H230  1  1.02119425  0.36780404  0.99332884  1
  H+  H231  1  0.65477125  0.32443771  0.89316192  1
  H+  H232  1  0.85357555  0.97244828  0.15882990  1
  H+  H233  1  0.11733875  -0.01778758  0.50213973  1
  H+  H234  1  0.64618897  0.11443581  0.83558429  1
  H+  H235  1  0.60357983  0.71164249  0.34984437  1
  H+  H236  1  0.73989644  0.87969372  0.68357490  1
  H+  H237  1  0.37402388  0.97732762  0.35232884  1
  H+  H238  1  0.26143748  0.39491479  0.82287524  1
  H+  H239  1  0.88839079  0.26785147  0.99181742  1
  H+  H240  1  0.58710546  0.46258905  0.15369097  1
  H+  H241  1  -0.02325394  0.10280254  -0.01615343  1
  H+  H242  1  0.87335131  0.01520966  0.66476374  1
  H+  H243  1  0.59094833  0.60295657  0.16878357  1
  H+  H244  1  0.35955612  0.21723253  0.82447544  1
  H+  H245  1  0.20553012  0.59016539  0.32464968  1
  H+  H246  1  0.62889917  0.60600413  0.50965054  1
  H+  H247  1  0.60207089  0.63513370  0.82139656  1
  H+  H248  1  0.60991403  0.38286513  0.82120059  1
  H+  H249  1  0.35992595  0.46287781  -0.00002435  1
  H+  H250  1  0.14165389  0.34569022  0.15828210  1
  H+  H251  1  0.62230272  0.22848096  0.35617871  1
  H+  H252  1  0.92420305  0.58029622  0.90251165  1
  H+  H253  1  0.45705668  0.33118483  -0.01058769  1
  H+  H254  1  0.96723409  0.86606423  0.17101763  1
  H+  H255  1  0.39489167  0.53697577  0.52344069  1
  H+  H256  1  0.11315990  0.39301073  0.67720585  1
  H+  H257  1  0.63425238  0.10969794  0.33004082  1
  H+  H258  1  0.36337461  0.12371307  0.34319913  1
  H+  H259  1  0.91175687  0.63475290  0.99025276  1
  H+  H260  1  0.37183678  0.33700311  0.98622210  1
  H+  H261  1  0.11396575  0.48327585  0.82902542  1
  H+  H262  1  0.91047388  0.54501607  0.00239861  1
  H+  H263  1  0.51083980  0.67635064  0.12628805  1
  H+  H264  1  0.41361747  0.78732929  0.16306008  1
  H+  H265  1  0.38207662  0.74957677  0.99850961  1
  H+  H266  1  0.14955112  0.34043651  0.51750233  1
  H+  H267  1  0.50952413  0.87164593  0.32561814  1
  H+  H268  1  0.64082095  0.62447363  0.65891703  1
  H+  H269  1  0.10470618  0.19855404  0.14995092  1
  H+  H270  1  0.86553507  0.98352258  0.49495940  1
  H+  H271  1  0.77921981  0.89341266  0.50359762  1
  H+  H272  1  0.23939704  0.63432489  0.16819944  1
  H+  H273  1  0.86627151  0.19737470  0.33054418  1
  H+  H274  1  0.83288124  0.36334405  0.67184578  1
  H+  H275  1  0.09446128  0.41072064  0.49381796  1
  H+  H276  1  0.82718086  0.64681452  0.38576066  1
  H+  H277  1  0.84681147  0.21759968  0.15557296  1
  H+  H278  1  0.60131690  0.50177572  0.33147774  1
  H+  H279  1  -0.01145220  0.31921490  0.31951444  1
  H+  H280  1  0.41964146  0.84375813  0.76336381  1
  H+  H281  1  0.62899935  0.84073617  0.33025185  1
  H+  H282  1  0.42052799  0.33532436  0.60650903  1
  H+  H283  1  0.09335463  0.70807120  0.65876367  1
  H+  H284  1  0.88442687  0.26559882  0.66381957  1
  H+  H285  1  0.57790039  0.89962128  0.27500966  1
  H+  H286  1  0.10360744  0.52690310  0.50631661  1
  H+  H287  1  0.66947230  0.07106886  0.60702329  1
  H+  H288  1  0.38879230  0.62183302  0.66777901  1
  H+  H289  1  0.82756689  0.43890622  0.48402294  1
  H+  H290  1  0.18365781  0.06801842  0.90153392  1
  H+  H291  1  0.84732235  0.40289089  0.07256430  1
  H+  H292  1  0.59423675  0.91709959  0.06143804  1
  H+  H293  1  0.61085558  0.56053892  0.26823985  1
  H+  H294  1  0.41924882  0.06840985  0.27043429  1
  H+  H295  1  0.16725821  0.32837292  0.88958859  1
  H+  H296  1  0.16909215  0.59797543  0.89544968  1
  H+  H297  1  0.41913076  0.60134497  0.57699907  1
  H+  H298  1  0.33060598  0.67662641  0.73083874  1
  H+  H299  1  0.15552852  0.56488649  1.00345610  1
  H+  H300  1  0.62972304  0.90075141  0.71865297  1
  H+  H301  1  0.83570601  0.16785323  0.73657750  1
  H+  H302  1  0.32073123  0.15645305  0.76330431  1
  H+  H303  1  0.09318507  0.89277582  0.10524019  1
  H+  H304  1  0.93073859  0.29936133  0.26067966  1
  H+  H305  1  0.85623100  0.50029706  0.39211630  1
  H+  H306  1  0.56618620  0.39849984  0.06277335  1
  H+  H307  1  0.66656127  0.82248001  0.23268105  1
  H+  H308  1  0.26580124  0.10807835  0.15732437  1
  H+  H309  1  0.76979811  0.21415644  0.45116004  1
  H+  H310  1  0.45729849  0.87875771  0.58096915  1
  H+  H311  1  0.90452093  0.07366372  0.60371155  1
  H+  H312  1  0.65461524  0.57007382  0.56617188  1
  H+  H313  1  0.64567113  0.79621250  0.51952214  1
  H+  H314  1  0.16616324  0.32730858  0.61508381  1
  H+  H315  1  0.90002005  0.58655006  0.72525913  1
  H+  H316  1  0.36112177  0.02124402  0.66568776  1
  H+  H317  1  0.31701240  0.38164236  0.37240482  1
  H+  H318  1  0.39835616  0.97489288  0.75634613  1
  H+  H319  1  0.67848474  0.85338160  0.57916541  1
  H+  H320  1  0.32926133  0.42813762  0.76120805  1
  H+  H321  1  0.63655120  0.30695114  0.57677859  1
  H+  H322  1  0.32880433  0.13785579  0.06272667  1
  H+  H323  1  0.06817710  0.67792443  0.45256251  1
  H+  H324  1  0.25437008  0.62733217  0.49684274  1
  H+  H325  1  0.94420425  0.47059126  0.06095561  1
  H+  H326  1  0.10905630  0.92314196  0.40840154  1
  H+  H327  1  0.51387187  0.08369606  0.69778454  1
  H+  H328  1  0.58177482  0.67068771  0.72927658  1
  H+  H329  1  0.71969848  0.35984219  0.30868843  1
  H+  H330  1  0.72759024  0.61920404  0.64575856  1
  H+  H331  1  0.33249142  0.16393665  0.43555722  1
  H+  H332  1  0.09411083  0.91701592  0.76857195  1
  H+  H333  1  0.41425287  0.30733730  0.22570888  1
  H+  H334  1  0.57210252  0.40783194  0.40406543  1
  H+  H335  1  0.83423029  0.16281407  0.06077598  1
  H+  H336  1  0.68806821  0.32672152  0.66351350  1
  H+  H337  1  0.58708199  0.67457810  0.45174159  1
  H+  H338  1  0.30592375  0.64802714  0.40282939  1
  H+  H339  1  0.35244519  0.92185622  0.44779255  1
  H+  H340  1  0.06188173  0.63741148  0.75588800  1
  H+  H341  1  0.92376344  0.86024535  0.57474699  1
  H+  H342  1  0.96887315  0.35986913  0.66231750  1
  H+  H343  1  0.15353474  0.31029023  0.22261837  1
  H+  H344  1  0.63871025  0.31364362  0.21838861  1
  H+  H345  1  0.83151094  0.91608812  0.05928060  1
  H+  H346  1  0.13491292  0.36897082  0.83582388  1
  H+  H347  1  0.36716687  0.06138782  0.60028170  1
  H+  H348  1  0.08324221  0.42649002  0.73456769  1
  H+  H349  1  0.98997107  0.68103772  0.25204383  1
  H+  H350  1  0.58538982  0.67927352  0.04920042  1
  H+  H351  1  0.91207357  0.07430707  0.23196325  1
  H+  H352  1  0.42508331  0.60082856  0.29603088  1
  H+  H353  1  0.39803473  0.82283293  0.27019135  1
  H+  H354  1  0.42230503  0.02781233  0.90125770  1
  H+  H355  1  0.32594919  0.39518932  0.05592993  1
  H+  H356  1  0.58421336  0.15996948  0.40930067  1
  H+  H357  1  0.34491036  0.43111416  0.15227508  1
  H+  H358  1  0.40258185  0.88993258  0.82080030  1
  H+  H359  1  0.25949309  0.11710127  0.83240613  1
  H+  H360  1  0.57550316  0.14751983  0.06063753  1
  H+  H361  1  0.07700969  0.15649520  0.43021883  1
  H+  H362  1  0.13269119  0.75775013  0.01058164  1
  H+  H363  1  0.66613002  0.59303338  0.88814751  1
  H+  H364  1  0.16628902  0.83343473  0.60584155  1
  H+  H365  1  0.58718591  0.15521259  0.76794647  1
  H+  H366  1  0.38647556  0.69359286  0.08186256  1
  H+  H367  1  0.80771152  0.39377328  0.73132080  1
  H+  H368  1  0.14057867  0.94850682  0.00381339  1
  H+  H369  1  0.16288927  0.08611015  0.56819135  1
  H+  H370  1  0.06708675  0.16569003  0.76385427  1
  H+  H371  1  0.41115729  0.88063456  0.95612490  1
  H+  H372  1  0.67396911  0.08120375  0.89435864  1
  H+  H373  1  0.40590060  0.31025790  0.89295560  1
  H+  H374  1  0.16706123  0.08176526  0.26592276  1
  H+  H375  1  0.93174460  0.85793631  0.89615424  1
  H+  H376  1  0.34488117  0.42889935  0.46697340  1
  H+  H377  1  0.87407931  0.70405177  0.05063674  1
  H+  H378  1  0.62290666  0.89173572  0.15855068  1
  H+  H379  1  0.60319457  0.46239071  0.49631174  1
  H+  H380  1  0.91106138  0.63274246  0.72872624  1
  H+  H381  1  0.88390566  0.10828686  0.17348014  1
  H+  H382  1  0.60534930  0.12394390  0.50443990  1
  H+  H383  1  0.10270870  0.53281043  0.23951775  1
  O2-  O384  1  0.07414775  0.13825916  0.13526706  1
  O2-  O385  1  0.07452820  0.15338143  0.47643902  1
  O2-  O386  1  0.06512607  0.16968847  0.80985965  1
  O2-  O387  1  0.14214090  0.43783556  0.11954102  1
  O2-  O388  1  0.05476242  0.42586165  0.47522586  1
  O2-  O389  1  0.08480471  0.42274239  0.81297832  1
  O2-  O390  1  0.11386381  0.67123419  0.14030044  1
  O2-  O391  1  0.07328658  0.68199546  0.49708183  1
  O2-  O392  1  0.07129065  0.64394466  0.80000043  1
  O2-  O393  1  0.07663298  0.89503726  0.14799090  1
  O2-  O394  1  0.08337936  0.91972795  0.48920200  1
  O2-  O395  1  0.09774315  0.91709815  0.81372341  1
  O2-  O396  1  0.32681289  0.13497239  0.14203805  1
  O2-  O397  1  0.33292567  0.16770085  0.48125356  1
  O2-  O398  1  0.32631692  0.15478793  0.80913887  1
  O2-  O399  1  0.31849200  0.37307484  0.13502823  1
  O2-  O400  1  0.34189845  0.41749302  0.51046476  1
  O2-  O401  1  0.32432279  0.43178687  0.80801508  1
  O2-  O402  1  0.40185436  0.69346225  0.12630826  1
  O2-  O403  1  0.31098523  0.65416473  0.47697529  1
  O2-  O404  1  0.33048038  0.67383144  0.80826833  1
  O2-  O405  1  0.32168748  0.89451686  0.13880590  1
  O2-  O406  1  0.35326598  0.92459482  0.49386885  1
  O2-  O407  1  0.37423988  0.95069044  0.82880091  1
  O2-  O408  1  0.56637755  0.14356376  0.13881585  1
  O2-  O409  1  0.57908332  0.15644139  0.48749774  1
  O2-  O410  1  0.59115879  0.16244217  0.81412879  1
  O2-  O411  1  0.56713135  0.40450952  0.13712093  1
  O2-  O412  1  0.57439358  0.40226959  0.47988994  1
  O2-  O413  1  0.57987445  0.41432307  0.80638150  1
  O2-  O414  1  0.56750543  0.68047824  0.13043372  1
  O2-  O415  1  0.59021209  0.67800784  0.49660636  1
  O2-  O416  1  0.56933692  0.66368717  0.80785278  1
  O2-  O417  1  0.59433827  0.92166927  0.13995395  1
  O2-  O418  1  0.62073509  0.97435897  0.49422220  1
  O2-  O419  1  0.59875516  0.92166409  0.79964603  1
  O2-  O420  1  0.82412325  0.15883575  0.14125962  1
  O2-  O421  1  0.79916753  0.18249103  0.46172304  1
  O2-  O422  1  0.83914199  0.17119277  0.81417838  1
  O2-  O423  1  0.79520708  0.33584651  0.12516746  1
  O2-  O424  1  0.82938600  0.42162564  0.52670073  1
  O2-  O425  1  0.82719937  0.40900601  0.81507307  1
  O2-  O426  1  0.87755704  0.69554391  0.12824703  1
  O2-  O427  1  0.80376030  0.60010721  0.46820178  1
  O2-  O428  1  0.83541240  0.67326140  0.82701714  1
  O2-  O429  1  0.82067297  0.91202462  0.14328819  1
  O2-  O430  1  0.83839180  0.92102817  0.48454624  1
  O2-  O431  1  0.81555212  0.90842867  0.76824629  1
  O2-  O432  1  0.16498505  0.06318663  0.18505280  1
  O2-  O433  1  0.16632038  0.08255520  0.52267781  1
  O2-  O434  1  0.18542794  0.07623940  0.85601688  1
  O2-  O435  1  0.15931596  0.30697876  0.17719749  1
  O2-  O436  1  0.17634420  0.31108123  0.53687536  1
  O2-  O437  1  0.16735285  0.33766866  0.84428807  1
  O2-  O438  1  0.07343781  0.51294139  0.19908074  1
  O2-  O439  1  0.13931038  0.58302318  0.52768510  1
  O2-  O440  1  0.16721975  0.58886740  0.85091580  1
  O2-  O441  1  0.21294305  0.80465921  0.27487377  1
  O2-  O442  1  0.17637967  0.84575333  0.53222803  1
  O2-  O443  1  0.21399334  0.89033676  0.88997411  1
  O2-  O444  1  0.40925770  0.05838997  0.19012846  1
  O2-  O445  1  0.41104925  0.08323429  0.52496925  1
  O2-  O446  1  0.44772827  0.01949047  0.86261783  1
  O2-  O447  1  0.41255531  0.30452494  0.17999571  1
  O2-  O448  1  0.41582877  0.32727879  0.52863341  1
  O2-  O449  1  0.40563342  0.31193418  0.84771799  1
  O2-  O450  1  0.47724490  0.67836233  0.24391964  1
  O2-  O451  1  0.41999949  0.59895574  0.53136003  1
  O2-  O452  1  0.40502404  0.58573188  0.84835026  1
  O2-  O453  1  0.42893502  0.84277311  0.18289401  1
  O2-  O454  1  0.45976784  0.88910655  0.53516135  1
  O2-  O455  1  0.42493530  0.84585487  0.80768216  1
  O2-  O456  1  0.66368945  0.08187112  0.18529241  1
  O2-  O457  1  0.66185956  0.05999907  0.52328136  1
  O2-  O458  1  0.67684273  0.08294354  0.84887801  1
  O2-  O459  1  0.64243920  0.31467908  0.17414837  1
  O2-  O460  1  0.64874883  0.31662825  0.53035064  1
  O2-  O461  1  0.65570218  0.32745472  0.84809830  1
  O2-  O462  1  0.61609980  0.57113186  0.18940909  1
  O2-  O463  1  0.65172472  0.56720321  0.52087630  1
  O2-  O464  1  0.65904986  0.58324489  0.84347884  1
  O2-  O465  1  0.66504134  0.82835029  0.18779805  1
  O2-  O466  1  0.68053466  0.85674001  0.53351611  1
  O2-  O467  1  0.66300938  0.83362313  0.84314678  1
  O2-  O468  1  0.91276678  0.07614440  0.18632504  1
  O2-  O469  1  0.91441420  0.08744354  0.52040011  1
  O2-  O470  1  0.91901138  0.09183606  0.84813203  1
  O2-  O471  1  0.93628023  0.35633299  0.18984689  1
  O2-  O472  1  0.91042618  0.32607782  0.52714764  1
  O2-  O473  1  0.91905811  0.33704459  0.85151538  1
  O2-  O474  1  1.02537433  0.73242867  0.18982277  1
  O2-  O475  1  0.92881772  0.64174433  0.55139776  1
  O2-  O476  1  0.91357869  0.57519156  0.85766719  1
  O2-  O477  1  0.90527906  0.83333316  0.18198277  1
  O2-  O478  1  0.92839008  0.86082211  0.52781752  1
  O2-  O479  1  0.92642947  0.84063785  0.85023291  1
  O2-  O480  1  0.16699351  0.09466445  0.30972783  1
  O2-  O481  1  0.15375038  0.08726793  0.64530230  1
  O2-  O482  1  0.16830238  0.04821174  0.97587557  1
  O2-  O483  1  0.15382707  0.31757837  0.29925654  1
  O2-  O484  1  0.16432538  0.33441553  0.65983833  1
  O2-  O485  1  0.16584636  0.30641621  0.96427877  1
  O2-  O486  1  0.14301371  0.56066084  0.31330471  1
  O2-  O487  1  0.15087278  0.57809050  0.64098071  1
  O2-  O488  1  0.18680827  0.61658425  0.97880912  1
  O2-  O489  1  0.16623258  0.86754132  0.37114985  1
  O2-  O490  1  0.15049499  0.81951710  0.65039683  1
  O2-  O491  1  0.18681656  0.86801243  1.00536051  1
  O2-  O492  1  0.42149543  0.07384359  0.31581465  1
  O2-  O493  1  0.33355011  0.04478992  0.63852626  1
  O2-  O494  1  0.41214650  0.05237830  0.97263776  1
  O2-  O495  1  0.41694266  0.31570012  0.30233437  1
  O2-  O496  1  0.42333025  0.34050036  0.65204955  1
  O2-  O497  1  0.39786376  0.30212978  0.97284867  1
  O2-  O498  1  0.40496301  0.57116374  0.33630107  1
  O2-  O499  1  0.41556612  0.58776256  0.65369297  1
  O2-  O500  1  0.41883142  0.57965564  0.97271083  1
  O2-  O501  1  0.40002741  0.81755404  0.31487469  1
  O2-  O502  1  0.45528217  0.85453123  0.65255445  1
  O2-  O503  1  0.41953744  0.85956984  0.99508595  1
  O2-  O504  1  0.66147773  0.07930412  0.30984749  1
  O2-  O505  1  0.66864161  0.07672490  0.65137274  1
  O2-  O506  1  0.67680408  0.08378997  0.97328027  1
  O2-  O507  1  0.68508702  0.34983696  0.34519936  1
  O2-  O508  1  0.62855817  0.29594294  0.64632333  1
  O2-  O509  1  0.65941797  0.31999635  0.97549902  1
  O2-  O510  1  0.61806192  0.56116103  0.31343097  1
  O2-  O511  1  0.66351494  0.58612528  0.64509763  1
  O2-  O512  1  0.70199938  0.63186553  0.96344782  1
  O2-  O513  1  0.65786177  0.80763814  0.31962765  1
  O2-  O514  1  0.66842338  0.84281155  0.65948300  1
  O2-  O515  1  0.65098698  0.83268828  0.95960082  1
  O2-  O516  1  0.90837359  0.06224130  0.31056815  1
  O2-  O517  1  0.90682010  0.07534399  0.64878935  1
  O2-  O518  1  0.91757670  0.08189169  0.96682583  1
  O2-  O519  1  0.94205193  0.27184384  0.29533368  1
  O2-  O520  1  0.91070310  0.32473534  0.64496459  1
  O2-  O521  1  0.92342804  0.32902120  0.97637427  1
  O2-  O522  1  0.96684083  0.64221864  0.28959324  1
  O2-  O523  1  0.92498563  0.57360577  0.59186441  1
  O2-  O524  1  0.93971440  0.59979379  0.97978876  1
  O2-  O525  1  0.89673696  0.81558370  0.29763623  1
  O2-  O526  1  0.91149814  0.84806602  0.64424041  1
  O2-  O527  1  0.94617047  0.87708686  0.96325784  1
  O2-  O528  1  0.07837815  0.13497472  0.01004561  1
  O2-  O529  1  0.07347905  0.15357679  0.35504227  1
  O2-  O530  1  0.07152022  0.16583972  0.69026036  1
  O2-  O531  1  0.08593513  0.39717877  0.00218471  1
  O2-  O532  1  0.07706599  0.39906771  0.35406426  1
  O2-  O533  1  0.08372343  0.42585451  0.68878710  1
  O2-  O534  1  0.10687457  0.69416046  0.01689740  1
  O2-  O535  1  0.10471421  0.68129720  0.35810737  1
  O2-  O536  1  0.06271658  0.64431539  0.66537426  1
  O2-  O537  1  0.12163141  0.89090944  0.02357639  1
  O2-  O538  1  0.12235574  0.91738790  0.36509214  1
  O2-  O539  1  0.08076093  0.92106424  0.68763015  1
  O2-  O540  1  0.32691140  0.13735560  0.01724417  1
  O2-  O541  1  0.33418594  0.15487709  0.35846533  1
  O2-  O542  1  0.31473167  0.16396449  0.68974060  1
  O2-  O543  1  0.32801136  0.40088862  0.01072725  1
  O2-  O544  1  0.32780172  0.39972173  0.33003172  1
  O2-  O545  1  0.33370405  0.42210517  0.69186963  1
  O2-  O546  1  0.35698024  0.68780588  0.01011397  1
  O2-  O547  1  0.30762092  0.64344447  0.35681579  1
  O2-  O548  1  0.33788969  0.68108863  0.68524698  1
  O2-  O549  1  0.33542452  0.90878270  0.07290626  1
  O2-  O550  1  0.34369801  0.91954409  0.37283904  1
  O2-  O551  1  0.41542491  0.98701936  0.71152330  1
  O2-  O552  1  0.58119276  0.14915662  0.01528686  1
  O2-  O553  1  0.58939134  0.16602680  0.36385046  1
  O2-  O554  1  0.57264457  0.13466010  0.69710902  1
  O2-  O555  1  0.56466933  0.38897841  0.01722849  1
  O2-  O556  1  0.57437803  0.41110536  0.35792752  1
  O2-  O557  1  0.57992176  0.43246324  0.69187764  1
  O2-  O558  1  0.58661878  0.67709572  0.00391965  1
  O2-  O559  1  0.57253080  0.65128102  0.36813511  1
  O2-  O560  1  0.58489027  0.67333708  0.68382806  1
  O2-  O561  1  0.58877588  0.91535766  0.01583479  1
  O2-  O562  1  0.57368729  0.90277758  0.31906842  1
  O2-  O563  1  0.62356388  0.89122428  0.67405967  1
  O2-  O564  1  0.83928683  0.16722419  0.01556249  1
  O2-  O565  1  0.82418000  0.14338358  0.35418457  1
  O2-  O566  1  0.83501733  0.16772515  0.69103410  1
  O2-  O567  1  0.88943171  0.44060979  0.03940900  1
  O2-  O568  1  0.80327105  0.47188535  0.41584638  1
  O2-  O569  1  0.79461016  0.38339905  0.68748895  1
  O2-  O570  1  0.87770210  0.70452008  0.00524548  1
  O2-  O571  1  0.82888029  0.65193834  0.34114630  1
  O2-  O572  1  0.84279924  0.67631192  0.63341255  1
  O2-  O573  1  0.83367027  0.91405954  0.01435529  1
  O2-  O574  1  0.82183515  0.89980910  0.35680095  1
  O2-  O575  1  0.81577956  0.91173081  0.70013457  1
