# generated using pymatgen
data_H2O
_symmetry_space_group_name_H-M   'P 1'
_cell_length_a   17.98659067
_cell_length_b   17.98937534
_cell_length_c   22.00843144
_cell_angle_alpha   89.98398167
_cell_angle_beta   90.00488096
_cell_angle_gamma   119.99057735
_symmetry_Int_Tables_number   1
_chemical_formula_structural   H2O
_chemical_formula_sum   'H384 O192'
_cell_volume   6167.73729815
_cell_formula_units_Z   192
loop_
 _symmetry_equiv_pos_site_id
 _symmetry_equiv_pos_as_xyz
  1  'x, y, z'
loop_
 _atom_type_symbol
 _atom_type_oxidation_number
  H+  1.0
  O2-  -2.0
loop_
 _atom_site_type_symbol
 _atom_site_label
 _atom_site_symmetry_multiplicity
 _atom_site_fract_x
 _atom_site_fract_y
 _atom_site_fract_z
 _atom_site_occupancy
  H+  H0  1  0.23743400  0.39068163  1.00327405  1
  H+  H1  1  0.13183298  -0.00741531  0.99448727  1
  H+  H2  1  0.87400409  0.26732570  0.00521009  1
  H+  H3  1  0.42017478  0.33524852  0.22792769  1
  H+  H4  1  0.59290124  -0.00478125  0.64698014  1
  H+  H5  1  0.88047028  0.60661969  0.32839676  1
  H+  H6  1  0.60518853  0.72818792  0.83715685  1
  H+  H7  1  0.13430048  0.73947917  0.84887864  1
  H+  H8  1  0.84932467  0.86878056  0.66714196  1
  H+  H9  1  0.38266685  0.60390312  0.36626934  1
  H+  H10  1  0.38549737  0.27695123  1.03107500  1
  H+  H11  1  1.02768856  0.64631594  0.51565812  1
  H+  H12  1  0.13694176  0.35245524  0.18835596  1
  H+  H13  1  0.91065047  0.53160880  0.53406740  1
  H+  H14  1  0.30230798  0.09778077  0.76910973  1
  H+  H15  1  0.60657800  0.64069149  0.83427529  1
  H+  H16  1  0.35141790  -0.02103535  0.82749549  1
  H+  H17  1  0.02464927  0.87754971  0.49603938  1
  H+  H18  1  0.27464031  0.40418997  0.67724644  1
  H+  H19  1  0.06266142  0.10069932  0.50188275  1
  H+  H20  1  0.02205923  0.87839332  0.13980658  1
  H+  H21  1  0.22772302  0.85443797  0.84177153  1
  H+  H22  1  0.96742783  0.38781168  0.30053088  1
  H+  H23  1  0.40279537  0.18858550  0.65890673  1
  H+  H24  1  0.40838132  0.31343703  0.87624767  1
  H+  H25  1  0.27037031  0.12886439  1.00477773  1
  H+  H26  1  0.63815397  0.36679189  0.84362671  1
  H+  H27  1  0.49386649  0.12834583  0.66942106  1
  H+  H28  1  0.35372292  0.47859165  0.49169753  1
  H+  H29  1  0.70796339  0.33695653  0.50897705  1
  H+  H30  1  0.85046718  0.95817559  0.66747418  1
  H+  H31  1  0.84331124  0.71188965  0.67121311  1
  H+  H32  1  0.14653881  0.02604184  0.33773578  1
  H+  H33  1  0.86640761  0.38711822  0.84206922  1
  H+  H34  1  0.47528334  0.86529817  0.99997635  1
  H+  H35  1  0.89759170  0.88034079  -0.00436344  1
  H+  H36  1  0.64153101  0.53282061  -0.00158597  1
  H+  H37  1  0.16826097  0.83643680  0.23074865  1
  H+  H38  1  0.86609447  -0.01795060  0.99940816  1
  H+  H39  1  0.08623437  0.91941378  0.69480184  1
  H+  H40  1  0.47895926  0.61853343  0.84274592  1
  H+  H41  1  0.61904176  0.39052049  0.17311025  1
  H+  H42  1  0.63414684  0.52815758  0.84213772  1
  H+  H43  1  0.61837442  0.12387069  0.48826593  1
  H+  H44  1  0.87738475  0.51600482  0.32662136  1
  H+  H45  1  0.64841989  0.79163410  0.99601990  1
  H+  H46  1  0.11158696  0.72351633  0.16447187  1
  H+  H47  1  0.15856449  0.29095065  0.65010749  1
  H+  H48  1  0.53320463  0.65159123  0.00856176  1
  H+  H49  1  0.14577838  0.87135253  0.51051199  1
  H+  H50  1  0.53675321  0.89549739  0.83398283  1
  H+  H51  1  0.89146549  0.85741941  0.84373803  1
  H+  H52  1  0.32791722  0.15718645  0.06642547  1
  H+  H53  1  0.71471672  0.12629927  0.70424516  1
  H+  H54  1  0.27525651  0.88352713  0.33499114  1
  H+  H55  1  0.01466081  0.13617940  0.86910885  1
  H+  H56  1  0.01499395  0.64524713  0.01582550  1
  H+  H57  1  0.35697552  0.64417300  -0.00034522  1
  H+  H58  1  0.14985174  0.35555719  0.32942278  1
  H+  H59  1  0.58620907  0.62054940  0.64858236  1
  H+  H60  1  0.86895144  0.63585426  0.15294307  1
  H+  H61  1  0.83996503  0.65711961  0.05335207  1
  H+  H62  1  0.48898546  0.37488328  0.17532590  1
  H+  H63  1  0.82545002  0.17903152  0.68079797  1
  H+  H64  1  0.72990862  0.11026587  0.32287243  1
  H+  H65  1  0.37081302  0.96256669  0.48841832  1
  H+  H66  1  0.84620617  0.36219241  0.48392920  1
  H+  H67  1  0.38903199  0.52719918  0.84129355  1
  H+  H68  1  0.85423928  0.17887537  0.77474469  1
  H+  H69  1  0.84514573  0.38349491  0.68544710  1
  H+  H70  1  0.38974243  0.01944776  0.32620220  1
  H+  H71  1  0.27955429  0.13820374  0.33535363  1
  H+  H72  1  0.85578395  0.12937026  0.16202240  1
  H+  H73  1  0.88104412  0.76237936  0.13771722  1
  H+  H74  1  0.35358646  0.37617114  0.82090954  1
  H+  H75  1  0.13997020  0.62254524  0.84335442  1
  H+  H76  1  0.52008024  0.87467703  0.49191388  1
  H+  H77  1  0.81783490  0.15686778  0.07376890  1
  H+  H78  1  0.38947894  0.35940359  0.33144593  1
  H+  H79  1  0.79498164  0.90864274  0.49263336  1
  H+  H80  1  0.87610218  0.26304140  0.16537637  1
  H+  H81  1  0.60511239  0.36856140  0.34614357  1
  H+  H82  1  0.86346256  0.98232219  0.34037726  1
  H+  H83  1  0.77923473  0.63632146  0.15392390  1
  H+  H84  1  0.86682987  0.14112669  0.33304073  1
  H+  H85  1  0.13992659  0.85315150  0.66615066  1
  H+  H86  1  0.72384492  0.61511615  0.84200734  1
  H+  H87  1  0.03383737  0.89160808  0.35519698  1
  H+  H88  1  0.61601366  0.23244296  0.83594353  1
  H+  H89  1  0.89599211  0.87388963  0.35978410  1
  H+  H90  1  0.61852842  0.39322589  0.01742557  1
  H+  H91  1  0.52253107  0.87915925  0.15405152  1
  H+  H92  1  0.63253661  0.86513514  0.48839711  1
  H+  H93  1  0.39114506  0.27120108  0.32581666  1
  H+  H94  1  0.11455168  0.63613333  0.67699218  1
  H+  H95  1  0.88481623  0.76847259  0.50548155  1
  H+  H96  1  0.02993140  0.35174221  0.35273205  1
  H+  H97  1  0.87513958  0.13994087  0.50458236  1
  H+  H98  1  0.91290058  0.30510179  0.65841265  1
  H+  H99  1  0.21906194  0.09776041  0.83749245  1
  H+  H100  1  0.35859908  0.46396449  0.35690754  1
  H+  H101  1  0.47272721  0.60179503  0.51283696  1
  H+  H102  1  0.90450421  0.16814232  0.66963946  1
  H+  H103  1  0.71224316  0.35708398  0.32917807  1
  H+  H104  1  0.84536932  0.92832789  0.42968536  1
  H+  H105  1  0.24096522  0.61741223  0.64739579  1
  H+  H106  1  0.14234103  0.11292135  0.33755237  1
  H+  H107  1  0.85251211  0.38791168  0.00392809  1
  H+  H108  1  0.47865041  0.11892604  0.84659082  1
  H+  H109  1  0.10223760  0.96759889  0.15842576  1
  H+  H110  1  0.13637809  0.77244755  0.32229411  1
  H+  H111  1  0.36094447  0.12010463  0.82759437  1
  H+  H112  1  0.61159005  0.23091107  0.99760164  1
  H+  H113  1  0.38468391  0.85115318  0.16677017  1
  H+  H114  1  0.26963074  0.63286379  0.14966334  1
  H+  H115  1  0.13053202  0.59639325  0.31403375  1
  H+  H116  1  0.27788820  0.88112504  0.49244792  1
  H+  H117  1  0.13323515  0.50915762  0.31914854  1
  H+  H118  1  0.72385721  0.86573698  0.17109159  1
  H+  H119  1  0.88671256  0.26930944  0.50902624  1
  H+  H120  1  0.35982545  0.63464435  0.13773649  1
  H+  H121  1  0.71076222  0.59991256  0.66670607  1
  H+  H122  1  0.23571326  0.61844825  0.84312441  1
  H+  H123  1  0.32886984  0.87102704  0.98552446  1
  H+  H124  1  0.57770069  0.40659018  0.40912062  1
  H+  H125  1  0.32546783  0.14351066  0.50144215  1
  H+  H126  1  0.07652217  0.66809763  0.10317048  1
  H+  H127  1  0.05977771  0.14817257  0.65981962  1
  H+  H128  1  0.51679761  0.13296266  0.99600461  1
  H+  H129  1  0.62295694  0.51008906  0.66632039  1
  H+  H130  1  0.41030300  0.81662602  0.26620337  1
  H+  H131  1  0.37731980  0.04053055  0.64794518  1
  H+  H132  1  0.85442193  0.13586228  0.01427312  1
  H+  H133  1  0.65562065  0.53810171  0.18359373  1
  H+  H134  1  0.82727373  0.43970162  0.47282752  1
  H+  H135  1  0.77921697  0.63615114  0.99683652  1
  H+  H136  1  0.59699457  0.67506964  0.10108870  1
  H+  H137  1  0.92350842  0.59025458  0.59000390  1
  H+  H138  1  0.65609368  0.63868186  0.36947300  1
  H+  H139  1  0.25538093  0.37525042  0.17296054  1
  H+  H140  1  0.19763252  0.11577469  0.48542524  1
  H+  H141  1  0.14742217  0.78476371  0.52270258  1
  H+  H142  1  0.97446626  0.60699419  0.67879765  1
  H+  H143  1  0.77716234  0.88604101  0.34141268  1
  H+  H144  1  0.77994245  0.14052272  0.82701014  1
  H+  H145  1  0.40149297  0.32254713  0.64593156  1
  H+  H146  1  0.11433069  0.94802146  0.84083076  1
  H+  H147  1  0.65255698  0.32511385  0.23915180  1
  H+  H148  1  0.48702807  0.10117815  0.49663791  1
  H+  H149  1  0.35759091  0.39503220  0.02744820  1
  H+  H150  1  0.86576307  0.47492397  0.84323199  1
  H+  H151  1  0.52448775  0.13125128  0.33684561  1
  H+  H152  1  0.38576811  0.78985649  0.64832875  1
  H+  H153  1  0.63333044  0.86134221  0.17167577  1
  H+  H154  1  0.64531991  0.11652068  0.83785304  1
  H+  H155  1  -0.01870109  0.61491747  0.17280546  1
  H+  H156  1  0.63311224  0.87638769  0.99992918  1
  H+  H157  1  0.35194028  0.38666194  0.16556619  1
  H+  H158  1  0.80257873  0.64709621  0.44193038  1
  H+  H159  1  0.08490047  0.17097986  0.59123003  1
  H+  H160  1  0.46856899  0.86408178  0.67940507  1
  H+  H161  1  0.84822358  0.37844751  0.32169257  1
  H+  H162  1  0.88806158  0.61502004  -0.02104405  1
  H+  H163  1  0.51079032  0.37371277  0.34554499  1
  H+  H164  1  0.25253012  0.38740257  0.49596999  1
  H+  H165  1  0.13673796  0.37464791  0.50852410  1
  H+  H166  1  0.86344473  0.22723444  0.32622941  1
  H+  H167  1  0.62571510  0.89563405  0.83185630  1
  H+  H168  1  0.53383632  0.39745298  1.03222269  1
  H+  H169  1  -0.01415433  0.11520234  0.01570782  1
  H+  H170  1  0.78538859  0.65096502  0.30101767  1
  H+  H171  1  0.60627531  0.71349828  0.50545640  1
  H+  H172  1  0.51594792  0.88329446  0.34043954  1
  H+  H173  1  0.34977386  0.71444895  0.34910051  1
  H+  H174  1  0.71984726  0.35951972  0.18372818  1
  H+  H175  1  0.97628394  0.11773404  0.17831678  1
  H+  H176  1  0.60514832  0.97384822  0.34060132  1
  H+  H177  1  0.26444113  0.62440391  0.34140998  1
  H+  H178  1  0.64161074  0.11108425  0.32177513  1
  H+  H179  1  0.88852272  1.02576521  0.17095725  1
  H+  H180  1  0.85048463  0.62762727  0.67958944  1
  H+  H181  1  0.60866026  0.20888627  0.49469317  1
  H+  H182  1  0.98085090  0.64361189  0.81948313  1
  H+  H183  1  0.57448875  0.91229311  0.42946746  1
  H+  H184  1  0.01674114  0.62526415  0.33179391  1
  H+  H185  1  0.10186684  0.91816819  0.40573725  1
  H+  H186  1  0.65685699  0.76101092  0.32836507  1
  H+  H187  1  0.31876570  0.42314012  0.08005467  1
  H+  H188  1  0.41253729  0.33404200  1.08961496  1
  H+  H189  1  0.10316649  0.46814745  0.16349709  1
  H+  H190  1  0.89288958  0.27670193  0.84763316  1
  H+  H191  1  0.02271286  0.39660924  0.49407180  1
  H+  H192  1  -0.03175678  0.35359700  0.16645357  1
  H+  H193  1  0.13960727  0.86317220  0.32915604  1
  H+  H194  1  0.12612301  0.07503609  0.81669016  1
  H+  H195  1  0.71516660  0.34798163  0.67367418  1
  H+  H196  1  0.58528874  0.70813954  0.64277821  1
  H+  H197  1  0.62044044  0.64848033  1.00579474  1
  H+  H198  1  0.10837316  0.97106693  0.49419914  1
  H+  H199  1  0.38453682  0.84586207  0.50065692  1
  H+  H200  1  0.13918328  0.19498272  0.02974713  1
  H+  H201  1  0.47283396  0.11476418  0.17001034  1
  H+  H202  1  0.37337252  0.75455535  0.50778755  1
  H+  H203  1  0.38300272  0.52398978  0.14884941  1
  H+  H204  1  0.58762560  0.08090441  0.64128577  1
  H+  H205  1  0.67003848  0.08813061  0.93110183  1
  H+  H206  1  0.46344543  0.59614374  0.60392020  1
  H+  H207  1  0.38684729  0.76570629  0.16872527  1
  H+  H208  1  0.12921751  0.87459078  0.00471727  1
  H+  H209  1  0.72718764  0.85815263  0.84621485  1
  H+  H210  1  0.72452561  0.60798480  0.51505449  1
  H+  H211  1  0.46996310  0.60162352  0.35938643  1
  H+  H212  1  0.64640847  0.02693505  0.83709477  1
  H+  H213  1  0.72668795  0.36542170  0.85023139  1
  H+  H214  1  0.85947611  0.88650499  0.14105515  1
  H+  H215  1  0.67457624  0.81864994  0.45356797  1
  H+  H216  1  -0.02265648  0.84903760  0.85123691  1
  H+  H217  1  0.96104926  0.40747906  0.64101423  1
  H+  H218  1  0.71386093  0.84814208  0.65190263  1
  H+  H219  1  0.14179265  0.31055097  0.99779982  1
  H+  H220  1  0.28446459  0.91950995  0.67015012  1
  H+  H221  1  0.37281494  0.25292203  0.81960776  1
  H+  H222  1  0.36631859  0.63491233  0.83557857  1
  H+  H223  1  0.95241017  0.83621132  0.66581402  1
  H+  H224  1  0.97749032  0.11235088  0.32631363  1
  H+  H225  1  0.11601515  0.22426358  0.34518895  1
  H+  H226  1  0.65508331  0.62506615  0.17604091  1
  H+  H227  1  0.11924056  0.39570520  0.83559967  1
  H+  H228  1  0.47553417  0.61097091  0.14535644  1
  H+  H229  1  0.26548229  0.86546681  0.14956690  1
  H+  H230  1  0.62863273  0.25687083  0.67026661  1
  H+  H231  1  0.27133807  0.37152266  0.34227816  1
  H+  H232  1  0.13869302  0.49624521  0.67241406  1
  H+  H233  1  0.36524687  0.62399765  0.61880704  1
  H+  H234  1  0.86486114  0.96480293  0.81942719  1
  H+  H235  1  0.60761820  0.37011036  0.67592556  1
  H+  H236  1  0.87875317  0.10515055  0.84111194  1
  H+  H237  1  0.10390600  0.09322198  0.18954221  1
  H+  H238  1  0.72209438  0.36166727  -0.00399244  1
  H+  H239  1  0.60976392  0.62561745  0.50841188  1
  H+  H240  1  0.38158795  0.11267819  -0.00465307  1
  H+  H241  1  0.19640843  0.04125209  0.63723861  1
  H+  H242  1  0.91960676  1.02939322  0.49475354  1
  H+  H243  1  0.13392435  0.28323483  0.86339884  1
  H+  H244  1  0.13356307  0.61002470  0.16658114  1
  H+  H245  1  0.05600947  0.40334330  0.68201396  1
  H+  H246  1  0.61666112  0.72788691  0.16262382  1
  H+  H247  1  0.17441332  0.11695017  0.64019691  1
  H+  H248  1  0.47722010  0.41549994  0.63470622  1
  H+  H249  1  0.40829621  0.78480202  0.85193612  1
  H+  H250  1  0.85814320  0.63481668  0.49952734  1
  H+  H251  1  0.63266724  1.00965251  0.16808804  1
  H+  H252  1  0.36777222  0.90704492  0.67594738  1
  H+  H253  1  0.13969883  0.52500549  0.84205428  1
  H+  H254  1  0.11734825  0.23483865  0.17974075  1
  H+  H255  1  0.62442217  0.26386650  0.33367688  1
  H+  H256  1  0.88866340  0.78227954  0.35891436  1
  H+  H257  1  0.83057469  0.05454696  0.61682580  1
  H+  H258  1  0.61206914  0.38034348  0.49844441  1
  H+  H259  1  0.76240593  0.12328725  0.16247200  1
  H+  H260  1  0.52446480  0.38457342  0.82341884  1
  H+  H261  1  0.36090627  0.22318179  0.15232230  1
  H+  H262  1  0.38106065  0.85018168  0.32320419  1
  H+  H263  1  0.85607833  0.47330800  0.16956419  1
  H+  H264  1  0.98861195  0.86660786  0.99687069  1
  H+  H265  1  0.60738960  0.12766570  0.16367810  1
  H+  H266  1  1.01146722  0.38726984  1.01526632  1
  H+  H267  1  0.15464005  0.37855527  0.66558183  1
  H+  H268  1  0.72138072  0.16047309  0.68127686  1
  H+  H269  1  0.08717403  0.64573385  0.38266753  1
  H+  H270  1  0.91873572  0.07958253  0.58957416  1
  H+  H271  1  0.39145752  0.53777532  0.00140453  1
  H+  H272  1  0.91148910  0.82777989  0.19119223  1
  H+  H273  1  0.71904664  0.11429110  0.99578796  1
  H+  H274  1  0.77302910  0.89306981  -0.00211828  1
  H+  H275  1  0.13638971  0.86153126  0.16994267  1
  H+  H276  1  0.11950997  0.53661285  0.00625682  1
  H+  H277  1  0.26878302  0.38497326  0.82920990  1
  H+  H278  1  0.39109117  0.10980247  0.32805668  1
  H+  H279  1  0.91734303  0.08228280  0.26648470  1
  H+  H280  1  0.85762115  0.71513738  0.83227186  1
  H+  H281  1  0.67208597  0.84333144  0.90783792  1
  H+  H282  1  0.58940323  0.91710003  0.73716801  1
  H+  H283  1  0.39920780  0.09131200  0.47525927  1
  H+  H284  1  0.47903009  0.36204225  0.49784231  1
  H+  H285  1  0.10361219  0.14687330  0.89030444  1
  H+  H286  1  0.60408121  0.96281359  0.00954137  1
  H+  H287  1  0.78149676  0.13064707  0.51168058  1
  H+  H288  1  0.10891744  0.40662585  0.01010908  1
  H+  H289  1  0.33608535  0.17076369  0.39441439  1
  H+  H290  1  0.17760726  0.35596495  0.56727729  1
  H+  H291  1  0.82114075  0.41147201  0.74846625  1
  H+  H292  1  0.66131534  0.83508794  0.59135510  1
  H+  H293  1  0.17215454  0.32355787  0.26408414  1
  H+  H294  1  0.14033638  0.05929546  0.24158225  1
  H+  H295  1  0.31078306  0.88502190  0.08577224  1
  H+  H296  1  0.61458000  0.13313120  -0.00858262  1
  H+  H297  1  0.88687312  0.76702096  0.25854307  1
  H+  H298  1  0.42673853  0.62186102  0.25277503  1
  H+  H299  1  0.82743160  0.92599947  0.09195982  1
  H+  H300  1  0.96415736  0.13548528  0.95323124  1
  H+  H301  1  0.32040939  0.40653915  0.43246346  1
  H+  H302  1  0.09366826  0.90242449  0.06355307  1
  H+  H303  1  0.11411968  0.85882278  0.84737279  1
  H+  H304  1  0.48691333  0.35339015  0.93890882  1
  H+  H305  1  0.58112893  0.90599054  0.09197603  1
  H+  H306  1  0.33255121  0.42582543  0.74326874  1
  H+  H307  1  0.10522419  0.65208810  0.01591801  1
  H+  H308  1  0.92310259  0.83901831  0.93340281  1
  H+  H309  1  0.17438838  0.58853938  0.59429503  1
  H+  H310  1  0.11471340  0.48609781  0.49136061  1
  H+  H311  1  0.27298149  0.64053011  0.44368714  1
  H+  H312  1  0.10647625  0.09867238  0.02048487  1
  H+  H313  1  0.06580682  0.69897088  0.45611253  1
  H+  H314  1  0.65454256  0.31427217  0.57143187  1
  H+  H315  1  0.89439117  0.86196395  0.50349876  1
  H+  H316  1  0.85499071  0.47637146  -0.00988510  1
  H+  H317  1  0.60638741  0.88002015  0.67464926  1
  H+  H318  1  0.05333782  0.86789071  0.75523775  1
  H+  H319  1  0.51264343  0.33979464  0.69198588  1
  H+  H320  1  0.66433696  0.58606874  0.93552305  1
  H+  H321  1  0.57945210  0.17361468  0.77678881  1
  H+  H322  1  0.35122578  0.23840199  0.48504719  1
  H+  H323  1  0.32435756  0.67213932  0.05741187  1
  H+  H324  1  0.08712845  0.16646320  0.12216991  1
  H+  H325  1  0.43553832  0.84699022  0.90813662  1
  H+  H326  1  0.93533028  0.79477245  0.26001070  1
  H+  H327  1  0.66085842  0.57016346  0.57275922  1
  H+  H328  1  0.38329691  0.77963629  -0.00640306  1
  H+  H329  1  0.33434721  0.90793458  0.39424663  1
  H+  H330  1  0.46877320  0.38328786  0.93809097  1
  H+  H331  1  0.16720881  0.57787958  0.22260545  1
  H+  H332  1  0.37978766  0.66115840  0.68435060  1
  H+  H333  1  0.46815197  0.62116724  0.25428827  1
  H+  H334  1  0.81665831  0.39166514  0.38655836  1
  H+  H335  1  0.67463756  0.82344075  0.27128033  1
  H+  H336  1  0.41397411  0.08691844  0.90432335  1
  H+  H337  1  0.32488016  0.93280214  0.76282816  1
  H+  H338  1  0.65671250  0.33240268  0.94037630  1
  H+  H339  1  0.34149889  0.68139587  0.78277960  1
  H+  H340  1  0.51748010  0.07889106  0.71641817  1
  H+  H341  1  0.19587490  0.83314354  0.91655213  1
  H+  H342  1  0.58500940  0.15845755  0.39598304  1
  H+  H343  1  0.41251009  0.08694443  0.22762823  1
  H+  H344  1  0.05070191  0.12639282  0.75909706  1
  H+  H345  1  0.08680367  0.41367177  0.40475981  1
  H+  H346  1  0.91006873  0.32674043  0.94593799  1
  H+  H347  1  0.83030851  0.89925317  0.76401118  1
  H+  H348  1  0.90840822  0.82105401  0.59904275  1
  H+  H349  1  0.90479614  0.33094772  0.24753113  1
  H+  H350  1  0.37267706  0.41915823  0.67305092  1
  H+  H351  1  0.87366228  0.04441164  0.89475150  1
  H+  H352  1  0.07371872  0.40869576  0.10646537  1
  H+  H353  1  0.16601695  0.08220134  0.55075367  1
  H+  H354  1  0.64794514  0.06548103  0.55486402  1
  H+  H355  1  0.91896102  0.58676553  0.23092862  1
  H+  H356  1  0.94728586  0.60397330  0.92749959  1
  H+  H357  1  0.18353716  0.87646408  0.60102201  1
  H+  H358  1  0.40644079  0.35315685  0.54347879  1
  H+  H359  1  0.85225040  0.38263237  0.16576749  1
  H+  H360  1  0.41099254  0.09336371  0.58550621  1
  H+  H361  1  0.18008646  0.36153661  0.90689270  1
  H+  H362  1  0.59732085  0.65669003  0.41169041  1
  H+  H363  1  0.63904816  0.01593307  0.49468519  1
  H+  H364  1  0.37611227  0.21754583  0.71891594  1
  H+  H365  1  0.36454008  0.13648660  0.15515631  1
  H+  H366  1  0.88021461  0.52069038  0.67770283  1
  H+  H367  1  0.82321487  0.66120601  0.77113105  1
  H+  H368  1  0.60170540  0.43169951  0.11436570  1
  H+  H369  1  0.14820153  0.05352521  0.93679165  1
  H+  H370  1  0.20981881  0.62075400  0.99653011  1
  H+  H371  1  0.37599544  0.02109547  0.98848293  1
  H+  H372  1  0.97951686  0.36794071  0.84838623  1
  H+  H373  1  0.15664076  0.63526561  0.49752162  1
  H+  H374  1  0.41923467  0.58744655  0.93777526  1
  H+  H375  1  0.61856908  0.47410645  0.49700488  1
  H+  H376  1  0.90800028  0.34113590  0.55711598  1
  H+  H377  1  0.07183808  0.16600527  0.40450361  1
  H+  H378  1  0.09670264  0.43015329  0.77534457  1
  H+  H379  1  0.60900431  0.21684626  0.16648605  1
  H+  H380  1  0.58878849  0.41610539  0.76906708  1
  H+  H381  1  0.08181844  0.17225737  0.76793521  1
  H+  H382  1  0.09245326  0.66395340  0.73964297  1
  H+  H383  1  0.66299808  0.06728741  0.22960047  1
  O2-  O384  1  0.07900614  0.16992536  0.16587512  1
  O2-  O385  1  0.03841633  0.14065214  0.50151824  1
  O2-  O386  1  0.06995941  0.17603178  0.88959258  1
  O2-  O387  1  0.07198423  0.40597760  0.15192057  1
  O2-  O388  1  0.08368788  0.42418581  0.48025386  1
  O2-  O389  1  0.08959415  0.42707394  0.82021473  1
  O2-  O390  1  0.08040310  0.66280345  0.14968092  1
  O2-  O391  1  0.08284158  0.67905337  0.49188380  1
  O2-  O392  1  0.09991627  0.67122415  0.82555384  1
  O2-  O393  1  0.08578636  0.91196248  0.13609578  1
  O2-  O394  1  0.08681770  0.90942801  0.48395960  1
  O2-  O395  1  0.08052377  0.88628244  0.83136646  1
  O2-  O396  1  0.33334888  0.16485460  0.13550015  1
  O2-  O397  1  0.31217001  0.17570594  0.47208133  1
  O2-  O398  1  0.32207702  0.13758977  0.80345369  1
  O2-  O399  1  0.31608918  0.41071797  0.15188325  1
  O2-  O400  1  0.31660235  0.41619737  0.47854486  1
  O2-  O401  1  0.32781387  0.41240612  0.81044346  1
  O2-  O402  1  0.32868964  0.66809264  0.13292451  1
  O2-  O403  1  0.27127499  0.64503415  0.48935966  1
  O2-  O404  1  0.33344322  0.66647778  0.82571664  1
  O2-  O405  1  0.32080454  0.88205030  0.12926530  1
  O2-  O406  1  0.33529910  0.90308128  0.47304942  1
  O2-  O407  1  0.30846861  0.92684075  0.80639243  1
  O2-  O408  1  0.57726137  0.15797934  0.14970333  1
  O2-  O409  1  0.58333743  0.15142165  0.47512355  1
  O2-  O410  1  0.58475639  0.17114045  0.82119776  1
  O2-  O411  1  0.59392610  0.42711926  0.15931449  1
  O2-  O412  1  0.58713270  0.41381956  0.48007329  1
  O2-  O413  1  0.58636946  0.41750331  0.81431851  1
  O2-  O414  1  0.59232989  0.66822217  0.14628500  1
  O2-  O415  1  0.57563624  0.65241975  0.49343378  1
  O2-  O416  1  0.57269538  0.66812419  0.82193029  1
  O2-  O417  1  0.58317001  0.90932382  0.13950007  1
  O2-  O418  1  0.58014328  0.90964070  0.47606775  1
  O2-  O419  1  0.59696733  0.92694016  0.81530842  1
  O2-  O420  1  0.82353009  0.15748691  0.14614539  1
  O2-  O421  1  0.84415810  0.16792339  0.52037064  1
  O2-  O422  1  0.84418404  0.17086087  0.81892575  1
  O2-  O423  1  0.81741802  0.41100859  0.16301481  1
  O2-  O424  1  0.80330281  0.37827599  0.46690768  1
  O2-  O425  1  0.83454458  0.41659002  0.82708458  1
  O2-  O426  1  0.83752514  0.66228726  0.13308131  1
  O2-  O427  1  0.82567139  0.66309923  0.48793337  1
  O2-  O428  1  0.82443794  0.65632424  0.81608987  1
  O2-  O429  1  0.83212537  0.92274262  0.13665837  1
  O2-  O430  1  0.85359725  0.93166620  0.47627900  1
  O2-  O431  1  0.83785239  0.90311486  0.80911494  1
  O2-  O432  1  0.11270487  0.04474801  0.20123280  1
  O2-  O433  1  0.14409685  0.07686986  0.50798037  1
  O2-  O434  1  0.15771523  0.06924122  0.85083702  1
  O2-  O435  1  0.16924174  0.32419830  0.20113788  1
  O2-  O436  1  0.17029507  0.34746697  0.52272032  1
  O2-  O437  1  0.17171662  0.34688101  0.86219933  1
  O2-  O438  1  0.16348887  0.57711119  0.17761038  1
  O2-  O439  1  0.18006858  0.59711319  0.50803147  1
  O2-  O440  1  0.17205628  0.58784770  0.85479941  1
  O2-  O441  1  0.16463059  0.82981028  0.18587464  1
  O2-  O442  1  0.18096589  0.84756898  0.52934112  1
  O2-  O443  1  0.17496559  0.81741185  0.86768127  1
  O2-  O444  1  0.41180234  0.09152917  0.18315719  1
  O2-  O445  1  0.42337365  0.07355196  0.50803110  1
  O2-  O446  1  0.41678520  0.08988501  0.85842348  1
  O2-  O447  1  0.42499065  0.34169255  0.18317282  1
  O2-  O448  1  0.41609474  0.33132985  0.50522514  1
  O2-  O449  1  0.40261640  0.31407576  0.83195680  1
  O2-  O450  1  0.41352223  0.58481363  0.13597650  1
  O2-  O451  1  0.40875175  0.57242352  0.52128172  1
  O2-  O452  1  0.41522255  0.58636537  0.85680928  1
  O2-  O453  1  0.41658853  0.82495827  0.18634915  1
  O2-  O454  1  0.41402473  0.81533312  0.51594487  1
  O2-  O455  1  0.44318692  0.84548141  0.86288830  1
  O2-  O456  1  0.66414423  0.07031000  0.18423818  1
  O2-  O457  1  0.66958392  0.07592845  0.51158632  1
  O2-  O458  1  0.67912725  0.08944962  0.85103484  1
  O2-  O459  1  0.65620923  0.32747313  0.19431341  1
  O2-  O460  1  0.64927958  0.31290600  0.52639481  1
  O2-  O461  1  0.66448500  0.33369074  0.86080069  1
  O2-  O462  1  0.69064490  0.60071213  0.19166033  1
  O2-  O463  1  0.66231098  0.57275031  0.52723846  1
  O2-  O464  1  0.66297671  0.58767583  0.85764656  1
  O2-  O465  1  0.66550963  0.83341048  0.18886294  1
  O2-  O466  1  0.66923435  0.83569956  0.49478622  1
  O2-  O467  1  0.66854229  0.83740943  0.86162117  1
  O2-  O468  1  0.91304127  0.08406858  0.18925898  1
  O2-  O469  1  0.94618952  0.08837886  0.51610782  1
  O2-  O470  1  0.90296553  0.06835698  0.85621097  1
  O2-  O471  1  0.90587341  0.32435335  0.17927633  1
  O2-  O472  1  0.91163175  0.33426250  0.51280495  1
  O2-  O473  1  0.91930444  0.33663935  0.86330409  1
  O2-  O474  1  0.91886683  0.58596969  0.18606931  1
  O2-  O475  1  0.92901140  0.59107770  0.54380391  1
  O2-  O476  1  1.00991804  0.62472030  0.84818127  1
  O2-  O477  1  0.91078629  0.82720250  0.14674620  1
  O2-  O478  1  0.91967125  0.82884243  0.52149731  1
  O2-  O479  1  0.91715278  0.82699542  0.86613235  1
  O2-  O480  1  0.17512169  0.08608715  0.32162124  1
  O2-  O481  1  0.20948959  0.09646816  0.61970748  1
  O2-  O482  1  0.15351809  0.05438813  0.98116796  1
  O2-  O483  1  0.17540084  0.32186438  0.31432065  1
  O2-  O484  1  0.18935861  0.35494506  0.64693804  1
  O2-  O485  1  0.17860676  0.36821198  0.98204294  1
  O2-  O486  1  0.16424237  0.56831738  0.30289632  1
  O2-  O487  1  0.17738716  0.58734681  0.63925481  1
  O2-  O488  1  0.14746521  0.59483676  0.98853924  1
  O2-  O489  1  0.16936447  0.83368282  0.31094314  1
  O2-  O490  1  0.18723626  0.89938310  0.64333688  1
  O2-  O491  1  0.20949995  0.85412575  0.97562713  1
  O2-  O492  1  0.42310193  0.08118463  0.31384182  1
  O2-  O493  1  0.40586072  0.10028102  0.62995560  1
  O2-  O494  1  0.41272726  0.08298455  0.97854340  1
  O2-  O495  1  0.42399417  0.33406514  0.31480026  1
  O2-  O496  1  0.41471627  0.38042160  0.63083175  1
  O2-  O497  1  0.41623610  0.33783452  1.04513130  1
  O2-  O498  1  0.40951816  0.56770484  0.37095620  1
  O2-  O499  1  0.40171502  0.56267753  0.58746094  1
  O2-  O500  1  0.42213180  0.59547819  0.98258726  1
  O2-  O501  1  0.40778923  0.81515482  0.31180180  1
  O2-  O502  1  0.40559649  0.83980424  0.67482798  1
  O2-  O503  1  0.41518768  0.84202488  0.98254963  1
  O2-  O504  1  0.66867177  0.07743354  0.30841135  1
  O2-  O505  1  0.59419856  0.03833175  0.61786448  1
  O2-  O506  1  0.66135015  0.09010067  0.97575445  1
  O2-  O507  1  0.64869122  0.32650117  0.32136747  1
  O2-  O508  1  0.65728965  0.31540512  0.65365569  1
  O2-  O509  1  0.65703352  0.32714066  0.98544083  1
  O2-  O510  1  0.75526526  0.62356234  0.38569164  1
  O2-  O511  1  0.65100487  0.56839669  0.64928978  1
  O2-  O512  1  0.66864403  0.59159940  0.98081606  1
  O2-  O513  1  0.68458008  0.82176125  0.31546899  1
  O2-  O514  1  0.65463224  0.82438067  0.63521606  1
  O2-  O515  1  0.67629774  0.85214599  0.98161605  1
  O2-  O516  1  0.91682665  0.08279223  0.31211364  1
  O2-  O517  1  0.88883299  0.07126993  0.62994522  1
  O2-  O518  1  0.93526261  0.10368025  0.99016243  1
  O2-  O519  1  0.90907675  0.34040065  0.29435740  1
  O2-  O520  1  0.90733495  0.35295930  0.63934280  1
  O2-  O521  1  0.90780174  0.32816649  0.99084255  1
  O2-  O522  1  0.91296065  0.57792753  0.31552727  1
  O2-  O523  1  0.91396351  0.58065889  0.66241292  1
  O2-  O524  1  0.92042012  0.58384233  0.96731365  1
  O2-  O525  1  0.92826899  0.84323511  0.36773170  1
  O2-  O526  1  0.89691944  0.81503862  0.64403840  1
  O2-  O527  1  0.92913446  0.84925152  0.98044474  1
  O2-  O528  1  0.08911714  0.13940338  0.03846500  1
  O2-  O529  1  0.08110561  0.16328155  0.36085294  1
  O2-  O530  1  0.10876137  0.18083065  0.63289765  1
  O2-  O531  1  0.07144510  0.42435313  0.03059301  1
  O2-  O532  1  0.08404833  0.40478111  0.35943594  1
  O2-  O533  1  0.11532611  0.43871508  0.69495324  1
  O2-  O534  1  0.07267811  0.67861161  0.03418476  1
  O2-  O535  1  0.08071252  0.65426633  0.33973190  1
  O2-  O536  1  0.07875434  0.65715661  0.69581832  1
  O2-  O537  1  0.08933707  0.89603739  0.01761727  1
  O2-  O538  1  0.09801595  0.92007563  0.36056140  1
  O2-  O539  1  0.04316459  0.86355268  0.71038464  1
  O2-  O540  1  0.33038590  0.16152982  0.01922593  1
  O2-  O541  1  0.34136590  0.16899167  0.34956268  1
  O2-  O542  1  0.40783511  0.23969892  0.68093378  1
  O2-  O543  1  0.32581747  0.42635475  0.03375506  1
  O2-  O544  1  0.32971849  0.39985714  0.36343830  1
  O2-  O545  1  0.33539590  0.43778471  0.69664447  1
  O2-  O546  1  0.32361481  0.67227854  0.01159099  1
  O2-  O547  1  0.31515197  0.65633904  0.36835107  1
  O2-  O548  1  0.34786007  0.65642973  0.64748653  1
  O2-  O549  1  0.30056384  0.90518358  -0.00371903  1
  O2-  O550  1  0.33626182  0.91259412  0.34897443  1
  O2-  O551  1  0.34541915  0.94762038  0.68434910  1
  O2-  O552  1  0.58058854  0.16483772  0.00495164  1
  O2-  O553  1  0.58619704  0.16481629  0.35093329  1
  O2-  O554  1  0.54270230  0.13484406  0.69621451  1
  O2-  O555  1  0.59740398  0.43062059  0.03463700  1
  O2-  O556  1  0.57320876  0.40067861  0.36268470  1
  O2-  O557  1  0.56998749  0.39236540  0.69163483  1
  O2-  O558  1  0.59406575  0.68179003  0.02225987  1
  O2-  O559  1  0.61131077  0.65550332  0.36832741  1
  O2-  O560  1  0.54792383  0.64498943  0.64479940  1
  O2-  O561  1  0.57921044  0.90282239  0.02191645  1
  O2-  O562  1  0.57253014  0.91689555  0.36064629  1
  O2-  O563  1  0.57986415  0.91207047  0.69207358  1
  O2-  O564  1  0.81859263  0.16023132  0.02743057  1
  O2-  O565  1  0.83452784  0.17034456  0.34550251  1
  O2-  O566  1  0.88739353  0.20718962  0.68955324  1
  O2-  O567  1  0.81820235  0.41694969  0.00561227  1
  O2-  O568  1  0.81828993  0.40592081  0.34286259  1
  O2-  O569  1  0.81456313  0.41134447  0.70328451  1
  O2-  O570  1  0.84039775  0.66002589  0.00825526  1
  O2-  O571  1  0.82140092  0.66330046  0.33735799  1
  O2-  O572  1  0.81455566  0.65355205  0.69030991  1
  O2-  O573  1  0.83771009  0.92057654  0.00983333  1
  O2-  O574  1  0.83627974  0.92433465  0.36018104  1
  O2-  O575  1  0.81924484  0.89916274  0.68370974  1
