# generated using pymatgen
data_H2O
_symmetry_space_group_name_H-M   'P 1'
_cell_length_a   17.99298648
_cell_length_b   17.98888821
_cell_length_c   22.01413701
_cell_angle_alpha   90.00436519
_cell_angle_beta   89.99312038
_cell_angle_gamma   119.97878911
_symmetry_Int_Tables_number   1
_chemical_formula_structural   H2O
_chemical_formula_sum   'H384 O192'
_cell_volume   6172.09574538
_cell_formula_units_Z   192
loop_
 _symmetry_equiv_pos_site_id
 _symmetry_equiv_pos_as_xyz
  1  'x, y, z'
loop_
 _atom_type_symbol
 _atom_type_oxidation_number
  H+  1.0
  O2-  -2.0
loop_
 _atom_site_type_symbol
 _atom_site_label
 _atom_site_symmetry_multiplicity
 _atom_site_fract_x
 _atom_site_fract_y
 _atom_site_fract_z
 _atom_site_occupancy
  H+  H0  1  0.85067882  0.13404917  0.82307388  1
  H+  H1  1  0.63718286  0.86032207  0.17075124  1
  H+  H2  1  0.40586879  0.67463174  0.47438532  1
  H+  H3  1  0.77301844  0.39060667  0.83133676  1
  H+  H4  1  0.04578834  0.65502264  0.68169615  1
  H+  H5  1  0.10763896  0.48336096  0.67670518  1
  H+  H6  1  0.61860831  0.67704543  0.76756864  1
  H+  H7  1  0.72719574  0.36495970  0.99553235  1
  H+  H8  1  0.56560865  0.39936917  0.77698703  1
  H+  H9  1  0.61525172  0.72608474  1.00566318  1
  H+  H10  1  0.37730157  0.48960038  0.68766422  1
  H+  H11  1  0.87700597  0.01939105  0.15367129  1
  H+  H12  1  0.09787203  0.33530956  0.33800121  1
  H+  H13  1  0.56855740  0.27627027  0.30770912  1
  H+  H14  1  0.07882447  0.62646611  0.50819784  1
  H+  H15  1  0.86537231  0.50588122  0.49524394  1
  H+  H16  1  0.87857079  0.35441544  0.66234557  1
  H+  H17  1  0.51629983  0.88615257  0.83397096  1
  H+  H18  1  0.85717805  0.20932948  0.49245322  1
  H+  H19  1  0.09787590  0.22309227  0.83197536  1
  H+  H20  1  0.87411772  0.35275934  0.84276175  1
  H+  H21  1  0.39751880  0.36372455  0.64704960  1
  H+  H22  1  0.38730594  0.87031233  0.65854747  1
  H+  H23  1  0.98633833  0.60957980  0.99461791  1
  H+  H24  1  0.26752678  0.62089547  0.82394331  1
  H+  H25  1  0.89679323  0.52097210  0.99623511  1
  H+  H26  1  0.27515574  0.12055878  0.34633178  1
  H+  H27  1  0.60308954  0.86693984  0.32927227  1
  H+  H28  1  0.87513716  0.73394435  0.18882691  1
  H+  H29  1  0.89140992  0.72111013  0.67603507  1
  H+  H30  1  0.76754171  0.65817045  0.32170477  1
  H+  H31  1  0.61719976  0.38626829  1.00972208  1
  H+  H32  1  0.61536306  0.63643433  0.00396524  1
  H+  H33  1  0.84678543  0.61939019  0.47155836  1
  H+  H34  1  0.63128622  0.72426411  0.83220161  1
  H+  H35  1  0.76535167  0.63260090  0.47293876  1
  H+  H36  1  0.71472448  0.09440308  0.50570449  1
  H+  H37  1  0.63885890  0.38332832  0.51235188  1
  H+  H38  1  0.33524559  0.43086523  0.50032803  1
  H+  H39  1  0.86608216  0.46498666  0.67298857  1
  H+  H40  1  0.63552992  0.51576403  0.99594204  1
  H+  H41  1  0.22580231  0.10236356  0.50550748  1
  H+  H42  1  0.02232566  0.90021665  0.33938295  1
  H+  H43  1  0.61459906  0.50917173  0.17813175  1
  H+  H44  1  0.52145554  0.10806236  0.33134135  1
  H+  H45  1  0.35074333  0.70933187  1.00282566  1
  H+  H46  1  0.66683861  0.33232176  0.93576004  1
  H+  H47  1  0.26602669  0.61522010  1.00180469  1
  H+  H48  1  0.61198938  0.95822243  0.32527181  1
  H+  H49  1  0.86581942  0.62825743  -0.03224058  1
  H+  H50  1  0.10574430  0.96989298  0.49543945  1
  H+  H51  1  0.82999717  0.67575052  0.37625495  1
  H+  H52  1  0.52705086  0.38387931  0.01060219  1
  H+  H53  1  0.62017767  0.61608750  0.32172950  1
  H+  H54  1  0.13844975  0.62823781  0.66609049  1
  H+  H55  1  0.84846698  0.03848094  0.33961597  1
  H+  H56  1  0.62776062  0.61824399  0.66150555  1
  H+  H57  1  0.85399968  0.72906679  0.67944114  1
  H+  H58  1  0.40976785  0.57340071  0.89657661  1
  H+  H59  1  0.36216823  0.34082948  0.32637739  1
  H+  H60  1  0.87775557  0.85555715  0.83170541  1
  H+  H61  1  0.48008364  0.35633966  0.65988809  1
  H+  H62  1  0.89265309  0.87627937  0.16730604  1
  H+  H63  1  0.85743320  0.88493406  0.00584064  1
  H+  H64  1  0.88722841  0.73496244  0.82799355  1
  H+  H65  1  0.20829825  0.35106385  0.84903063  1
  H+  H66  1  0.39080166  0.26887179  0.99863702  1
  H+  H67  1  0.97674498  0.10984145  1.00158281  1
  H+  H68  1  0.86759359  0.08523247  0.51201858  1
  H+  H69  1  0.71481697  0.10906864  0.82957136  1
  H+  H70  1  0.33692855  0.14836811  0.43480560  1
  H+  H71  1  0.12072296  0.62979358  0.35462167  1
  H+  H72  1  0.51732000  0.13927063  0.67438823  1
  H+  H73  1  0.14053869  0.59982871  0.83376991  1
  H+  H74  1  0.14031354  0.78137419  -0.00310756  1
  H+  H75  1  0.85114944  0.37680739  0.01279682  1
  H+  H76  1  0.84259269  0.86461704  0.47697169  1
  H+  H77  1  0.61875361  0.95662437  0.50730054  1
  H+  H78  1  0.97401980  0.35620669  0.18505933  1
  H+  H79  1  0.61181724  0.60150081  0.17359286  1
  H+  H80  1  0.91710138  0.82862419  0.63870650  1
  H+  H81  1  0.82261764  0.16120429  0.76080035  1
  H+  H82  1  0.72268677  0.09724716  0.99414507  1
  H+  H83  1  0.86022904  0.99435564  0.68200803  1
  H+  H84  1  0.75186198  0.79299404  0.79367008  1
  H+  H85  1  0.11187824  1.01747007  0.81703002  1
  H+  H86  1  0.11684110  0.47533684  0.17426041  1
  H+  H87  1  0.86164024  0.47083558  0.16689275  1
  H+  H88  1  0.86811046  0.47475534  0.82946883  1
  H+  H89  1  0.96650136  0.11207678  0.84226688  1
  H+  H90  1  0.40694618  0.82842663  0.49497687  1
  H+  H91  1  0.41944476  0.83283796  0.22157004  1
  H+  H92  1  0.31399949  0.66054615  0.49050537  1
  H+  H93  1  0.12133195  0.57305071  0.98500352  1
  H+  H94  1  0.05975989  0.40961068  0.08148892  1
  H+  H95  1  1.02100164  0.66323490  0.32172884  1
  H+  H96  1  0.62151283  0.08561215  0.50320429  1
  H+  H97  1  0.38740764  0.86079651  0.16168187  1
  H+  H98  1  0.72275264  0.86681040  0.99616140  1
  H+  H99  1  0.16381649  0.68546523  0.01885314  1
  H+  H100  1  0.06943927  0.17615097  0.47455061  1
  H+  H101  1  0.63889342  0.77214991  0.16960698  1
  H+  H102  1  0.05357216  0.43450808  0.33484038  1
  H+  H103  1  0.35756603  0.96947404  0.15870518  1
  H+  H104  1  0.88925999  0.12162331  0.14513549  1
  H+  H105  1  0.39234979  0.39083339  0.48273469  1
  H+  H106  1  0.87605769  0.02647528  0.84613115  1
  H+  H107  1  0.08463905  0.44437036  0.01402692  1
  H+  H108  1  0.76160452  0.09942269  0.33305920  1
  H+  H109  1  0.38989998  0.78465395  0.30916721  1
  H+  H110  1  0.73400133  0.11126955  0.15731959  1
  H+  H111  1  0.95053101  0.59999018  0.49534761  1
  H+  H112  1  0.13532772  0.12813350  0.84055891  1
  H+  H113  1  0.01855462  0.13795463  0.67426859  1
  H+  H114  1  0.59301374  0.71133444  0.45992616  1
  H+  H115  1  0.97813833  0.54564843  0.61858853  1
  H+  H116  1  0.37090947  0.47248308  -0.00386384  1
  H+  H117  1  0.10038816  0.19964638  0.34010335  1
  H+  H118  1  0.81587494  0.42054711  0.34451896  1
  H+  H119  1  0.09173579  0.66636243  0.06801759  1
  H+  H120  1  0.80870382  0.88476679  0.76056426  1
  H+  H121  1  0.47056045  0.35897386  0.17371502  1
  H+  H122  1  0.83996916  0.30825356  0.32947484  1
  H+  H123  1  0.39341784  0.36023114  0.99636877  1
  H+  H124  1  0.62260174  0.85923800  0.84484830  1
  H+  H125  1  0.11490860  0.85335088  0.83195886  1
  H+  H126  1  0.52864490  0.39718308  0.48548894  1
  H+  H127  1  0.15305336  1.03408703  0.66320005  1
  H+  H128  1  0.26756886  0.87957441  0.15708631  1
  H+  H129  1  0.58933022  0.47108971  0.70274023  1
  H+  H130  1  0.61347246  0.19130215  0.33427937  1
  H+  H131  1  0.63325096  1.01731494  0.66069590  1
  H+  H132  1  0.13727355  0.86000779  0.16845976  1
  H+  H133  1  1.01619650  0.62816810  0.15251850  1
  H+  H134  1  0.15461714  0.73001280  0.35590759  1
  H+  H135  1  0.52421683  0.88541185  0.15895469  1
  H+  H136  1  0.77133095  0.89085690  0.15661766  1
  H+  H137  1  1.01633687  0.88008772  0.48737446  1
  H+  H138  1  0.38646167  0.10805006  0.17033161  1
  H+  H139  1  0.35962060  0.24473196  0.67787093  1
  H+  H140  1  0.88118651  0.80391292  0.32010688  1
  H+  H141  1  0.62188403  0.14880348  0.00382477  1
  H+  H142  1  -0.02158818  0.11132128  0.15817002  1
  H+  H143  1  0.91261581  0.61655272  0.84163443  1
  H+  H144  1  0.88706496  0.54111387  0.37395121  1
  H+  H145  1  0.18831737  0.63638670  0.48647681  1
  H+  H146  1  0.64376393  0.57745218  0.24673225  1
  H+  H147  1  0.72969002  0.58622968  0.70456125  1
  H+  H148  1  0.85181936  0.21985735  0.67001321  1
  H+  H149  1  0.67928074  0.07476345  0.25631943  1
  H+  H150  1  0.72346575  0.35441875  0.17550290  1
  H+  H151  1  0.48256778  0.86503845  0.30696895  1
  H+  H152  1  0.37393747  0.35412114  0.85293946  1
  H+  H153  1  0.72168060  0.86364377  0.67181893  1
  H+  H154  1  0.14723025  0.10275701  0.32296313  1
  H+  H155  1  0.60676222  0.88131700  0.00442648  1
  H+  H156  1  0.85999484  0.38090092  0.16590288  1
  H+  H157  1  0.87047234  0.26188076  0.83710076  1
  H+  H158  1  0.44212718  0.55991253  0.46167537  1
  H+  H159  1  0.37469652  0.99053821  0.82406167  1
  H+  H160  1  0.13102108  0.50579644  0.83682302  1
  H+  H161  1  0.22667603  0.35275433  0.99445496  1
  H+  H162  1  0.09204929  0.10313522  0.48848117  1
  H+  H163  1  0.64688021  0.82850958  0.53559335  1
  H+  H164  1  0.11438640  0.39835892  0.68193551  1
  H+  H165  1  0.11086884  0.22342266  0.68174571  1
  H+  H166  1  0.92099561  0.86719810  0.26492803  1
  H+  H167  1  0.26496307  0.91218515  0.50558194  1
  H+  H168  1  0.61304370  0.23162738  0.00718803  1
  H+  H169  1  0.51551466  0.63452938  0.33130332  1
  H+  H170  1  0.00661742  0.37286872  0.83095152  1
  H+  H171  1  0.85922255  0.91443447  0.33388087  1
  H+  H172  1  0.61684582  0.13274129  0.15419284  1
  H+  H173  1  0.13293777  0.11289383  0.66281799  1
  H+  H174  1  0.87663817  0.75344894  0.47505032  1
  H+  H175  1  0.51266268  0.11736425  0.48382578  1
  H+  H176  1  0.79610669  0.55773048  0.72012235  1
  H+  H177  1  0.52327572  0.64225327  0.68990704  1
  H+  H178  1  0.63118291  0.36085894  0.84727736  1
  H+  H179  1  0.33033255  0.91730889  0.06729498  1
  H+  H180  1  0.85244294  0.53573220  0.35200605  1
  H+  H181  1  0.37688022  0.61037265  0.32222189  1
  H+  H182  1  0.39746759  0.31344542  0.27059746  1
  H+  H183  1  0.38639819  0.60477092  0.99239954  1
  H+  H184  1  -0.03352639  0.35981319  0.50737934  1
  H+  H185  1  0.13534034  0.02315013  0.99226341  1
  H+  H186  1  0.84865412  0.36929563  0.49759595  1
  H+  H187  1  0.34816532  0.46682266  0.83965891  1
  H+  H188  1  0.25067802  0.37641119  0.34553203  1
  H+  H189  1  0.76268922  0.12809116  0.66853974  1
  H+  H190  1  0.15520637  0.32033130  0.94339434  1
  H+  H191  1  0.59290271  0.96263184  0.00210615  1
  H+  H192  1  0.41002552  0.43848671  0.72639194  1
  H+  H193  1  0.50550624  0.37157659  0.83750607  1
  H+  H194  1  0.09856612  0.38968476  0.48127064  1
  H+  H195  1  0.14227952  0.77254001  0.67379595  1
  H+  H196  1  0.47925841  0.12514551  0.83423303  1
  H+  H197  1  0.39466700  0.26236166  0.49714605  1
  H+  H198  1  0.08016899  0.66520182  0.44225340  1
  H+  H199  1  0.11511843  0.22623928  0.01487522  1
  H+  H200  1  0.60729196  0.49527208  0.84280825  1
  H+  H201  1  0.35094194  0.71381172  0.82651533  1
  H+  H202  1  0.11348154  0.13590691  1.01355111  1
  H+  H203  1  0.22511533  0.12370319  0.83844411  1
  H+  H204  1  0.38306764  0.77918820  0.65615212  1
  H+  H205  1  0.63498699  0.27467735  0.84133777  1
  H+  H206  1  0.71634453  0.36563445  0.51731083  1
  H+  H207  1  0.12775261  0.25564187  0.18021491  1
  H+  H208  1  0.17178837  0.31339670  0.46333399  1
  H+  H209  1  0.87272568  0.23097195  0.14860508  1
  H+  H210  1  0.08209995  0.81811148  0.81229191  1
  H+  H211  1  0.36455279  0.48678212  0.15322165  1
  H+  H212  1  0.51740672  0.88315116  0.67143194  1
  H+  H213  1  0.63980512  0.53311431  0.32459325  1
  H+  H214  1  0.46214621  0.84693047  0.99456079  1
  H+  H215  1  0.39550148  0.10660566  0.32971279  1
  H+  H216  1  0.63845273  0.60647050  0.83926295  1
  H+  H217  1  0.23311582  0.62252316  0.16783305  1
  H+  H218  1  0.17109138  0.74738201  0.84639177  1
  H+  H219  1  0.60420210  0.97509317  0.83028217  1
  H+  H220  1  0.61012569  0.38098499  0.16426360  1
  H+  H221  1  0.60306154  0.13642251  0.82769390  1
  H+  H222  1  0.93911448  0.57868902  0.89704398  1
  H+  H223  1  0.88099184  0.75719912  -0.01797993  1
  H+  H224  1  0.61360978  0.53377050  0.62687323  1
  H+  H225  1  0.13110533  0.77661651  0.51742827  1
  H+  H226  1  0.88294455  0.11959019  0.66128000  1
  H+  H227  1  0.11822477  0.88957888  -0.00111816  1
  H+  H228  1  -0.03866054  0.31415510  0.01807258  1
  H+  H229  1  0.61997434  0.40510821  0.67938451  1
  H+  H230  1  0.02581910  0.88249317  0.00360342  1
  H+  H231  1  0.36315186  0.13307960  0.00451201  1
  H+  H232  1  0.90846895  0.32264814  0.56678705  1
  H+  H233  1  0.38364452  0.86289251  0.83810457  1
  H+  H234  1  0.35727468  0.88284092  1.00886525  1
  H+  H235  1  0.37561075  0.61862591  0.67604049  1
  H+  H236  1  0.13448792  0.77078016  0.16647212  1
  H+  H237  1  0.82442027  0.94019364  0.49237153  1
  H+  H238  1  0.83514135  0.66627461  0.23980864  1
  H+  H239  1  0.22504738  0.11000808  0.17184638  1
  H+  H240  1  0.37715993  0.59837185  0.83667283  1
  H+  H241  1  0.61543917  0.73076028  0.68345206  1
  H+  H242  1  0.83583684  0.65816676  -0.09059930  1
  H+  H243  1  0.10730261  0.63058711  0.15391717  1
  H+  H244  1  0.11865185  0.35078012  0.84501508  1
  H+  H245  1  0.36023460  0.92999089  0.50014754  1
  H+  H246  1  1.05217754  0.90866122  0.66732052  1
  H+  H247  1  0.11618696  0.38587823  0.17443686  1
  H+  H248  1  0.47420240  0.10568544  0.16879081  1
  H+  H249  1  0.86502497  0.97933173  0.00457951  1
  H+  H250  1  0.87192940  0.91470754  0.67338556  1
  H+  H251  1  0.12635931  0.86193310  0.51592949  1
  H+  H252  1  0.30854504  0.79167799  0.87039492  1
  H+  H253  1  0.63497396  0.40659620  0.33768211  1
  H+  H254  1  0.72428433  0.60177439  0.97518112  1
  H+  H255  1  0.87745045  0.29835921  0.93259184  1
  H+  H256  1  0.90220703  0.80190085  1.04496853  1
  H+  H257  1  0.01588847  0.91891502  0.81362220  1
  H+  H258  1  0.47892275  0.61155045  0.99050770  1
  H+  H259  1  0.67714198  0.38643412  0.60373052  1
  H+  H260  1  0.27394749  0.13400338  0.00571660  1
  H+  H261  1  0.38047563  0.61598721  0.16789587  1
  H+  H262  1  -0.01722636  0.87678071  0.16940558  1
  H+  H263  1  0.63963737  0.09027318  0.31792862  1
  H+  H264  1  0.66015316  0.65297409  0.50385389  1
  H+  H265  1  0.36045119  0.22155811  0.15953764  1
  H+  H266  1  0.62906056  0.85592281  0.67201853  1
  H+  H267  1  0.70996262  0.85634354  0.84371275  1
  H+  H268  1  0.39092367  0.02537691  0.99126978  1
  H+  H269  1  0.10634365  0.12633571  0.16429385  1
  H+  H270  1  0.27449566  0.40322668  0.14171509  1
  H+  H271  1  0.36260891  0.13848843  0.82456992  1
  H+  H272  1  0.38368417  0.36185695  0.16937543  1
  H+  H273  1  0.97008388  0.34226956  0.34227316  1
  H+  H274  1  0.28197727  0.66370210  0.34267301  1
  H+  H275  1  0.72697570  0.33632141  0.34418640  1
  H+  H276  1  0.27733217  0.89300857  0.67315705  1
  H+  H277  1  0.73123480  0.39833894  0.66580542  1
  H+  H278  1  0.04428428  0.63306434  0.82066644  1
  H+  H279  1  0.72256011  0.86094994  0.32711654  1
  H+  H280  1  0.23891113  0.36886319  0.69077650  1
  H+  H281  1  0.89100398  0.61090059  0.18078772  1
  H+  H282  1  0.96923084  0.35818090  0.66119220  1
  H+  H283  1  0.26673150  0.63731712  0.67412739  1
  H+  H284  1  0.15111344  0.53607910  0.49593661  1
  H+  H285  1  0.29508075  0.89352176  0.82680688  1
  H+  H286  1  0.35993433  0.22665129  0.83365411  1
  H+  H287  1  0.35821116  0.21318865  0.34818662  1
  H+  H288  1  0.23078213  0.86921779  0.99590765  1
  H+  H289  1  0.19543174  0.80980251  0.90604826  1
  H+  H290  1  0.10603174  0.66935903  0.75963171  1
  H+  H291  1  0.38425158  0.03560539  0.64815141  1
  H+  H292  1  0.32763015  0.41187333  0.39471893  1
  H+  H293  1  0.64568012  1.02136805  0.16377749  1
  H+  H294  1  0.82814275  0.14314622  0.43654202  1
  H+  H295  1  0.83080002  0.41572562  0.07128569  1
  H+  H296  1  0.41895732  0.07907779  0.26645274  1
  H+  H297  1  0.80812672  0.66555667  0.07946278  1
  H+  H298  1  0.63467160  0.26380461  0.16870042  1
  H+  H299  1  0.35179560  0.69105298  0.39488825  1
  H+  H300  1  0.17026869  0.07661131  0.23300473  1
  H+  H301  1  0.65965658  0.83448194  0.93825952  1
  H+  H302  1  0.69206410  0.78321006  0.46675838  1
  H+  H303  1  0.41825534  0.86409987  0.56101190  1
  H+  H304  1  0.13155408  0.29463056  0.52783317  1
  H+  H305  1  0.64315206  0.56073792  0.90807276  1
  H+  H306  1  0.48362880  0.61935007  0.51700684  1
  H+  H307  1  0.42582659  0.32219826  0.55540742  1
  H+  H308  1  0.60806118  0.43850474  0.39788757  1
  H+  H309  1  0.57011697  0.12819465  0.42668264  1
  H+  H310  1  0.16698826  0.59237532  0.60576769  1
  H+  H311  1  0.34335357  0.41905579  0.05736093  1
  H+  H312  1  0.89989865  0.30758332  0.23531733  1
  H+  H313  1  0.40624913  0.58121801  0.22732485  1
  H+  H314  1  0.61008794  0.49369187  0.48959790  1
  H+  H315  1  0.36300155  0.73099242  0.15273971  1
  H+  H316  1  0.90893988  0.56072508  0.58829151  1
  H+  H317  1  0.16980786  0.08419219  0.56526660  1
  H+  H318  1  0.66008869  0.07308060  0.60023590  1
  H+  H319  1  0.94793605  0.07124143  0.50837498  1
  H+  H320  1  0.31444157  0.40070663  0.78443349  1
  H+  H321  1  0.67041000  0.09124478  0.89364196  1
  H+  H322  1  0.64301839  0.31044972  0.25729226  1
  H+  H323  1  0.81718932  0.64414447  0.79755778  1
  H+  H324  1  0.33288562  0.16231148  0.10025925  1
  H+  H325  1  0.68357407  0.61087424  0.55847222  1
  H+  H326  1  0.79621496  0.69823241  0.08955068  1
  H+  H327  1  0.32328800  0.18474254  0.74695899  1
  H+  H328  1  0.05637737  0.41445831  0.42940156  1
  H+  H329  1  0.08345098  0.16215302  0.10297133  1
  H+  H330  1  0.06199448  0.12135687  0.38541415  1
  H+  H331  1  0.90866245  0.07845494  0.60504533  1
  H+  H332  1  0.82719331  0.91903112  0.09423114  1
  H+  H333  1  0.16410706  0.08761225  0.93607314  1
  H+  H334  1  0.16208207  0.55657776  0.92675167  1
  H+  H335  1  0.08640435  0.94661323  0.75148968  1
  H+  H336  1  0.11701673  0.97766393  0.15757867  1
  H+  H337  1  0.14592863  0.01377682  0.32436489  1
  H+  H338  1  0.93074335  0.85825140  0.89120253  1
  H+  H339  1  0.13742332  0.31314167  0.28130926  1
  H+  H340  1  0.60194335  0.13246798  0.67738629  1
  H+  H341  1  0.80415238  0.38080798  0.43846997  1
  H+  H342  1  0.25725931  0.15351126  0.68022806  1
  H+  H343  1  0.58336324  0.41311137  0.10488860  1
  H+  H344  1  0.19425370  0.35375708  0.62866984  1
  H+  H345  1  0.58487483  0.16465787  0.09716456  1
  H+  H346  1  0.21685598  0.32242879  0.20931679  1
  H+  H347  1  0.58213348  0.91182926  0.10018301  1
  H+  H348  1  0.40358109  0.10183934  0.59467864  1
  H+  H349  1  0.32621614  0.66703288  0.73421470  1
  H+  H350  1  0.16396543  0.83421760  0.61326286  1
  H+  H351  1  0.17901652  0.62145943  0.22504262  1
  H+  H352  1  0.93821478  0.67153151  0.30962274  1
  H+  H353  1  0.91549768  0.08645234  0.94385023  1
  H+  H354  1  0.57711329  0.16781189  0.76667008  1
  H+  H355  1  0.66960646  0.82709823  0.26489306  1
  H+  H356  1  0.57144460  0.91031018  0.73339433  1
  H+  H357  1  0.08419434  0.91411886  0.39473970  1
  H+  H358  1  0.85537200  0.22673049  0.32795763  1
  H+  H359  1  0.42033245  0.09221088  0.89437390  1
  H+  H360  1  0.36982024  0.51738179  0.32204023  1
  H+  H361  1  0.51585491  0.63662299  0.15698602  1
  H+  H362  1  0.35264169  0.04917918  0.49772390  1
  H+  H363  1  0.95619899  0.90955719  0.59518363  1
  H+  H364  1  0.39765985  0.81916490  0.93743262  1
  H+  H365  1  0.13213704  0.89066549  0.67946601  1
  H+  H366  1  0.17856086  0.53087658  0.36956538  1
  H+  H367  1  0.41144601  0.32427494  0.90926945  1
  H+  H368  1  0.88630467  0.79121224  0.53909284  1
  H+  H369  1  0.41292120  0.58886276  0.62172094  1
  H+  H370  1  0.76075043  0.19084487  0.97073995  1
  H+  H371  1  0.83288892  0.41211837  0.73619508  1
  H+  H372  1  0.06538686  0.40559685  0.77056102  1
  H+  H373  1  0.60729343  0.72113409  0.33325584  1
  H+  H374  1  0.34494192  0.93083865  0.72709201  1
  H+  H375  1  0.86260260  0.19753804  0.08061589  1
  H+  H376  1  0.08826178  0.92021407  0.09701255  1
  H+  H377  1  0.81655925  0.92014477  0.39578500  1
  H+  H378  1  0.07048200  0.16232922  0.77181451  1
  H+  H379  1  0.47924682  0.11489174  0.99175405  1
  H+  H380  1  0.94396140  0.59534530  0.22823787  1
  H+  H381  1  0.18272984  0.53841094  0.29921304  1
  H+  H382  1  0.32723305  0.66259372  0.09622688  1
  H+  H383  1  0.57909294  0.66210943  0.09912141  1
  O2-  O384  1  0.07633600  0.15763546  0.14927911  1
  O2-  O385  1  0.04724873  0.11409924  0.47093248  1
  O2-  O386  1  0.06980847  0.16122330  0.81716784  1
  O2-  O387  1  0.08314254  0.41387936  0.16281943  1
  O2-  O388  1  0.07714422  0.42949155  0.47243748  1
  O2-  O389  1  0.06708125  0.40128538  0.81567010  1
  O2-  O390  1  0.07744981  0.65970010  0.13683035  1
  O2-  O391  1  0.06238785  0.66302045  0.48606565  1
  O2-  O392  1  0.10490862  0.66023110  0.80709241  1
  O2-  O393  1  0.08408259  0.91724932  0.14201107  1
  O2-  O394  1  0.07899314  0.90975169  0.48030397  1
  O2-  O395  1  0.06636188  0.96554040  0.79024854  1
  O2-  O396  1  0.33145731  0.16065619  0.14564312  1
  O2-  O397  1  0.33426410  0.15176710  0.48233668  1
  O2-  O398  1  0.32968219  0.16884228  0.81273916  1
  O2-  O399  1  0.33610849  0.42583748  0.13694859  1
  O2-  O400  1  0.37390402  0.43264221  0.46865753  1
  O2-  O401  1  0.31553079  0.40180344  0.82897758  1
  O2-  O402  1  0.32842438  0.66727291  0.14165394  1
  O2-  O403  1  0.36726616  0.69868579  0.46849082  1
  O2-  O404  1  0.32815974  0.65572893  0.80843484  1
  O2-  O405  1  0.32868843  0.91061058  0.14067481  1
  O2-  O406  1  0.32263238  0.95492892  0.49096173  1
  O2-  O407  1  0.35130009  0.93125504  0.80703274  1
  O2-  O408  1  0.58533116  0.16317980  0.14271106  1
  O2-  O409  1  0.57063953  0.13231368  0.47163796  1
  O2-  O410  1  0.57832781  0.17189284  0.81332369  1
  O2-  O411  1  0.57950874  0.41146164  0.15034433  1
  O2-  O412  1  0.58962828  0.43520782  0.47350430  1
  O2-  O413  1  0.56694225  0.40402928  0.82272248  1
  O2-  O414  1  0.57746667  0.66201203  0.14462983  1
  O2-  O415  1  0.64297964  0.73447337  0.48712508  1
  O2-  O416  1  0.64894923  0.68893011  0.80818551  1
  O2-  O417  1  0.58625006  0.91455820  0.14516254  1
  O2-  O418  1  0.60192485  0.89447514  0.50068474  1
  O2-  O419  1  0.57420629  0.91291646  0.81721068  1
  O2-  O420  1  0.84921387  0.17702846  0.12335838  1
  O2-  O421  1  0.82760465  0.14759367  0.48149997  1
  O2-  O422  1  0.81931177  0.16215149  0.80661519  1
  O2-  O423  1  0.82886288  0.41031854  0.15127065  1
  O2-  O424  1  0.81817418  0.39888062  0.48143172  1
  O2-  O425  1  0.83238656  0.41411108  0.81504875  1
  O2-  O426  1  0.84496921  0.67112889  0.19599288  1
  O2-  O427  1  0.82296257  0.65448245  0.45354671  1
  O2-  O428  1  0.85627876  0.67203066  0.83299397  1
  O2-  O429  1  0.83144720  0.92557638  0.13979637  1
  O2-  O430  1  0.80387466  0.88730721  0.46753993  1
  O2-  O431  1  0.79537040  0.85407785  0.80104654  1
  O2-  O432  1  0.16472513  0.07986830  0.18743124  1
  O2-  O433  1  0.16551546  0.07701444  0.52057566  1
  O2-  O434  1  0.16374046  0.09348894  0.85224475  1
  O2-  O435  1  0.16060605  0.31482844  0.19932748  1
  O2-  O436  1  0.11843336  0.29681718  0.48510870  1
  O2-  O437  1  0.14637632  0.31823868  0.86077445  1
  O2-  O438  1  0.17283663  0.59220038  0.18655118  1
  O2-  O439  1  0.18964618  0.59424836  0.51367651  1
  O2-  O440  1  0.16715486  0.56629882  0.85145959  1
  O2-  O441  1  0.16909757  0.83058400  0.18060704  1
  O2-  O442  1  0.15793878  0.83484555  0.53479087  1
  O2-  O443  1  0.21862377  0.79755216  0.86877035  1
  O2-  O444  1  0.41451727  0.07534154  0.18459092  1
  O2-  O445  1  0.38545799  0.11519195  0.50784525  1
  O2-  O446  1  0.41735097  0.09393461  0.84913462  1
  O2-  O447  1  0.40887332  0.32815649  0.18578446  1
  O2-  O448  1  0.42428324  0.32399224  0.51048160  1
  O2-  O449  1  0.40639004  0.32389748  0.86326370  1
  O2-  O450  1  0.41027512  0.58429328  0.18176394  1
  O2-  O451  1  0.46663791  0.61995798  0.47508725  1
  O2-  O452  1  0.40234939  0.56365040  0.85188257  1
  O2-  O453  1  0.41870786  0.83030417  0.17409755  1
  O2-  O454  1  0.41637785  0.87890016  0.51798637  1
  O2-  O455  1  0.37080552  0.81027712  0.86200292  1
  O2-  O456  1  0.67699781  0.08320170  0.17689185  1
  O2-  O457  1  0.65581250  0.06144049  0.52235539  1
  O2-  O458  1  0.65694221  0.07903720  0.84985889  1
  O2-  O459  1  0.66117621  0.32310475  0.18714712  1
  O2-  O460  1  0.66204017  0.35357830  0.53709244  1
  O2-  O461  1  0.66596437  0.33416023  0.85907659  1
  O2-  O462  1  0.63778354  0.56935507  0.19432638  1
  O2-  O463  1  0.67453425  0.60706169  0.51410109  1
  O2-  O464  1  0.64131593  0.55719562  0.86074808  1
  O2-  O465  1  0.67115769  0.83274880  0.18394600  1
  O2-  O466  1  0.65876730  0.88722483  0.54464687  1
  O2-  O467  1  0.65229324  0.82965177  0.86264649  1
  O2-  O468  1  0.91272129  0.08493200  0.16408272  1
  O2-  O469  1  0.89164502  0.05009641  0.52918819  1
  O2-  O470  1  0.90611276  0.08669797  0.85811424  1
  O2-  O471  1  0.91073638  0.32108573  0.19110760  1
  O2-  O472  1  0.90690177  0.32159906  0.52118749  1
  O2-  O473  1  0.90032416  0.31876819  0.85872636  1
  O2-  O474  1  0.92234246  0.57776688  0.18552150  1
  O2-  O475  1  0.88964761  0.56705252  0.50889795  1
  O2-  O476  1  0.93773171  0.57969529  0.85179066  1
  O2-  O477  1  0.92348756  0.85011400  0.18713471  1
  O2-  O478  1  0.90186093  0.81074124  0.49732838  1
  O2-  O479  1  0.92869236  0.85093401  0.84715675  1
  O2-  O480  1  0.18109081  0.07513147  0.30908204  1
  O2-  O481  1  0.17411129  0.09416373  0.64839540  1
  O2-  O482  1  0.16659875  0.08552389  0.98088979  1
  O2-  O483  1  0.13918430  0.31620213  0.32624747  1
  O2-  O484  1  0.18158067  0.34313604  0.67191688  1
  O2-  O485  1  0.16383261  0.32114561  0.98790718  1
  O2-  O486  1  0.15831469  0.55024265  0.33508678  1
  O2-  O487  1  0.16273094  0.58807320  0.65023760  1
  O2-  O488  1  0.16077240  0.55314837  0.97268918  1
  O2-  O489  1  0.23401342  0.82094525  0.32642112  1
  O2-  O490  1  0.16810672  0.83671324  0.65859721  1
  O2-  O491  1  0.17116443  0.83878016  0.97752960  1
  O2-  O492  1  0.42994846  0.08383507  0.31081576  1
  O2-  O493  1  0.41170576  0.09763466  0.63857863  1
  O2-  O494  1  0.41949055  0.08536458  0.97529326  1
  O2-  O495  1  0.39268160  0.30999882  0.31531639  1
  O2-  O496  1  0.42194151  0.32629914  0.63900310  1
  O2-  O497  1  0.42453594  0.32928988  0.98289461  1
  O2-  O498  1  0.40248858  0.57676122  0.30534570  1
  O2-  O499  1  0.41045296  0.58811721  0.66594813  1
  O2-  O500  1  0.41882111  0.57787049  0.97527640  1
  O2-  O501  1  0.42270172  0.84060948  0.28911346  1
  O2-  O502  1  0.41719992  0.83957736  0.64270809  1
  O2-  O503  1  0.40050387  0.81692392  0.98272134  1
  O2-  O504  1  0.67713462  0.06785502  0.30133568  1
  O2-  O505  1  0.66372917  0.07774379  0.64571484  1
  O2-  O506  1  0.70648860  0.13288983  0.97072576  1
  O2-  O507  1  0.63073221  0.30316355  0.30317003  1
  O2-  O508  1  0.68845097  0.41074272  0.64705719  1
  O2-  O509  1  0.66623197  0.33345444  0.98152296  1
  O2-  O510  1  0.65595713  0.59018439  0.30315431  1
  O2-  O511  1  0.65805524  0.58801618  0.64383232  1
  O2-  O512  1  0.66013400  0.57329774  0.97468146  1
  O2-  O513  1  0.66407925  0.82101816  0.30975993  1
  O2-  O514  1  0.65994174  0.82305776  0.66606212  1
  O2-  O515  1  0.66076267  0.83447732  0.98395353  1
  O2-  O516  1  0.87445655  0.10035472  0.32641428  1
  O2-  O517  1  0.91678681  0.09045897  0.64993507  1
  O2-  O518  1  0.91585102  0.07668535  0.98789990  1
  O2-  O519  1  0.87815299  0.28767844  0.31327898  1
  O2-  O520  1  0.90977410  0.32587888  0.64490442  1
  O2-  O521  1  0.85337028  0.28406810  0.97581601  1
  O2-  O522  1  0.97818653  0.65644936  0.29091314  1
  O2-  O523  1  0.93129859  0.55587868  0.62881837  1
  O2-  O524  1  0.92857631  0.57896163  0.97668347  1
  O2-  O525  1  0.91422786  0.86613981  0.31003831  1
  O2-  O526  1  0.95188149  0.89149542  0.63750832  1
  O2-  O527  1  0.90903807  0.81592695  1.00166135  1
  O2-  O528  1  0.08300781  0.16455333  0.03088629  1
  O2-  O529  1  0.08068972  0.13790664  0.34305447  1
  O2-  O530  1  0.07830160  0.16153157  0.69158528  1
  O2-  O531  1  0.03625899  0.40645341  0.04040383  1
  O2-  O532  1  0.03194439  0.38002993  0.35666276  1
  O2-  O533  1  0.07695571  0.42215686  0.69146104  1
  O2-  O534  1  0.10420412  0.67195513  0.02194030  1
  O2-  O535  1  0.10655320  0.67258418  0.36963977  1
  O2-  O536  1  0.10638004  0.68131390  0.69255298  1
  O2-  O537  1  0.08696864  0.91900912  0.01463362  1
  O2-  O538  1  0.08228791  0.91750651  0.35011316  1
  O2-  O539  1  0.10702327  0.93120574  0.68971110  1
  O2-  O540  1  0.33422712  0.16400539  0.02112403  1
  O2-  O541  1  0.33416096  0.15356854  0.36527493  1
  O2-  O542  1  0.31028915  0.19989005  0.70387338  1
  O2-  O543  1  0.34219267  0.41234303  0.01248925  1
  O2-  O544  1  0.31412271  0.40939244  0.35081355  1
  O2-  O545  1  0.36163632  0.42927543  0.70082598  1
  O2-  O546  1  0.32517793  0.64938414  0.01886492  1
  O2-  O547  1  0.34146222  0.67912317  0.34979128  1
  O2-  O548  1  0.32817213  0.66727773  0.68837349  1
  O2-  O549  1  0.33152956  0.91839498  0.02097673  1
  O2-  O550  1  0.28418845  0.87887590  0.36170646  1
  O2-  O551  1  0.34024713  0.92656996  0.68201049  1
  O2-  O552  1  0.58423848  0.16965759  0.02011428  1
  O2-  O553  1  0.58339030  0.13063752  0.34620305  1
  O2-  O554  1  0.57339970  0.16193357  0.69547006  1
  O2-  O555  1  0.58784257  0.41745548  0.02563191  1
  O2-  O556  1  0.61994747  0.44830778  0.35340999  1
  O2-  O557  1  0.56781824  0.40924564  0.70179537  1
  O2-  O558  1  0.58444463  0.66516351  0.01995537  1
  O2-  O559  1  0.57468670  0.65967252  0.34740695  1
  O2-  O560  1  0.58555323  0.66672680  0.69713704  1
  O2-  O561  1  0.56954210  0.90536488  0.01932305  1
  O2-  O562  1  0.57275004  0.89890518  0.33884891  1
  O2-  O563  1  0.57716113  0.91074624  0.68874941  1
  O2-  O564  1  0.90837099  0.25660944  0.00718951  1
  O2-  O565  1  0.82033275  0.12982069  0.35598106  1
  O2-  O566  1  0.82380756  0.15953504  0.68522315  1
  O2-  O567  1  0.83229656  0.41753157  0.02574902  1
  O2-  O568  1  0.78698045  0.36097607  0.35866584  1
  O2-  O569  1  0.82957721  0.40680407  0.69086952  1
  O2-  O570  1  0.83266919  0.65665927  -0.04514288  1
  O2-  O571  1  0.82942802  0.69042490  0.33262629  1
  O2-  O572  1  0.75973646  0.57718695  0.73893530  1
  O2-  O573  1  0.82816754  0.91650056  0.01844770  1
  O2-  O574  1  0.82010981  0.93386224  0.35129934  1
  O2-  O575  1  0.83411777  0.93187337  0.69373839  1
