# generated using pymatgen
data_H2O
_symmetry_space_group_name_H-M   'P 1'
_cell_length_a   17.97526524
_cell_length_b   17.97687942
_cell_length_c   22.00695961
_cell_angle_alpha   89.97338708
_cell_angle_beta   90.00614669
_cell_angle_gamma   119.98598072
_symmetry_Int_Tables_number   1
_chemical_formula_structural   H2O
_chemical_formula_sum   'H384 O192'
_cell_volume   6159.44489241
_cell_formula_units_Z   192
loop_
 _symmetry_equiv_pos_site_id
 _symmetry_equiv_pos_as_xyz
  1  'x, y, z'
loop_
 _atom_type_symbol
 _atom_type_oxidation_number
  H+  1.0
  O2-  -2.0
loop_
 _atom_site_type_symbol
 _atom_site_label
 _atom_site_symmetry_multiplicity
 _atom_site_fract_x
 _atom_site_fract_y
 _atom_site_fract_z
 _atom_site_occupancy
  H+  H0  1  0.77704216  0.40216296  0.66829660  1
  H+  H1  1  0.63710323  0.86333293  0.50776503  1
  H+  H2  1  0.84819382  0.64678673  0.48453989  1
  H+  H3  1  0.61236052  0.97474144  0.00627274  1
  H+  H4  1  0.67456865  0.34718931  0.59207230  1
  H+  H5  1  0.11285716  0.37584679  0.33978493  1
  H+  H6  1  0.37567877  0.23305581  0.66548573  1
  H+  H7  1  0.67406031  0.08741952  0.59664094  1
  H+  H8  1  0.11243544  -0.00531315  0.16638536  1
  H+  H9  1  0.64683224  0.37609989  -0.01056262  1
  H+  H10  1  0.98931958  0.37573709  0.97869942  1
  H+  H11  1  0.26249772  0.37817197  0.14057702  1
  H+  H12  1  0.99831988  0.63041330  0.51847361  1
  H+  H13  1  0.48051453  0.11744408  0.65496766  1
  H+  H14  1  0.25645833  0.91774990  -0.00381915  1
  H+  H15  1  0.37443559  1.01365775  0.16781730  1
  H+  H16  1  0.39676834  0.89827769  0.20079727  1
  H+  H17  1  0.46746389  0.86477659  0.66291308  1
  H+  H18  1  1.01754504  0.62563485  0.82923028  1
  H+  H19  1  0.12557474  0.14124951  0.66131271  1
  H+  H20  1  0.14095740  0.27854770  0.65348797  1
  H+  H21  1  0.12942830  0.74418566  0.99542842  1
  H+  H22  1  0.64724186  0.76348762  0.82541202  1
  H+  H23  1  0.36541233  0.72158892  0.36200244  1
  H+  H24  1  0.77668591  0.89185041  0.49165129  1
  H+  H25  1  0.63133153  0.76718624  0.17199751  1
  H+  H26  1  0.62384742  0.23599485  0.99967791  1
  H+  H27  1  0.90325342  0.32845013  0.55408738  1
  H+  H28  1  0.90809566  0.62330077  1.00035617  1
  H+  H29  1  0.09553049  0.99830305  0.52708858  1
  H+  H30  1  0.22920020  0.36908473  0.66462120  1
  H+  H31  1  0.17116903  0.08893811  0.89462217  1
  H+  H32  1  0.87855535  0.48287912  0.99724375  1
  H+  H33  1  0.61748994  0.47650169  0.34184208  1
  H+  H34  1  0.97860357  0.09942208  0.83311563  1
  H+  H35  1  0.50429165  0.41610551  0.97820392  1
  H+  H36  1  0.60242399  0.12395835  0.14709427  1
  H+  H37  1  0.12093411  0.13567855  0.82152497  1
  H+  H38  1  0.25372974  0.11121187  0.01035857  1
  H+  H39  1  0.13771853  0.85620933  0.32862937  1
  H+  H40  1  0.57958010  0.16915984  0.39859736  1
  H+  H41  1  0.90915117  0.53676355  0.66073205  1
  H+  H42  1  0.36899177  0.47809545  0.82016931  1
  H+  H43  1  0.37804829  0.13884120  0.34018004  1
  H+  H44  1  0.12695157  0.61705273  0.52324604  1
  H+  H45  1  0.36411830  0.46858529  0.66062473  1
  H+  H46  1  0.39230801  0.35059835  0.65199531  1
  H+  H47  1  0.11665940  0.71703314  0.33143215  1
  H+  H48  1  0.23056220  0.11612806  0.83458441  1
  H+  H49  1  0.61671309  0.88349085  0.16418781  1
  H+  H50  1  0.10635361  0.24908876  0.51866941  1
  H+  H51  1  0.27932900  0.65265997  0.50898202  1
  H+  H52  1  0.62423403  0.51737628  0.16696915  1
  H+  H53  1  0.87433386  0.77497437  0.50588641  1
  H+  H54  1  0.14339599  0.35761317  -0.02336704  1
  H+  H55  1  0.87912567  0.60730668  0.83762018  1
  H+  H56  1  0.88822353  0.23783898  0.00311285  1
  H+  H57  1  0.39382276  0.77038760  0.83728683  1
  H+  H58  1  0.35643026  1.00249779  -0.00580317  1
  H+  H59  1  0.37745642  0.85787800  0.65891395  1
  H+  H60  1  0.06794416  0.19356582  0.23524161  1
  H+  H61  1  0.53549257  0.89770101  0.16791085  1
  H+  H62  1  0.98387586  0.87936784  0.17219758  1
  H+  H63  1  0.36606647  0.97957790  0.67087929  1
  H+  H64  1  0.09708593  0.17850291  0.03827290  1
  H+  H65  1  0.51332136  0.12241703  0.14610037  1
  H+  H66  1  0.12370941  0.78139910  0.16535806  1
  H+  H67  1  0.39211955  0.77334883  0.98610072  1
  H+  H68  1  0.88412845  0.27474831  0.31900743  1
  H+  H69  1  0.29221952  0.05425560  0.03381194  1
  H+  H70  1  0.63603674  0.37720983  0.49623182  1
  H+  H71  1  0.58326698  0.91513225  0.06613127  1
  H+  H72  1  0.53087332  0.63711403  0.50308288  1
  H+  H73  1  0.76962972  0.38638017  0.33266465  1
  H+  H74  1  0.87800052  0.52388929  0.33026549  1
  H+  H75  1  0.61618406  0.63080428  0.49969487  1
  H+  H76  1  0.94282361  0.10280651  0.17272535  1
  H+  H77  1  0.63552390  0.51684815  0.49801158  1
  H+  H78  1  0.21312024  0.84505021  0.51657325  1
  H+  H79  1  0.63378934  0.27873399  0.32632425  1
  H+  H80  1  0.14123280  0.87328209  0.67107028  1
  H+  H81  1  0.89462925  0.37924582  0.83438556  1
  H+  H82  1  0.12078611  0.73908820  0.68780622  1
  H+  H83  1  0.34942132  -0.03842935  0.49916220  1
  H+  H84  1  0.15279325  0.13695940  0.20707344  1
  H+  H85  1  0.88148313  0.36511896  0.49503965  1
  H+  H86  1  0.73777933  0.63327019  1.00044878  1
  H+  H87  1  0.85605268  0.38782961  0.66911075  1
  H+  H88  1  0.37577590  0.39437214  0.51215333  1
  H+  H89  1  0.09827534  0.67762379  0.05248105  1
  H+  H90  1  0.11327788  0.90639001  0.15951972  1
  H+  H91  1  0.73196546  0.09350653  0.83671424  1
  H+  H92  1  1.02411819  0.37763812  0.33347064  1
  H+  H93  1  0.52538737  0.87475362  0.82668421  1
  H+  H94  1  0.92414960  0.07431828  0.89541416  1
  H+  H95  1  0.87321136  0.97854872  0.66791526  1
  H+  H96  1  0.89682456  0.37586084  -0.01839405  1
  H+  H97  1  0.98513069  1.11209685  0.64676372  1
  H+  H98  1  0.38396368  0.26692438  0.16869646  1
  H+  H99  1  0.28736221  0.39339925  0.32512116  1
  H+  H100  1  0.53043036  0.63130731  0.35059781  1
  H+  H101  1  0.48805188  0.36609167  0.32479567  1
  H+  H102  1  0.61623707  -0.00897247  0.35020158  1
  H+  H103  1  0.51408533  0.37417812  0.65877875  1
  H+  H104  1  0.37796681  0.10306752  0.17622401  1
  H+  H105  1  0.61758312  -0.03708702  0.82792509  1
  H+  H106  1  0.63982119  0.10696336  0.98743270  1
  H+  H107  1  0.52141293  0.13620455  0.33875946  1
  H+  H108  1  0.64255793  1.02575691  0.17070176  1
  H+  H109  1  0.32561103  0.23682816  0.48615849  1
  H+  H110  1  0.13928232  0.26237944  0.97546934  1
  H+  H111  1  0.39613588  1.02315457  0.82805495  1
  H+  H112  1  0.86544500  0.47998674  0.82586710  1
  H+  H113  1  0.37156262  0.26903514  1.00474491  1
  H+  H114  1  -0.01272945  0.63810630  0.18153061  1
  H+  H115  1  -0.00988585  0.06015396  0.40073337  1
  H+  H116  1  0.79570648  0.26962455  0.61700790  1
  H+  H117  1  0.14803623  0.27677755  0.19936324  1
  H+  H118  1  0.63962889  0.03577404  0.66039646  1
  H+  H119  1  0.29590372  0.40604211  0.51476971  1
  H+  H120  1  0.49129663  0.13174258  -0.01858605  1
  H+  H121  1  0.59148738  0.92775857  0.44435447  1
  H+  H122  1  0.45030722  0.28802058  0.51414382  1
  H+  H123  1  0.37805333  0.22860467  0.33350093  1
  H+  H124  1  0.38812989  0.85935003  0.34732677  1
  H+  H125  1  0.85960399  0.63385563  0.33513088  1
  H+  H126  1  0.17002530  0.28217336  0.36341335  1
  H+  H127  1  0.26965699  0.13304103  0.17303857  1
  H+  H128  1  0.27290870  0.87979727  0.34299010  1
  H+  H129  1  0.23821378  0.10354560  0.33708456  1
  H+  H130  1  1.00885849  0.04258336  0.37827202  1
  H+  H131  1  0.98690049  0.37498066  0.83524757  1
  H+  H132  1  0.84638104  0.97177928  0.15960306  1
  H+  H133  1  0.23353621  0.61445908  0.98452529  1
  H+  H134  1  0.96623079  0.12350292  0.51188520  1
  H+  H135  1  0.01490400  0.88592096  0.00379903  1
  H+  H136  1  0.27056742  0.37841834  0.98579572  1
  H+  H137  1  0.09111262  0.08234688  0.52800040  1
  H+  H138  1  0.28376377  0.63558272  0.82593381  1
  H+  H139  1  0.37461163  0.10226611  0.51218243  1
  H+  H140  1  0.21086038  0.20125420  0.42868630  1
  H+  H141  1  0.14196835  0.52262446  0.83313697  1
  H+  H142  1  0.76444105  0.38435292  0.48390080  1
  H+  H143  1  0.83180702  0.64431840  -0.03027814  1
  H+  H144  1  0.59478667  0.65807332  0.76655037  1
  H+  H145  1  1.02368262  0.39317445  0.48718465  1
  H+  H146  1  0.14852563  1.01299411  0.34059273  1
  H+  H147  1  0.02632736  0.63379658  0.34087137  1
  H+  H148  1  0.88081548  0.77070176  0.99620818  1
  H+  H149  1  0.21629358  0.60156784  0.16089665  1
  H+  H150  1  0.62331282  0.49592025  0.00498701  1
  H+  H151  1  0.63216931  0.28347036  0.49984070  1
  H+  H152  1  0.75298584  0.87185380  0.81766936  1
  H+  H153  1  0.61272494  0.64585914  0.01321443  1
  H+  H154  1  0.39802120  0.25852085  -0.01616989  1
  H+  H155  1  0.13028168  0.86788333  0.98609710  1
  H+  H156  1  0.76102210  0.64587961  0.49248303  1
  H+  H157  1  0.39409619  0.52590664  0.32751720  1
  H+  H158  1  0.63862675  0.51322975  0.65372858  1
  H+  H159  1  0.36654223  0.63275107  -0.00434910  1
  H+  H160  1  0.11209389  0.38194205  0.82378345  1
  H+  H161  1  0.37423353  0.88631705  0.82331083  1
  H+  H162  1  0.78212134  0.63027781  0.66825667  1
  H+  H163  1  0.64451621  0.09784584  0.84308686  1
  H+  H164  1  0.89179749  0.86029339  0.66080880  1
  H+  H165  1  0.63861522  0.36961205  0.65152591  1
  H+  H166  1  0.48424654  0.96505617  0.22813975  1
  H+  H167  1  0.24042231  0.87759899  0.83999005  1
  H+  H168  1  0.42157754  0.08649999  0.88572230  1
  H+  H169  1  0.78817562  0.39557327  0.99596064  1
  H+  H170  1  0.41685068  0.31455999  0.57646492  1
  H+  H171  1  0.86065931  0.97111993  0.82329839  1
  H+  H172  1  0.63903424  0.77361440  0.50627614  1
  H+  H173  1  0.60754551  0.13905462  0.49446501  1
  H+  H174  1  0.40302500  0.40887068  0.97412956  1
  H+  H175  1  0.27531142  0.63514489  0.68334952  1
  H+  H176  1  0.36431219  0.72080181  0.67718649  1
  H+  H177  1  0.85936138  0.25054257  0.65236931  1
  H+  H178  1  0.37834033  0.35195855  0.16065073  1
  H+  H179  1  0.02868025  0.89065417  0.67336609  1
  H+  H180  1  0.87615497  0.64016853  0.67043918  1
  H+  H181  1  0.61219674  0.38895199  0.81500127  1
  H+  H182  1  0.17271810  0.84842107  0.92595394  1
  H+  H183  1  0.39015091  0.11713262  0.65952686  1
  H+  H184  1  0.85399588  0.13851225  0.48903129  1
  H+  H185  1  0.37316872  0.23006702  0.82689373  1
  H+  H186  1  0.73393175  0.39495833  0.17921910  1
  H+  H187  1  0.14819857  0.62146475  -0.01723905  1
  H+  H188  1  0.88467224  0.86326347  0.99328040  1
  H+  H189  1  -0.00492734  0.62782841  0.67258956  1
  H+  H190  1  0.12630713  0.50904723  0.30764685  1
  H+  H191  1  0.38527842  0.01366532  0.33074353  1
  H+  H192  1  0.62088599  0.14806130  0.66135094  1
  H+  H193  1  -0.02480595  0.36555806  0.16092802  1
  H+  H194  1  0.38578141  0.52227017  0.98385318  1
  H+  H195  1  0.37198929  0.14053616  0.82143323  1
  H+  H196  1  0.86265978  0.51336554  0.49275111  1
  H+  H197  1  0.88208883  0.28273757  0.16567387  1
  H+  H198  1  0.02547236  0.87688709  0.34571732  1
  H+  H199  1  0.76553488  0.62110688  0.82142834  1
  H+  H200  1  0.11270910  0.38281602  0.14075781  1
  H+  H201  1  0.64570252  0.87242870  0.99803588  1
  H+  H202  1  0.02906853  0.88249121  0.82956547  1
  H+  H203  1  0.10869955  0.62820253  0.82787111  1
  H+  H204  1  0.89878146  0.78788080  0.16952016  1
  H+  H205  1  0.64412406  0.85945850  0.65385812  1
  H+  H206  1  0.52132030  0.64058163  0.00678991  1
  H+  H207  1  0.27427239  0.89196159  0.67568849  1
  H+  H208  1  0.54270879  0.63906412  0.66744954  1
  H+  H209  1  0.48876225  0.37454872  0.82779562  1
  H+  H210  1  0.64950836  0.60705585  0.65731695  1
  H+  H211  1  0.47830454  0.59859324  0.16660788  1
  H+  H212  1  0.36441415  0.70474943  0.15717967  1
  H+  H213  1  0.64713117  0.76003866  0.32894508  1
  H+  H214  1  0.72217834  0.11777605  0.50197024  1
  H+  H215  1  0.59452209  0.16362339  0.89590078  1
  H+  H216  1  0.01281545  0.87239634  0.49543954  1
  H+  H217  1  0.38957233  0.77585819  0.51044043  1
  H+  H218  1  0.63977570  0.61180397  0.32592699  1
  H+  H219  1  0.62949050  0.72716631  0.66929704  1
  H+  H220  1  0.52756469  0.89070884  0.50193185  1
  H+  H221  1  0.51655321  0.38530538  0.15096630  1
  H+  H222  1  0.81797672  0.62267791  0.07709918  1
  H+  H223  1  0.86131920  0.11646238  0.82572422  1
  H+  H224  1  0.62316684  0.62458035  0.82509786  1
  H+  H225  1  0.76434514  0.63603227  0.32573038  1
  H+  H226  1  0.63547703  0.12308571  0.32355442  1
  H+  H227  1  0.13649720  0.53069684  0.67314936  1
  H+  H228  1  0.14089472  1.03726724  0.68709159  1
  H+  H229  1  0.37807231  0.39622159  0.31922527  1
  H+  H230  1  0.84693810  0.14110804  0.16023706  1
  H+  H231  1  0.02379771  0.38333526  0.66961216  1
  H+  H232  1  0.09817207  0.16547867  0.59850486  1
  H+  H233  1  0.76804330  0.14194215  0.33355735  1
  H+  H234  1  0.52843052  0.98132407  0.71482841  1
  H+  H235  1  0.77422404  0.87303480  0.33775055  1
  H+  H236  1  0.86036387  0.89047307  0.15998795  1
  H+  H237  1  0.89671135  0.76156091  0.84249756  1
  H+  H238  1  0.13654721  0.12444144  0.98017313  1
  H+  H239  1  0.23132061  0.12471749  0.68573938  1
  H+  H240  1  0.47973093  0.86167809  0.98953224  1
  H+  H241  1  0.14404837  0.14782163  0.37819895  1
  H+  H242  1  0.10153345  0.61177491  0.14663245  1
  H+  H243  1  0.64617857  0.78525621  -0.00043378  1
  H+  H244  1  0.12389789  0.59716356  0.30697510  1
  H+  H245  1  0.64516317  0.27921634  0.84350969  1
  H+  H246  1  0.40764687  0.53471002  0.21558211  1
  H+  H247  1  0.61063234  0.63301884  0.15770492  1
  H+  H248  1  0.87310142  0.13362580  0.67035938  1
  H+  H249  1  0.86618243  0.89354039  0.49452704  1
  H+  H250  1  0.10649504  0.46840329  0.14133475  1
  H+  H251  1  0.41169205  0.06846185  0.26815875  1
  H+  H252  1  0.21576110  0.86329134  0.15885920  1
  H+  H253  1  0.79683214  0.53942252  0.11585537  1
  H+  H254  1  0.35985382  0.61498465  0.15541763  1
  H+  H255  1  0.89160080  0.77089186  0.66003760  1
  H+  H256  1  0.11361611  0.97805916  0.82552280  1
  H+  H257  1  -0.00206429  0.62819165  -0.01269377  1
  H+  H258  1  0.91841511  0.33677048  0.26033955  1
  H+  H259  1  0.85787741  0.22960942  0.48467659  1
  H+  H260  1  0.12781950  0.02818303  0.98286196  1
  H+  H261  1  0.14125496  0.62138411  0.67858010  1
  H+  H262  1  0.63901159  0.85149651  0.82318327  1
  H+  H263  1  0.33470309  0.86884220  0.11355772  1
  H+  H264  1  0.08011369  0.92726448  0.05975070  1
  H+  H265  1  0.63599268  0.36898782  0.33245502  1
  H+  H266  1  -0.00388461  0.12125432  -0.02065695  1
  H+  H267  1  0.35929282  0.45856066  0.13524168  1
  H+  H268  1  0.63539458  0.02635585  0.50898906  1
  H+  H269  1  0.89385370  0.15220637  1.00604318  1
  H+  H270  1  0.90343386  1.03215699  -0.01210323  1
  H+  H271  1  0.92458348  0.82264586  0.90094636  1
  H+  H272  1  0.89402689  0.62721263  0.17349543  1
  H+  H273  1  0.40054841  0.12995016  0.98209382  1
  H+  H274  1  0.41995934  0.83971938  0.56674094  1
  H+  H275  1  0.08074995  0.89915358  0.40705579  1
  H+  H276  1  0.11976726  0.47849050  -0.00813013  1
  H+  H277  1  0.72167053  0.85559361  0.17039295  1
  H+  H278  1  0.88546510  0.85995223  0.32981561  1
  H+  H279  1  0.14203090  0.38311266  0.51096083  1
  H+  H280  1  0.36349679  0.63331381  0.36665530  1
  H+  H281  1  0.86648099  0.10255311  0.32187374  1
  H+  H282  1  0.87911975  0.49738643  0.18989108  1
  H+  H283  1  0.14104960  0.27388526  0.82643132  1
  H+  H284  1  0.10245266  0.87260026  0.50232272  1
  H+  H285  1  0.53141110  0.89972796  0.35812635  1
  H+  H286  1  0.88221465  0.02862730  0.50289825  1
  H+  H287  1  0.15087388  0.87829329  0.83762918  1
  H+  H288  1  0.66513960  0.57428208  0.56158229  1
  H+  H289  1  0.42922242  0.84079491  0.29103775  1
  H+  H290  1  0.83483767  0.65842232  0.76611465  1
  H+  H291  1  0.48584053  0.61037918  0.83412157  1
  H+  H292  1  0.13569931  0.54078825  0.49520701  1
  H+  H293  1  0.42421621  0.83220161  0.89642061  1
  H+  H294  1  0.83897483  0.42327702  0.76407828  1
  H+  H295  1  0.91943287  0.83562501  0.26912038  1
  H+  H296  1  0.86295449  0.73284088  0.32907663  1
  H+  H297  1  0.34245463  0.91593415  0.76387941  1
  H+  H298  1  0.67177732  0.61884810  0.94427689  1
  H+  H299  1  1.02533094  0.64049783  0.58488788  1
  H+  H300  1  0.66737700  0.54974359  0.87918883  1
  H+  H301  1  0.19767514  0.39521039  0.20433926  1
  H+  H302  1  0.41149068  0.07994590  0.57098355  1
  H+  H303  1  0.08448771  0.41372467  0.04884681  1
  H+  H304  1  0.78308402  0.88973448  0.66652236  1
  H+  H305  1  0.33529259  0.65688867  0.05653635  1
  H+  H306  1  0.59341091  0.65913789  0.40731576  1
  H+  H307  1  0.07868259  0.41161117  0.76604219  1
  H+  H308  1  0.16987017  0.35792075  0.57420146  1
  H+  H309  1  0.87534962  0.56789780  0.55236441  1
  H+  H310  1  0.78064645  0.12791465  0.67093903  1
  H+  H311  1  0.12082197  0.76200033  0.53418233  1
  H+  H312  1  0.71744726  0.59616827  0.16260442  1
  H+  H313  1  0.77944677  0.89555004  0.00298481  1
  H+  H314  1  0.58120989  0.42636520  0.05896541  1
  H+  H315  1  0.67225624  0.81898985  0.26885674  1
  H+  H316  1  0.61684752  0.23429957  0.65980115  1
  H+  H317  1  0.33996065  0.42028269  0.72466355  1
  H+  H318  1  0.17118218  0.33101976  0.88692870  1
  H+  H319  1  0.39725901  0.61393933  0.83407960  1
  H+  H320  1  0.87170561  0.40975693  0.16850748  1
  H+  H321  1  0.44549960  0.38297761  0.90895353  1
  H+  H322  1  0.88581818  0.07070903  0.23437715  1
  H+  H323  1  0.02643929  0.19132206  0.11350098  1
  H+  H324  1  0.31626408  0.14432345  0.10856510  1
  H+  H325  1  0.34824479  0.17546883  0.72810834  1
  H+  H326  1  0.91433275  0.58257252  0.89813192  1
  H+  H327  1  0.59024042  0.42318856  0.40723166  1
  H+  H328  1  0.66872141  0.06762658  0.93374723  1
  H+  H329  1  0.61215096  0.39706866  0.15516729  1
  H+  H330  1  0.31494908  0.18399233  0.42537300  1
  H+  H331  1  0.16956469  0.83696218  0.26579548  1
  H+  H332  1  0.32677767  0.40379287  0.04895951  1
  H+  H333  1  0.16757890  0.83749050  0.61308807  1
  H+  H334  1  0.57678758  0.40988691  0.71868453  1
  H+  H335  1  0.51754635  0.13634409  0.49438124  1
  H+  H336  1  0.91120712  0.07935490  0.59670614  1
  H+  H337  1  0.67336336  0.83305634  0.59284170  1
  H+  H338  1  0.42454770  0.61522876  0.29189538  1
  H+  H339  1  0.66341333  0.09013517  0.26394534  1
  H+  H340  1  0.83948211  0.92359247  0.06111922  1
  H+  H341  1  0.53764583  0.40446030  0.48710930  1
  H+  H342  1  0.01293771  0.57741356  0.11287060  1
  H+  H343  1  0.66520242  0.58327585  0.26183197  1
  H+  H344  1  0.92677262  0.35000433  0.90387733  1
  H+  H345  1  0.39560671  0.37073888  0.82893277  1
  H+  H346  1  0.17198810  0.07989190  0.25057296  1
  H+  H347  1  0.27884964  0.38855085  0.81780305  1
  H+  H348  1  0.58332143  0.16370241  0.05246362  1
  H+  H349  1  0.08500522  0.41972275  0.42952536  1
  H+  H350  1  0.09105847  0.15794997  0.76060869  1
  H+  H351  1  0.53342491  0.13572463  0.83986782  1
  H+  H352  1  0.11279671  0.38364910  0.67512378  1
  H+  H353  1  0.66637445  0.35608387  0.23282314  1
  H+  H354  1  0.82630061  0.41303309  0.42438646  1
  H+  H355  1  0.34041260  0.67254280  0.45400887  1
  H+  H356  1  0.34306106  0.66627768  0.76635138  1
  H+  H357  1  0.32519518  0.90824187  0.40630783  1
  H+  H358  1  0.43077048  0.33603380  0.26296196  1
  H+  H359  1  0.82812921  0.16940472  0.39248562  1
  H+  H360  1  0.86105725  0.38826939  0.33031989  1
  H+  H361  1  0.86873277  0.01325053  0.32144576  1
  H+  H362  1  0.31485807  0.93513271  0.08183145  1
  H+  H363  1  0.42379335  0.58398138  0.92599321  1
  H+  H364  1  0.67503824  0.34713578  0.92944805  1
  H+  H365  1  0.09825085  0.18332849  0.46873869  1
  H+  H366  1  0.08555733  0.67451287  0.74669196  1
  H+  H367  1  0.72220381  0.12143161  0.16752600  1
  H+  H368  1  0.16144646  0.28766952  0.29317519  1
  H+  H369  1  0.61743785  0.48217261  0.81158874  1
  H+  H370  1  0.83588023  0.91347896  0.39687865  1
  H+  H371  1  0.08268932  0.91698736  0.73597306  1
  H+  H372  1  0.03978746  0.15833516  0.12049842  1
  H+  H373  1  0.83422997  0.91750140  0.75802622  1
  H+  H374  1  0.35764561  0.87733081  0.49806671  1
  H+  H375  1  0.57129045  0.93084223  0.74255216  1
  H+  H376  1  0.91396156  0.83460389  0.56586395  1
  H+  H377  1  0.15026940  0.56723385  0.21918079  1
  H+  H378  1  0.17256776  0.58308927  0.89164255  1
  H+  H379  1  0.91757883  0.59649884  0.27732001  1
  H+  H380  1  0.73200169  0.36900667  0.83450700  1
  H+  H381  1  0.57610185  0.66441609  0.10057038  1
  H+  H382  1  0.83908046  0.17910197  0.09728726  1
  H+  H383  1  0.83273546  0.14969531  0.76820787  1
  O2-  O384  1  0.12937771  0.22036225  0.22788438  1
  O2-  O385  1  0.07346165  0.18507894  0.50913158  1
  O2-  O386  1  0.08813475  0.16357026  0.80451115  1
  O2-  O387  1  0.07651931  0.40840705  0.12529995  1
  O2-  O388  1  0.08493052  0.42448460  0.47473250  1
  O2-  O389  1  0.08077260  0.41312225  0.81164592  1
  O2-  O390  1  0.06065616  0.63097839  0.12854569  1
  O2-  O391  1  0.05111260  0.65590840  0.54396732  1
  O2-  O392  1  0.07798292  0.65880764  0.81546089  1
  O2-  O393  1  0.08226271  0.93656458  0.14664402  1
  O2-  O394  1  0.07401385  0.90074218  0.48096578  1
  O2-  O395  1  0.08802474  0.91791028  0.81059643  1
  O2-  O396  1  0.32735983  0.15643287  0.15328808  1
  O2-  O397  1  0.28272634  0.18944300  0.45996674  1
  O2-  O398  1  0.34043674  0.17122725  0.81017025  1
  O2-  O399  1  0.32442138  0.39793149  0.12259327  1
  O2-  O400  1  0.35876503  0.43823889  0.51057123  1
  O2-  O401  1  0.34002805  0.41794187  0.80371975  1
  O2-  O402  1  0.33170847  0.64732720  0.13998780  1
  O2-  O403  1  0.34174901  0.68002480  0.49937981  1
  O2-  O404  1  0.34527177  0.66603061  0.81318944  1
  O2-  O405  1  0.31698119  0.91028051  0.12429518  1
  O2-  O406  1  0.32039005  0.90176417  0.48382684  1
  O2-  O407  1  0.34653725  0.91980668  0.80933504  1
  O2-  O408  1  0.56872256  0.14544993  0.12486169  1
  O2-  O409  1  0.57698396  0.16837331  0.47798217  1
  O2-  O410  1  0.59615639  0.16624449  0.85150987  1
  O2-  O411  1  0.57686127  0.42109668  0.13556344  1
  O2-  O412  1  0.59652169  0.42852731  0.47225346  1
  O2-  O413  1  0.58071388  0.41686311  0.79870231  1
  O2-  O414  1  0.57553299  0.66020369  0.14667867  1
  O2-  O415  1  0.58857796  0.66583177  0.48526388  1
  O2-  O416  1  0.59410474  0.65909066  0.81172630  1
  O2-  O417  1  0.59150233  0.91876464  0.14819409  1
  O2-  O418  1  0.59028363  0.92216154  0.49051556  1
  O2-  O419  1  0.58524005  0.90406235  0.80834583  1
  O2-  O420  1  0.82475182  0.17693307  0.14208321  1
  O2-  O421  1  0.82405255  0.16813712  0.47153411  1
  O2-  O422  1  0.82651216  0.14275577  0.81283810  1
  O2-  O423  1  0.84668105  0.44795836  0.16317952  1
  O2-  O424  1  0.82643140  0.41350407  0.46995639  1
  O2-  O425  1  0.83870023  0.41910566  0.80950996  1
  O2-  O426  1  0.81067983  0.59915687  0.12020689  1
  O2-  O427  1  0.82156532  0.68261743  0.47794712  1
  O2-  O428  1  0.83050468  0.65375361  0.81123987  1
  O2-  O429  1  0.82392510  0.91237596  0.14291215  1
  O2-  O430  1  0.83712026  0.92434117  0.47683350  1
  O2-  O431  1  0.82589305  0.91222921  0.80368722  1
  O2-  O432  1  0.16887695  0.09121759  0.20586242  1
  O2-  O433  1  0.09426353  0.04072994  0.55477661  1
  O2-  O434  1  0.16979005  0.08728768  0.84866351  1
  O2-  O435  1  0.17910904  0.35611303  0.16967592  1
  O2-  O436  1  0.16896267  0.35125782  0.52922063  1
  O2-  O437  1  0.17057524  0.33464067  0.84085432  1
  O2-  O438  1  0.15460791  0.57215411  0.17124324  1
  O2-  O439  1  0.16729601  0.60310335  0.50313876  1
  O2-  O440  1  0.17362263  0.58374358  0.84621143  1
  O2-  O441  1  0.15895860  0.84046023  0.17953700  1
  O2-  O442  1  0.15683223  0.82613040  0.53664285  1
  O2-  O443  1  0.18294046  0.85389854  0.85880782  1
  O2-  O444  1  0.40689882  0.06954355  0.18845480  1
  O2-  O445  1  0.40855780  0.07622537  0.52444441  1
  O2-  O446  1  0.42530523  0.08561748  0.84049952  1
  O2-  O447  1  0.41374003  0.32927512  0.17946186  1
  O2-  O448  1  0.41398006  0.31123901  0.52631274  1
  O2-  O449  1  0.42993964  0.34731340  0.84920787  1
  O2-  O450  1  0.41407293  0.56210753  0.17611492  1
  O2-  O451  1  0.43354434  0.60086299  0.56724938  1
  O2-  O452  1  0.42506658  0.58046181  0.84911374  1
  O2-  O453  1  0.45095130  0.90491943  0.21579023  1
  O2-  O454  1  0.42176760  0.84112070  0.52139571  1
  O2-  O455  1  0.42553977  0.83234337  0.85016845  1
  O2-  O456  1  0.66299498  0.08556882  0.18507561  1
  O2-  O457  1  0.66387717  0.08880186  0.52139075  1
  O2-  O458  1  0.67011834  0.06167641  0.85286081  1
  O2-  O459  1  0.67177319  0.36801720  0.18849843  1
  O2-  O460  1  0.66682840  0.34435854  0.51250853  1
  O2-  O461  1  0.67222269  0.34214195  0.85089463  1
  O2-  O462  1  0.66125926  0.57855606  0.18201933  1
  O2-  O463  1  0.66111116  0.57893499  0.51672105  1
  O2-  O464  1  0.66821013  0.57046000  0.83823077  1
  O2-  O465  1  0.66218124  0.82712818  0.18790551  1
  O2-  O466  1  0.67004485  0.83434899  0.52129772  1
  O2-  O467  1  0.67705880  0.82735040  0.83385500  1
  O2-  O468  1  0.88348609  0.07194212  0.18689465  1
  O2-  O469  1  0.90303827  0.08710246  0.52086900  1
  O2-  O470  1  0.91913954  0.06720406  0.84941467  1
  O2-  O471  1  0.91786203  0.34315443  0.18082411  1
  O2-  O472  1  0.91236618  0.33471267  0.50955401  1
  O2-  O473  1  0.92603203  0.35024315  0.85257595  1
  O2-  O474  1  0.93586459  0.62934813  0.20408532  1
  O2-  O475  1  0.88546297  0.57371102  0.50855330  1
  O2-  O476  1  0.90967384  0.57606262  0.85333774  1
  O2-  O477  1  0.92300949  0.84421505  0.18850174  1
  O2-  O478  1  0.91106140  0.83692721  0.52059640  1
  O2-  O479  1  0.93338569  0.82140599  0.85658989  1
  O2-  O480  1  0.17600416  0.07351133  0.32595999  1
  O2-  O481  1  0.16894977  0.10006814  0.69507873  1
  O2-  O482  1  0.16656355  0.08822986  0.96932618  1
  O2-  O483  1  0.17669297  0.32377177  0.33062509  1
  O2-  O484  1  0.16701200  0.34260415  0.65213479  1
  O2-  O485  1  0.17449820  0.32906193  0.96088665  1
  O2-  O486  1  0.14619894  0.56343695  0.28492949  1
  O2-  O487  1  0.17212009  0.59202153  0.66359777  1
  O2-  O488  1  0.17273097  0.58520978  0.96931175  1
  O2-  O489  1  0.17166313  0.83121015  0.31024189  1
  O2-  O490  1  0.17241462  0.84192347  0.65849853  1
  O2-  O491  1  0.16802910  0.84452773  0.97328215  1
  O2-  O492  1  0.41716072  0.07311799  0.31329376  1
  O2-  O493  1  0.41797388  0.08389099  0.64311612  1
  O2-  O494  1  0.43167925  0.10373753  0.96294606  1
  O2-  O495  1  0.42786261  0.33400965  0.30801682  1
  O2-  O496  1  0.42280660  0.32066112  0.63919718  1
  O2-  O497  1  0.45764659  0.41627067  0.95125768  1
  O2-  O498  1  0.42706619  0.59225899  0.33134840  1
  O2-  O499  1  0.43923728  0.58289339  0.62133814  1
  O2-  O500  1  0.42028818  0.58383807  0.97170025  1
  O2-  O501  1  0.42305456  0.83229593  0.33517484  1
  O2-  O502  1  0.40977919  0.82887960  0.64504682  1
  O2-  O503  1  0.42138725  0.83292756  0.97056103  1
  O2-  O504  1  0.66536439  0.09184926  0.30937911  1
  O2-  O505  1  0.68070683  0.09245963  0.64223928  1
  O2-  O506  1  0.66400792  0.06956816  0.97858633  1
  O2-  O507  1  0.66611767  0.33992166  0.31314526  1
  O2-  O508  1  0.67666624  0.34612003  0.63753657  1
  O2-  O509  1  0.67640718  0.34539081  0.97498384  1
  O2-  O510  1  0.67258076  0.58543712  0.30691800  1
  O2-  O511  1  0.67684493  0.57503802  0.64098097  1
  O2-  O512  1  0.67036601  0.60363420  0.98709765  1
  O2-  O513  1  0.68076599  0.81965937  0.31333420  1
  O2-  O514  1  0.67691178  0.83314105  0.63951359  1
  O2-  O515  1  0.67990306  0.84516264  0.98537623  1
  O2-  O516  1  0.89206187  0.07069947  0.30192831  1
  O2-  O517  1  0.92078378  0.08004989  0.64188907  1
  O2-  O518  1  0.93185222  0.08988602  0.96833681  1
  O2-  O519  1  0.91710115  0.33630069  0.30582204  1
  O2-  O520  1  0.85599386  0.29789300  0.62930123  1
  O2-  O521  1  0.92788750  0.34616477  0.96288552  1
  O2-  O522  1  0.90770941  0.58761876  0.32205659  1
  O2-  O523  1  0.93981311  0.59765547  0.64733199  1
  O2-  O524  1  0.93434742  0.59400346  0.97886244  1
  O2-  O525  1  0.91501520  0.82746725  0.31397080  1
  O2-  O526  1  0.92255929  0.83145122  0.64453698  1
  O2-  O527  1  0.91554232  0.83182201  0.98137127  1
  O2-  O528  1  0.09548431  0.17542604  -0.00588552  1
  O2-  O529  1  0.15874395  0.19637248  0.40586339  1
  O2-  O530  1  0.09387623  0.17101941  0.64267770  1
  O2-  O531  1  0.08709236  0.41626315  0.00304890  1
  O2-  O532  1  0.08402198  0.40937586  0.34944973  1
  O2-  O533  1  0.07894107  0.41170687  0.69026520  1
  O2-  O534  1  0.10170143  0.68151410  0.00759356  1
  O2-  O535  1  0.08853451  0.65597101  0.34356630  1
  O2-  O536  1  0.08829068  0.67737313  0.70006690  1
  O2-  O537  1  0.07800318  0.92033764  0.01518332  1
  O2-  O538  1  0.08513189  0.90213267  0.36096323  1
  O2-  O539  1  0.08801964  0.92201521  0.69034966  1
  O2-  O540  1  0.30330929  0.11417652  0.03417125  1
  O2-  O541  1  0.34771475  0.17010425  0.35234453  1
  O2-  O542  1  0.34329768  0.16999287  0.68323359  1
  O2-  O543  1  0.33149824  0.41299828  0.00321422  1
  O2-  O544  1  0.34940630  0.43118861  0.31500485  1
  O2-  O545  1  0.33161419  0.41196879  0.67983438  1
  O2-  O546  1  0.33479715  0.66139937  0.01180788  1
  O2-  O547  1  0.33240437  0.66303337  0.37901274  1
  O2-  O548  1  0.33723920  0.66320736  0.69608938  1
  O2-  O549  1  0.30637923  0.96506364  0.02044270  1
  O2-  O550  1  0.33202155  0.91102004  0.36081364  1
  O2-  O551  1  0.33721619  0.91933098  0.68683458  1
  O2-  O552  1  0.58958033  0.17282544  0.00673740  1
  O2-  O553  1  0.58199678  0.17138180  0.35315485  1
  O2-  O554  1  0.58508621  0.17323474  0.67316351  1
  O2-  O555  1  0.58737561  0.43275503  0.01332117  1
  O2-  O556  1  0.58644551  0.41758921  0.35839840  1
  O2-  O557  1  0.57851312  0.40998026  0.67347785  1
  O2-  O558  1  0.57820550  0.67242440  0.02751621  1
  O2-  O559  1  0.59244351  0.65663641  0.36179927  1
  O2-  O560  1  0.60069309  0.66739798  0.68534433  1
  O2-  O561  1  0.58124613  0.91287834  0.02117116  1
  O2-  O562  1  0.59139611  0.93582219  0.37239690  1
  O2-  O563  1  0.55860116  0.95131724  0.70237548  1
  O2-  O564  1  0.87727175  0.18919112  0.02930333  1
  O2-  O565  1  0.82967398  0.17029296  0.34706180  1
  O2-  O566  1  0.84115328  0.16214653  0.68626560  1
  O2-  O567  1  0.84956414  0.42090461  0.00733949  1
  O2-  O568  1  0.83130751  0.41842465  0.34687842  1
  O2-  O569  1  0.83698484  0.42692274  0.68534694  1
  O2-  O570  1  0.82609807  0.66430811  0.00977638  1
  O2-  O571  1  0.82770741  0.66836310  0.34117148  1
  O2-  O572  1  0.84130910  0.66578638  0.68533957  1
  O2-  O573  1  0.84231397  0.92482849  0.01608776  1
  O2-  O574  1  0.83685428  0.90918170  0.35164140  1
  O2-  O575  1  0.84175664  0.91827605  0.68454359  1
