# generated using pymatgen
data_H2O
_symmetry_space_group_name_H-M   'P 1'
_cell_length_a   17.98730364
_cell_length_b   17.98702333
_cell_length_c   21.99726275
_cell_angle_alpha   89.98113834
_cell_angle_beta   90.00903563
_cell_angle_gamma   120.00189114
_symmetry_Int_Tables_number   1
_chemical_formula_structural   H2O
_chemical_formula_sum   'H384 O192'
_cell_volume   6163.34300454
_cell_formula_units_Z   192
loop_
 _symmetry_equiv_pos_site_id
 _symmetry_equiv_pos_as_xyz
  1  'x, y, z'
loop_
 _atom_type_symbol
 _atom_type_oxidation_number
  H+  1.0
  O2-  -2.0
loop_
 _atom_site_type_symbol
 _atom_site_label
 _atom_site_symmetry_multiplicity
 _atom_site_fract_x
 _atom_site_fract_y
 _atom_site_fract_z
 _atom_site_occupancy
  H+  H0  1  0.88634329  0.36456374  0.51801135  1
  H+  H1  1  0.83867569  0.02382961  0.87278225  1
  H+  H2  1  0.36141777  0.88057697  0.67232704  1
  H+  H3  1  0.11799025  0.88150126  0.82722452  1
  H+  H4  1  0.24301447  0.12210193  0.00005397  1
  H+  H5  1  0.14733109  0.02526506  0.99024145  1
  H+  H6  1  0.70996136  0.10903663  0.50805943  1
  H+  H7  1  0.26916362  0.38380890  0.49867415  1
  H+  H8  1  0.13983392  0.50516908  -0.00274179  1
  H+  H9  1  0.83280075  0.41261407  0.43978843  1
  H+  H10  1  0.62219528  0.60474160  0.99883517  1
  H+  H11  1  0.40549503  0.10574672  0.34311902  1
  H+  H12  1  0.01559888  0.42244600  0.14606766  1
  H+  H13  1  0.19207043  0.58956726  0.25053538  1
  H+  H14  1  0.63038426  0.28420503  0.35163084  1
  H+  H15  1  0.22671870  0.61136572  0.84097366  1
  H+  H16  1  0.37884282  0.75720861  -0.00987708  1
  H+  H17  1  0.39722929  0.09961551  0.37726951  1
  H+  H18  1  0.03231964  0.39718806  0.51325254  1
  H+  H19  1  0.35561755  0.38659246  0.82827998  1
  H+  H20  1  0.77163527  0.89243662  0.00746749  1
  H+  H21  1  0.86231651  0.40787086  0.65958691  1
  H+  H22  1  0.86732899  0.96798500  0.80809281  1
  H+  H23  1  0.56288426  0.67717403  0.17367998  1
  H+  H24  1  0.91762514  0.09025523  0.90951921  1
  H+  H25  1  0.14182570  0.14087574  0.65891320  1
  H+  H26  1  0.59707462  -0.02073730  0.66867465  1
  H+  H27  1  0.70824406  0.02339384  0.21717189  1
  H+  H28  1  0.14439434  0.63560067  0.18526305  1
  H+  H29  1  0.12743580  0.96538161  0.67558446  1
  H+  H30  1  0.78186704  0.39953766  0.13493279  1
  H+  H31  1  0.03284313  0.12955909  0.16087261  1
  H+  H32  1  0.26607487  0.16289946  0.33993444  1
  H+  H33  1  0.63329427  0.15957587  0.81840365  1
  H+  H34  1  0.38891782  0.76808794  0.83000973  1
  H+  H35  1  0.55914213  0.36497854  0.85244310  1
  H+  H36  1  0.13689587  0.76514879  0.50357996  1
  H+  H37  1  0.37318754  0.37554453  0.50172329  1
  H+  H38  1  0.09738546  0.73146755  0.17014837  1
  H+  H39  1  0.89506091  0.86296575  0.83677898  1
  H+  H40  1  0.08355422  0.41957756  0.73962493  1
  H+  H41  1  0.84335377  0.64060721  0.70008589  1
  H+  H42  1  0.62550122  0.12301478  0.33770394  1
  H+  H43  1  0.62953498  0.53441850  0.33262580  1
  H+  H44  1  0.72254618  0.85977180  0.83448603  1
  H+  H45  1  0.98537296  0.62395418  1.01379070  1
  H+  H46  1  0.74950062  0.62556993  0.69097292  1
  H+  H47  1  0.95935680  0.10178571  0.51999610  1
  H+  H48  1  0.88899163  0.51444476  0.49966610  1
  H+  H49  1  0.02551291  0.36177648  0.82183408  1
  H+  H50  1  1.00911475  0.12794334  0.68410808  1
  H+  H51  1  0.46982983  0.86259972  0.66877666  1
  H+  H52  1  0.61357116  0.59633651  0.84162767  1
  H+  H53  1  0.60411390  0.17958852  0.13696369  1
  H+  H54  1  0.77466277  0.90134868  0.34091430  1
  H+  H55  1  0.96999900  0.61442522  0.17350458  1
  H+  H56  1  0.28111674  0.38321917  0.66912768  1
  H+  H57  1  0.61483639  0.21905115  0.50048605  1
  H+  H58  1  0.92772122  0.83754015  0.59209344  1
  H+  H59  1  0.90726381  0.35970285  -0.01194889  1
  H+  H60  1  0.60245243  0.82692880  0.18153793  1
  H+  H61  1  0.72102357  0.40301900  0.21301190  1
  H+  H62  1  0.62589372  0.85218552  0.99215674  1
  H+  H63  1  0.35880343  0.17487999  0.33878904  1
  H+  H64  1  0.88893898  1.02320605  0.17659197  1
  H+  H65  1  1.01829137  0.88522189  0.13161869  1
  H+  H66  1  0.13163609  0.21072958  0.16310321  1
  H+  H67  1  0.72038508  0.11758866  0.84679495  1
  H+  H68  1  0.88890129  0.32253766  0.69958804  1
  H+  H69  1  0.15189589  0.53120476  0.51499906  1
  H+  H70  1  0.50414251  0.61792552  0.00186449  1
  H+  H71  1  0.65739522  0.57535908  0.60490961  1
  H+  H72  1  0.61284152  0.89654017  0.82542618  1
  H+  H73  1  0.38181371  0.52021210  0.83244687  1
  H+  H74  1  0.88949230  0.76410088  0.49648687  1
  H+  H75  1  0.88401316  0.87743871  0.34412674  1
  H+  H76  1  0.63734480  0.26780765  0.97111454  1
  H+  H77  1  0.92111079  0.13380577  0.31200071  1
  H+  H78  1  0.64509179  0.16388018  0.19462889  1
  H+  H79  1  0.59738938  0.39030208  0.16591562  1
  H+  H80  1  0.62827811  0.76556704  -0.00911439  1
  H+  H81  1  0.12921555  0.86945580  0.16220940  1
  H+  H82  1  0.77111977  0.39413140  0.35231431  1
  H+  H83  1  0.25459174  0.12535213  0.67598994  1
  H+  H84  1  0.38445124  0.73866629  0.18474788  1
  H+  H85  1  0.35269340  1.04409806  0.12684138  1
  H+  H86  1  0.44778469  0.35189236  0.83399602  1
  H+  H87  1  0.66658624  0.07211432  0.94111720  1
  H+  H88  1  0.05379707  0.17574835  0.42516066  1
  H+  H89  1  0.13228646  0.37531506  0.16233475  1
  H+  H90  1  0.89403549  0.78266536  -0.00510345  1
  H+  H91  1  0.62985025  0.03036599  0.84359025  1
  H+  H92  1  0.35919274  0.87852280  0.82130889  1
  H+  H93  1  0.87136789  0.76409894  0.15810748  1
  H+  H94  1  0.86173023  0.72923249  0.34795838  1
  H+  H95  1  0.37883152  0.50197815  -0.01645234  1
  H+  H96  1  0.60384440  0.73483151  0.34799430  1
  H+  H97  1  0.24123664  0.61592902  0.50275976  1
  H+  H98  1  0.41023449  0.57886675  0.89197554  1
  H+  H99  1  0.62594699  0.36057313  0.66097887  1
  H+  H100  1  0.47333117  0.37347353  0.50318358  1
  H+  H101  1  0.87002863  0.86169452  0.48576900  1
  H+  H102  1  0.11657784  0.90402050  0.33908149  1
  H+  H103  1  0.62264830  0.98284843  0.50106944  1
  H+  H104  1  0.12198875  0.22321829  0.83230710  1
  H+  H105  1  0.61339569  -0.01419833  0.35021631  1
  H+  H106  1  0.63198380  0.36140334  0.50567918  1
  H+  H107  1  0.39341160  0.37354526  0.66375564  1
  H+  H108  1  0.87756393  0.60946657  0.17179801  1
  H+  H109  1  0.26085686  0.60770701  0.31692053  1
  H+  H110  1  0.51695017  0.40439096  0.34221915  1
  H+  H111  1  0.08593239  0.90299988  0.76512612  1
  H+  H112  1  0.92287312  0.83986954  0.93472387  1
  H+  H113  1  0.71944136  0.62101139  0.32912042  1
  H+  H114  1  -0.00399807  0.35495830  -0.00851791  1
  H+  H115  1  0.88493040  0.54108661  0.66645784  1
  H+  H116  1  0.77116507  0.38559915  0.49862522  1
  H+  H117  1  0.11475146  0.35996119  0.81954844  1
  H+  H118  1  0.60781801  0.12602773  -0.02366138  1
  H+  H119  1  0.69016081  0.82758142  0.18101823  1
  H+  H120  1  0.71050745  0.10733857  0.65447452  1
  H+  H121  1  0.14139324  0.11239562  0.17476507  1
  H+  H122  1  0.40979354  0.58353255  0.56791162  1
  H+  H123  1  0.89853876  0.24675396  0.49324139  1
  H+  H124  1  0.86856064  0.48645580  0.15277459  1
  H+  H125  1  0.59563841  0.64353002  0.34180738  1
  H+  H126  1  0.77172909  0.86524157  0.49041364  1
  H+  H127  1  0.24482367  0.13721830  0.18147520  1
  H+  H128  1  0.46603416  0.10299777  0.97824982  1
  H+  H129  1  0.87528708  0.72733870  0.84054330  1
  H+  H130  1  0.36043001  0.97106760  0.66805152  1
  H+  H131  1  0.77756091  0.37212510  -0.00024598  1
  H+  H132  1  0.60305022  0.39816006  0.35183244  1
  H+  H133  1  0.38254499  0.10771506  0.99706009  1
  H+  H134  1  0.86791253  0.87256491  0.66289774  1
  H+  H135  1  0.59959063  0.13371540  0.66453612  1
  H+  H136  1  0.65868943  0.58266542  0.23720750  1
  H+  H137  1  0.52239854  0.89190452  0.82658879  1
  H+  H138  1  0.86809268  0.08627300  0.67532707  1
  H+  H139  1  0.21133327  0.25598826  0.62712448  1
  H+  H140  1  0.86047610  0.22353232  0.00963062  1
  H+  H141  1  0.98529173  0.86410494  0.65218475  1
  H+  H142  1  0.61086571  0.38116949  0.00390145  1
  H+  H143  1  0.52855560  0.89488243  0.34756797  1
  H+  H144  1  0.64836823  0.86473700  0.50779583  1
  H+  H145  1  0.99746098  0.12203514  0.99219056  1
  H+  H146  1  0.36555459  0.09082822  0.66207672  1
  H+  H147  1  0.92931577  0.08122399  0.23667307  1
  H+  H148  1  0.46720740  0.84659722  0.99054709  1
  H+  H149  1  0.35190791  0.40194365  0.33800234  1
  H+  H150  1  0.88707756  0.52940118  0.33042894  1
  H+  H151  1  0.13487213  0.23471784  0.00278004  1
  H+  H152  1  0.85881784  0.39056080  0.34504490  1
  H+  H153  1  0.36964041  0.15585774  0.49420289  1
  H+  H154  1  0.91226463  0.33062276  0.57766013  1
  H+  H155  1  0.88113499  0.14322438  0.16881663  1
  H+  H156  1  0.88651560  0.36633172  0.17471154  1
  H+  H157  1  0.65446531  0.34342158  0.29254630  1
  H+  H158  1  0.42451294  0.49675769  0.17123038  1
  H+  H159  1  0.47312431  0.12402856  0.50573168  1
  H+  H160  1  0.63777521  0.87251313  0.33346864  1
  H+  H161  1  0.63022678  0.51985899  0.99706904  1
  H+  H162  1  0.32089109  0.97859666  0.36748330  1
  H+  H163  1  0.40254920  0.61623295  0.16404230  1
  H+  H164  1  0.83732957  0.87639496  0.16418411  1
  H+  H165  1  0.51608845  0.38191565  0.67440963  1
  H+  H166  1  0.85370049  0.13816701  0.83538456  1
  H+  H167  1  0.22498007  0.11204524  0.50976870  1
  H+  H168  1  0.28689593  0.64514092  0.71355208  1
  H+  H169  1  0.81961791  0.66106015  0.78912032  1
  H+  H170  1  0.60909684  0.48268744  0.15952728  1
  H+  H171  1  0.59559531  0.46629200  0.83705941  1
  H+  H172  1  0.04024767  0.61561902  0.33138888  1
  H+  H173  1  0.20881673  0.86873247  0.32323348  1
  H+  H174  1  0.58760102  -0.05308065  0.16980182  1
  H+  H175  1  0.57614415  0.14549578  -0.08443102  1
  H+  H176  1  0.39834848  0.05398124  0.12440270  1
  H+  H177  1  1.03712649  0.64092031  0.67689958  1
  H+  H178  1  0.14797775  0.12251165  0.99689976  1
  H+  H179  1  -0.01751304  0.36631604  0.67378978  1
  H+  H180  1  0.63977528  0.75463715  0.65714266  1
  H+  H181  1  0.60774263  0.63011415  0.67341801  1
  H+  H182  1  0.23522647  0.86298675  0.65774585  1
  H+  H183  1  0.35758996  0.85936253  0.47994032  1
  H+  H184  1  0.13992978  0.77266229  0.84270563  1
  H+  H185  1  0.03688253  0.89634949  -0.00757789  1
  H+  H186  1  0.37137375  0.71531798  0.47011749  1
  H+  H187  1  0.37740700  0.59250214  0.98586714  1
  H+  H188  1  0.90483088  0.36897215  0.83929158  1
  H+  H189  1  0.37990435  0.27723213  0.50298166  1
  H+  H190  1  0.12948564  0.63727232  0.49116043  1
  H+  H191  1  0.85827116  0.20103399  0.67816220  1
  H+  H192  1  0.59958749  0.22238485  0.66492430  1
  H+  H193  1  0.36222569  0.23411826  0.00488633  1
  H+  H194  1  0.16372493  0.41467166  0.17982479  1
  H+  H195  1  0.50101723  0.18390169  0.20481903  1
  H+  H196  1  0.79234930  0.14184721  0.17398855  1
  H+  H197  1  0.76296953  0.64274126  0.00924424  1
  H+  H198  1  0.61571813  0.59693040  0.17819734  1
  H+  H199  1  0.37446049  0.36261597  0.99059080  1
  H+  H200  1  0.14211144  0.26600716  0.65860878  1
  H+  H201  1  0.26304261  0.84789144  0.48124160  1
  H+  H202  1  0.12705786  0.89418602  -0.00759413  1
  H+  H203  1  0.49840280  0.88205233  0.51127889  1
  H+  H204  1  0.23163988  0.86403463  0.99406492  1
  H+  H205  1  0.38506960  0.60640337  0.50233865  1
  H+  H206  1  0.84391440  0.49835558  -0.02098226  1
  H+  H207  1  0.05208394  0.48268689  0.71686990  1
  H+  H208  1  0.67160328  0.38616246  0.82837014  1
  H+  H209  1  0.14274151  0.36979509  0.51287506  1
  H+  H210  1  0.63646656  0.76872707  0.50368618  1
  H+  H211  1  0.15839905  0.53927077  0.66492736  1
  H+  H212  1  0.89337967  0.61852826  0.83524317  1
  H+  H213  1  0.26673961  0.61760533  0.00659341  1
  H+  H214  1  0.66949322  0.07144542  0.25205741  1
  H+  H215  1  0.35591727  0.92860625  0.16986889  1
  H+  H216  1  0.15810200  0.59503213  0.31992742  1
  H+  H217  1  0.87326940  0.09836183  0.52562700  1
  H+  H218  1  0.44304462  0.63541844  0.33778323  1
  H+  H219  1  0.16938355  0.82516951  0.56355555  1
  H+  H220  1  0.22952131  0.86111165  0.83907710  1
  H+  H221  1  0.65406084  0.08166898  0.59140501  1
  H+  H222  1  0.71637107  0.36427885  0.65905994  1
  H+  H223  1  0.78584775  0.52241073  0.93884762  1
  H+  H224  1  0.27003263  0.33805588  0.18273912  1
  H+  H225  1  0.71535096  0.12494521  0.34182215  1
  H+  H226  1  0.14227175  0.03744916  0.33033364  1
  H+  H227  1  0.65706346  0.30279854  0.19786068  1
  H+  H228  1  0.36178122  0.81483747  0.17831558  1
  H+  H229  1  0.27191118  0.12418885  0.78237480  1
  H+  H230  1  0.47188592  -0.00098194  0.26004354  1
  H+  H231  1  0.36175640  0.87584313  0.00501435  1
  H+  H232  1  0.71948526  0.10697789  0.00368710  1
  H+  H233  1  0.01627551  0.12748443  0.33081072  1
  H+  H234  1  0.89697862  0.28309795  0.17876674  1
  H+  H235  1  0.57679812  0.92729381  0.73057277  1
  H+  H236  1  0.49776489  0.85814711  0.16902364  1
  H+  H237  1  0.14402968  0.73151014  0.02065580  1
  H+  H238  1  0.15328613  0.02175439  0.82210797  1
  H+  H239  1  0.57966093  0.41107216  0.06286934  1
  H+  H240  1  0.52208508  0.15231613  0.35901397  1
  H+  H241  1  0.11303422  0.87828001  0.49594455  1
  H+  H242  1  0.84164817  0.62947453  0.00430945  1
  H+  H243  1  0.36261645  0.62553682  0.81333144  1
  H+  H244  1  0.16834080  0.57282693  -0.05873964  1
  H+  H245  1  0.51635619  0.63693005  0.82104519  1
  H+  H246  1  0.38237920  0.30349802  0.32156686  1
  H+  H247  1  1.02885856  0.63934750  0.82871321  1
  H+  H248  1  0.87884430  0.27714547  0.32917855  1
  H+  H249  1  0.21959346  0.37143998  0.32767031  1
  H+  H250  1  0.13263373  0.12296952  0.32647829  1
  H+  H251  1  0.36214426  0.48059781  0.67322188  1
  H+  H252  1  0.14371568  0.61918897  0.84809114  1
  H+  H253  1  0.15512700  0.11059108  0.82397449  1
  H+  H254  1  0.03180787  0.90973000  0.35279262  1
  H+  H255  1  0.90215636  1.04264114  -0.00031720  1
  H+  H256  1  0.82860285  0.12063798  0.34906679  1
  H+  H257  1  0.00232942  0.63548598  -0.01805954  1
  H+  H258  1  0.38962642  0.61546268  0.67558500  1
  H+  H259  1  0.72306500  0.60963810  0.50819758  1
  H+  H260  1  0.07558993  0.16444189  0.74043895  1
  H+  H261  1  0.38191325  0.84327561  0.33747173  1
  H+  H262  1  0.86764200  -0.00788505  0.34066940  1
  H+  H263  1  0.91560087  0.34127188  0.27240910  1
  H+  H264  1  0.52096673  0.63427642  0.49791808  1
  H+  H265  1  0.14065986  0.02067951  0.51682535  1
  H+  H266  1  0.12848072  0.64171661  0.67484479  1
  H+  H267  1  0.12207194  0.87532716  0.66855132  1
  H+  H268  1  0.13947413  0.55147646  0.16462036  1
  H+  H269  1  0.86374461  0.63005796  0.49080075  1
  H+  H270  1  0.37614607  0.18012035  0.17658057  1
  H+  H271  1  0.21108265  0.85506506  0.16971546  1
  H+  H272  1  0.74245238  0.84780172  0.65450776  1
  H+  H273  1  0.10379251  0.22234566  0.33210800  1
  H+  H274  1  0.01420997  0.38445544  0.35668494  1
  H+  H275  1  1.03403535  0.13331724  0.83655885  1
  H+  H276  1  0.47688591  0.61736649  0.66264505  1
  H+  H277  1  0.08788101  0.23630632  0.48380336  1
  H+  H278  1  0.86341975  0.64112667  0.33904521  1
  H+  H279  1  0.17679698  0.09717374  0.24345019  1
  H+  H280  1  0.38877862  0.02320491  0.83313392  1
  H+  H281  1  0.14547384  0.35849980  0.98655332  1
  H+  H282  1  0.24068698  0.36270100  0.98956054  1
  H+  H283  1  0.76099569  0.63317532  0.16088305  1
  H+  H284  1  0.03772084  0.62981314  0.48040124  1
  H+  H285  1  0.60374058  0.47691558  0.49967935  1
  H+  H286  1  0.38216667  -0.03310048  0.28860224  1
  H+  H287  1  0.63575502  0.61363270  0.50723962  1
  H+  H288  1  0.09326890  0.66999964  0.77181412  1
  H+  H289  1  0.80707948  0.91054113  0.10997917  1
  H+  H290  1  0.46428056  0.35631972  0.98946516  1
  H+  H291  1  0.40785852  0.09333259  0.56137537  1
  H+  H292  1  0.14475219  0.64305624  0.02505944  1
  H+  H293  1  0.57538409  0.66630436  0.43621671  1
  H+  H294  1  0.84309520  0.17914616  0.40622893  1
  H+  H295  1  0.91361760  0.58329834  0.26881920  1
  H+  H296  1  0.84698153  0.41806499  0.05326512  1
  H+  H297  1  0.19797166  0.60166719  0.60800387  1
  H+  H298  1  0.92004002  0.84847788  0.29066164  1
  H+  H299  1  0.93772109  0.83441102  0.20273347  1
  H+  H300  1  0.33274994  0.18758752  0.43704289  1
  H+  H301  1  0.41689178  0.36727653  0.26390193  1
  H+  H302  1  0.54425134  0.11111129  0.07443881  1
  H+  H303  1  0.47282852  0.39319054  0.16297386  1
  H+  H304  1  0.33575226  0.17897220  0.06781287  1
  H+  H305  1  0.36149716  0.47624868  0.50087269  1
  H+  H306  1  0.68224789  0.34462742  0.92553022  1
  H+  H307  1  0.33995856  0.64708893  0.41554629  1
  H+  H308  1  0.23045285  0.35730352  0.83783000  1
  H+  H309  1  0.94103511  0.58192457  0.55111661  1
  H+  H310  1  0.82913809  0.89776745  0.75625385  1
  H+  H311  1  0.17231978  0.32172346  0.56223011  1
  H+  H312  1  0.33046164  0.41832788  0.76656331  1
  H+  H313  1  0.62283533  0.51291997  0.66369119  1
  H+  H314  1  0.81885577  0.65928648  0.09953494  1
  H+  H315  1  0.09275494  0.92163699  0.43868773  1
  H+  H316  1  0.67086029  0.29653315  0.82644383  1
  H+  H317  1  0.40062920  0.07428633  0.89192785  1
  H+  H318  1  0.20511357  0.30502356  0.23869477  1
  H+  H319  1  0.33433858  0.64658825  0.06189564  1
  H+  H320  1  0.15102583  0.84725521  0.26379675  1
  H+  H321  1  0.66379512  0.83182670  0.89449141  1
  H+  H322  1  0.58340180  0.66966758  0.73155813  1
  H+  H323  1  0.09359040  0.37806144  0.05345914  1
  H+  H324  1  0.64137697  0.56936067  0.90354682  1
  H+  H325  1  0.41530519  0.82498901  0.27557948  1
  H+  H326  1  0.90517978  0.06739592  0.61456770  1
  H+  H327  1  0.44250698  0.69554715  0.12252553  1
  H+  H328  1  0.83356293  0.90921584  0.42826830  1
  H+  H329  1  0.31629530  0.89517752  0.39530078  1
  H+  H330  1  0.94718902  0.20070804  0.46456667  1
  H+  H331  1  0.45531263  0.92388755  0.54821308  1
  H+  H332  1  0.57046448  0.42236521  0.43824794  1
  H+  H333  1  0.90714476  0.62520061  0.62709784  1
  H+  H334  1  0.17327362  0.83296215  0.93357906  1
  H+  H335  1  0.42740088  0.10132492  0.23366836  1
  H+  H336  1  0.41889114  0.34218364  0.60395150  1
  H+  H337  1  0.35786553  0.25603601  0.16168336  1
  H+  H338  1  0.56790731  0.89886065  0.06785787  1
  H+  H339  1  0.85904394  0.22910096  0.83052384  1
  H+  H340  1  0.67472104  0.81835695  0.59214003  1
  H+  H341  1  0.60439071  0.96439921  0.01151093  1
  H+  H342  1  0.33909575  0.41362528  0.05159857  1
  H+  H343  1  0.55036459  0.63963502  0.06672539  1
  H+  H344  1  0.61149075  0.12328038  0.50018826  1
  H+  H345  1  0.32692225  0.88822142  0.10319923  1
  H+  H346  1  -0.01909662  0.85772616  0.49496235  1
  H+  H347  1  0.60687507  0.72493701  0.82327753  1
  H+  H348  1  0.14706639  0.77213296  0.66048268  1
  H+  H349  1  0.59562694  0.92020727  0.44241463  1
  H+  H350  1  0.17687394  0.11880257  0.59650264  1
  H+  H351  1  0.40839991  0.82031253  0.61248980  1
  H+  H352  1  0.09961855  0.37973073  0.35829916  1
  H+  H353  1  0.79954573  0.39996374  0.81655264  1
  H+  H354  1  0.66149886  0.33529243  0.56627283  1
  H+  H355  1  0.15720031  0.37646729  0.27652409  1
  H+  H356  1  0.65382317  0.82681944  0.27577528  1
  H+  H357  1  0.41068124  0.81908046  0.89320166  1
  H+  H358  1  0.54163685  0.15174619  0.07131883  1
  H+  H359  1  0.88661966  0.48905245  0.81401184  1
  H+  H360  1  0.06352387  0.45368176  0.08243374  1
  H+  H361  1  0.57466603  0.40613198  0.73479699  1
  H+  H362  1  0.10094892  0.64445575  0.38896546  1
  H+  H363  1  0.86097051  0.89571785  0.00962606  1
  H+  H364  1  0.32797387  0.90865669  0.76283065  1
  H+  H365  1  0.84203012  0.42890860  0.72659406  1
  H+  H366  1  0.36333471  0.96641174  0.01065751  1
  H+  H367  1  0.10223610  0.17069320  0.06263735  1
  H+  H368  1  0.83256527  0.17352849  0.07282116  1
  H+  H369  1  0.58327156  0.16973546  0.41743697  1
  H+  H370  1  0.09101850  0.92146346  0.08211746  1
  H+  H371  1  0.09001258  0.67120064  0.11502078  1
  H+  H372  1  0.17460608  0.32506528  0.89977995  1
  H+  H373  1  0.08264392  0.41883918  0.45036520  1
  H+  H374  1  0.39845905  0.32897974  0.89756806  1
  H+  H375  1  0.60239436  0.18696683  0.75800355  1
  H+  H376  1  0.85612176  0.95728008  0.67010257  1
  H+  H377  1  0.46270235  0.10860939  0.65769898  1
  H+  H378  1  0.82976175  0.65869466  0.43322677  1
  H+  H379  1  0.31729290  0.41656308  0.40074405  1
  H+  H380  1  0.81854541  0.15218551  0.74024093  1
  H+  H381  1  0.98654699  0.86720107  0.83920833  1
  H+  H382  1  0.91005539  0.57211884  0.88907858  1
  H+  H383  1  0.92908596  0.33177708  0.89951645  1
  O2-  O384  1  0.09261071  0.15287937  0.14439322  1
  O2-  O385  1  0.03617140  0.18706489  0.46555576  1
  O2-  O386  1  0.08958137  0.16178982  0.81608863  1
  O2-  O387  1  0.05721437  0.47328676  0.12305852  1
  O2-  O388  1  0.09130319  0.42438346  0.49614208  1
  O2-  O389  1  0.07835165  0.37899365  0.79774508  1
  O2-  O390  1  0.07121980  0.66953363  0.15849597  1
  O2-  O391  1  0.09936736  0.66451995  0.47039605  1
  O2-  O392  1  0.09118652  0.67092265  0.81698829  1
  O2-  O393  1  0.08100370  0.91571803  0.12684159  1
  O2-  O394  1  0.08243731  0.90979170  0.48331904  1
  O2-  O395  1  0.08639938  0.90976848  0.81004618  1
  O2-  O396  1  0.33557301  0.19357428  0.15425647  1
  O2-  O397  1  0.33697252  0.18741184  0.48201033  1
  O2-  O398  1  0.32096789  0.15188166  0.75146969  1
  O2-  O399  1  0.37505633  0.41630516  0.15630998  1
  O2-  O400  1  0.33239883  0.41469838  0.48538482  1
  O2-  O401  1  0.32874132  0.42101755  0.81184583  1
  O2-  O402  1  0.38869401  0.65841829  0.14355419  1
  O2-  O403  1  0.33977397  0.65357579  0.46287670  1
  O2-  O404  1  0.33153810  0.65647111  0.79705486  1
  O2-  O405  1  0.31809670  0.87527020  0.14798827  1
  O2-  O406  1  0.30834316  0.84985653  0.45411545  1
  O2-  O407  1  0.32615551  0.90648615  0.80835987  1
  O2-  O408  1  0.62195226  0.19901835  0.17893666  1
  O2-  O409  1  0.58213583  0.15996049  0.48401460  1
  O2-  O410  1  0.63076374  0.20738552  0.79830568  1
  O2-  O411  1  0.57524782  0.42235988  0.14300023  1
  O2-  O412  1  0.56906989  0.41649971  0.48391546  1
  O2-  O413  1  0.57487427  0.40542193  0.81879207  1
  O2-  O414  1  0.53840378  0.61951017  0.15377763  1
  O2-  O415  1  0.58102032  0.66576002  0.48200899  1
  O2-  O416  1  0.57737228  0.66548632  0.80638549  1
  O2-  O417  1  0.55830282  0.88896242  0.15210166  1
  O2-  O418  1  0.59911687  0.91927445  0.48761609  1
  O2-  O419  1  0.58350300  0.92869714  0.81359976  1
  O2-  O420  1  0.85073967  0.17533786  0.15732004  1
  O2-  O421  1  0.88925086  0.19528682  0.46984982  1
  O2-  O422  1  0.82397963  0.16720521  0.81733078  1
  O2-  O423  1  0.84407096  0.42626274  0.13450420  1
  O2-  O424  1  0.83293093  0.41297823  0.48560832  1
  O2-  O425  1  0.85866723  0.42801117  0.79803176  1
  O2-  O426  1  0.82132449  0.66162587  0.14536925  1
  O2-  O427  1  0.83226319  0.66024875  0.47904196  1
  O2-  O428  1  0.84265140  0.66509370  0.83111319  1
  O2-  O429  1  0.80376398  0.90521368  0.15507142  1
  O2-  O430  1  0.83191320  0.89165685  0.47274551  1
  O2-  O431  1  0.83168608  0.90598392  0.80168553  1
  O2-  O432  1  0.18269464  0.09626254  0.19633404  1
  O2-  O433  1  0.16710586  0.08196648  0.52798741  1
  O2-  O434  1  0.19177001  0.08439024  0.82836731  1
  O2-  O435  1  0.21786352  0.28737694  0.19966524  1
  O2-  O436  1  0.17103183  0.33394439  0.51778810  1
  O2-  O437  1  0.17053196  0.32021507  0.85399553  1
  O2-  O438  1  0.17715874  0.60457652  0.18867752  1
  O2-  O439  1  0.18616499  0.59377436  0.52543969  1
  O2-  O440  1  0.17298603  0.58875031  0.86396947  1
  O2-  O441  1  0.15326126  0.83815391  0.18585430  1
  O2-  O442  1  0.16614919  0.82598999  0.51808761  1
  O2-  O443  1  0.16998748  0.83374943  0.85722746  1
  O2-  O444  1  0.44354372  0.16096492  0.22208813  1
  O2-  O445  1  0.41248005  0.10453337  0.51668910  1
  O2-  O446  1  0.42353683  0.08112126  0.85060122  1
  O2-  O447  1  0.41434152  0.36757717  0.18233764  1
  O2-  O448  1  0.40973803  0.34202310  0.51688815  1
  O2-  O449  1  0.39102517  0.32896134  0.85249717  1
  O2-  O450  1  0.45642321  0.56794702  0.18701263  1
  O2-  O451  1  0.41277199  0.57642961  0.52319543  1
  O2-  O452  1  0.41185331  0.58249440  0.84620579  1
  O2-  O453  1  0.40059689  0.79776295  0.19866760  1
  O2-  O454  1  0.44094803  0.87002495  0.52809270  1
  O2-  O455  1  0.41610998  0.82621482  0.84811922  1
  O2-  O456  1  0.68065134  0.05752448  0.20967000  1
  O2-  O457  1  0.65017016  0.07568729  0.52073004  1
  O2-  O458  1  0.66008598  0.08907122  0.86232430  1
  O2-  O459  1  0.66111253  0.35727803  0.21275405  1
  O2-  O460  1  0.66555832  0.33514356  0.52064616  1
  O2-  O461  1  0.70077664  0.35696330  0.84578316  1
  O2-  O462  1  0.65805932  0.57950815  0.19149519  1
  O2-  O463  1  0.66296088  0.58090866  0.52358612  1
  O2-  O464  1  0.62968432  0.55585306  0.85957186  1
  O2-  O465  1  0.63103529  0.79581535  0.19799237  1
  O2-  O466  1  0.67541312  0.82882727  0.51951607  1
  O2-  O467  1  0.66244356  0.83338300  0.84911133  1
  O2-  O468  1  0.92860683  0.08312823  0.18943783  1
  O2-  O469  1  0.90352293  0.06939854  0.54103033  1
  O2-  O470  1  0.89412326  0.07509363  0.86553321  1
  O2-  O471  1  0.92004663  0.34286037  0.19426854  1
  O2-  O472  1  0.92076793  0.33869836  0.53341168  1
  O2-  O473  1  0.92485394  0.32969084  0.85338017  1
  O2-  O474  1  0.90703515  0.57809651  0.18593739  1
  O2-  O475  1  0.92509169  0.57852835  0.50846984  1
  O2-  O476  1  0.92409525  0.58394668  0.84537949  1
  O2-  O477  1  0.90470098  0.82838581  0.16625568  1
  O2-  O478  1  0.91729007  0.82718420  0.50677197  1
  O2-  O479  1  0.92736252  0.83903798  0.85753801  1
  O2-  O480  1  0.16943172  0.09716231  0.31200798  1
  O2-  O481  1  0.19437981  0.15095216  0.63652179  1
  O2-  O482  1  0.18059529  0.09107225  0.98260261  1
  O2-  O483  1  0.15984720  0.33873930  0.30726416  1
  O2-  O484  1  0.19372872  0.30035997  0.63270071  1
  O2-  O485  1  0.17680324  0.32656466  0.97511493  1
  O2-  O486  1  0.19654404  0.57734978  0.29748600  1
  O2-  O487  1  0.19362566  0.60075905  0.65325162  1
  O2-  O488  1  0.16969891  0.56838392  0.98655359  1
  O2-  O489  1  0.14958098  0.84898271  0.30909544  1
  O2-  O490  1  0.17343490  0.83055290  0.64191073  1
  O2-  O491  1  0.17109481  0.83607965  0.97918832  1
  O2-  O492  1  0.41844215  -0.00074073  0.25306779  1
  O2-  O493  1  0.40362199  0.07415661  0.64022740  1
  O2-  O494  1  0.40249202  0.06873502  0.98220907  1
  O2-  O495  1  0.41853791  0.36466400  0.30908996  1
  O2-  O496  1  0.42306734  0.34281567  0.64835516  1
  O2-  O497  1  0.40369051  0.32465963  0.97623475  1
  O2-  O498  1  0.38341610  0.60069050  0.32322315  1
  O2-  O499  1  0.41524100  0.58879357  0.64999238  1
  O2-  O500  1  0.40994685  0.56593516  0.96870997  1
  O2-  O501  1  0.43362940  0.85775030  0.31441409  1
  O2-  O502  1  0.40700803  0.82742285  0.65654595  1
  O2-  O503  1  0.40762867  0.81734747  0.97393860  1
  O2-  O504  1  0.65676740  0.09302771  0.32328065  1
  O2-  O505  1  0.65183674  0.08388813  0.63836550  1
  O2-  O506  1  0.65985882  0.06941986  0.98627515  1
  O2-  O507  1  0.65970565  0.34556143  0.33747663  1
  O2-  O508  1  0.65725682  0.33226942  0.64286547  1
  O2-  O509  1  0.67198267  0.33199036  0.96998480  1
  O2-  O510  1  0.65931467  0.59304863  0.31405013  1
  O2-  O511  1  0.65196005  0.57445462  0.64995690  1
  O2-  O512  1  0.65836123  0.58092835  0.98324148  1
  O2-  O513  1  0.66711059  0.84030916  0.31985722  1
  O2-  O514  1  0.67817001  0.81593151  0.63839717  1
  O2-  O515  1  0.65889381  0.82545565  0.97565412  1
  O2-  O516  1  0.92767476  0.08352543  0.30743928  1
  O2-  O517  1  0.90277282  0.06050453  0.66038759  1
  O2-  O518  1  0.93727072  0.09762108  0.97827198  1
  O2-  O519  1  0.91014583  0.33862573  0.31792327  1
  O2-  O520  1  0.92020937  0.32444601  0.66280589  1
  O2-  O521  1  0.93292165  0.32546706  0.97387048  1
  O2-  O522  1  0.91812909  0.58890338  0.31388377  1
  O2-  O523  1  0.92286221  0.60503270  0.66327491  1
  O2-  O524  1  0.84156878  0.54745695  0.95879486  1
  O2-  O525  1  0.91588419  0.84555098  0.33475128  1
  O2-  O526  1  0.92564549  0.83900949  0.63676215  1
  O2-  O527  1  0.92542169  0.84299307  0.98038300  1
  O2-  O528  1  0.10566090  0.17155146  0.01753333  1
  O2-  O529  1  0.07926392  0.16406210  0.34924281  1
  O2-  O530  1  0.07053010  0.16611247  0.69513532  1
  O2-  O531  1  0.08707554  0.40033484  0.01471830  1
  O2-  O532  1  0.06999269  0.40688884  0.37776234  1
  O2-  O533  1  0.07344432  0.44669204  0.70004248  1
  O2-  O534  1  0.14034612  0.68739142  0.04898581  1
  O2-  O535  1  0.09756372  0.62911350  0.34545071  1
  O2-  O536  1  0.09709396  0.67018662  0.69164822  1
  O2-  O537  1  0.09913020  0.92955247  0.00388926  1
  O2-  O538  1  0.09421320  0.93986686  0.36112728  1
  O2-  O539  1  0.08998940  0.90460078  0.68464084  1
  O2-  O540  1  0.33308986  0.17254023  0.02307032  1
  O2-  O541  1  0.32688062  0.20141594  0.35479978  1
  O2-  O542  1  0.28255783  0.09658084  0.69860043  1
  O2-  O543  1  0.33514692  0.40977290  0.00730013  1
  O2-  O544  1  0.30793289  0.41275100  0.35661708  1
  O2-  O545  1  0.33769994  0.42094582  0.68900902  1
  O2-  O546  1  0.33072271  0.65110035  0.01753301  1
  O2-  O547  1  0.34105582  0.64638313  0.34625160  1
  O2-  O548  1  0.34328993  0.65853997  0.73080692  1
  O2-  O549  1  0.33416998  0.90557213  0.02547279  1
  O2-  O550  1  0.31627581  0.92467964  0.35444944  1
  O2-  O551  1  0.32910674  0.91145095  0.68506303  1
  O2-  O552  1  0.57874702  0.15700559  -0.04074404  1
  O2-  O553  1  0.58278056  0.17825588  0.36985433  1
  O2-  O554  1  0.56903113  0.16307283  0.68159547  1
  O2-  O555  1  0.58017867  0.41116593  0.01761880  1
  O2-  O556  1  0.57439759  0.43167637  0.36286720  1
  O2-  O557  1  0.57806188  0.41058239  0.68998671  1
  O2-  O558  1  0.56223838  0.65057972  0.02285260  1
  O2-  O559  1  0.56836754  0.67374038  0.36123801  1
  O2-  O560  1  0.58421623  0.66869947  0.68539171  1
  O2-  O561  1  0.57177245  0.90194339  0.02287428  1
  O2-  O562  1  0.58937408  0.92492401  0.36281658  1
  O2-  O563  1  0.56956031  0.92025370  0.68597266  1
  O2-  O564  1  0.81562323  0.17063361  0.02996074  1
  O2-  O565  1  0.82009056  0.16763168  0.36255075  1
  O2-  O566  1  0.81847483  0.14393719  0.69494712  1
  O2-  O567  1  0.83994342  0.41043834  0.00854518  1
  O2-  O568  1  0.83307270  0.42348471  0.36363721  1
  O2-  O569  1  0.83216795  0.43272136  0.68099613  1
  O2-  O570  1  0.82389330  0.66833834  0.02355298  1
  O2-  O571  1  0.82988000  0.66680751  0.35695020  1
  O2-  O572  1  0.80346482  0.65888883  0.71430598  1
  O2-  O573  1  0.82948138  0.92339479  0.02630318  1
  O2-  O574  1  0.83425833  0.93112853  0.35826988  1
  O2-  O575  1  0.82791062  0.89353813  0.67955546  1
