# generated using pymatgen
data_H2O
_symmetry_space_group_name_H-M   'P 1'
_cell_length_a   17.98807169
_cell_length_b   17.98656791
_cell_length_c   21.99348647
_cell_angle_alpha   90.00876368
_cell_angle_beta   90.00107103
_cell_angle_gamma   120.00504808
_symmetry_Int_Tables_number   1
_chemical_formula_structural   H2O
_chemical_formula_sum   'H384 O192'
_cell_volume   6162.19620222
_cell_formula_units_Z   192
loop_
 _symmetry_equiv_pos_site_id
 _symmetry_equiv_pos_as_xyz
  1  'x, y, z'
loop_
 _atom_type_symbol
 _atom_type_oxidation_number
  H+  1.0
  O2-  -2.0
loop_
 _atom_site_type_symbol
 _atom_site_label
 _atom_site_symmetry_multiplicity
 _atom_site_fract_x
 _atom_site_fract_y
 _atom_site_fract_z
 _atom_site_occupancy
  H+  H0  1  0.13308011  0.74748360  0.67273137  1
  H+  H1  1  0.37775943  0.88769661  0.68414301  1
  H+  H2  1  0.87649240  0.60631065  -0.00973925  1
  H+  H3  1  0.63470616  0.52715848  0.65462664  1
  H+  H4  1  0.38700854  0.64851259  0.15695947  1
  H+  H5  1  0.86914155  0.47791322  0.33625745  1
  H+  H6  1  0.42050902  0.63092653  0.88008784  1
  H+  H7  1  0.08799416  0.69617608  0.55041220  1
  H+  H8  1  0.90862217  0.93376099  0.04041538  1
  H+  H9  1  0.10654486  0.14073869  0.15720922  1
  H+  H10  1  0.62796979  0.87809106  0.66609207  1
  H+  H11  1  0.10973996  0.96447484  0.50649499  1
  H+  H12  1  0.63106807  0.97252264  0.66589650  1
  H+  H13  1  0.08270337  0.15924873  0.47208551  1
  H+  H14  1  0.90612539  0.34073342  0.89482609  1
  H+  H15  1  0.13957128  0.26974015  0.52594548  1
  H+  H16  1  0.49609527  0.61910138  0.85343354  1
  H+  H17  1  0.90935119  0.09707295  0.46611941  1
  H+  H18  1  0.63599414  0.25312035  0.66224737  1
  H+  H19  1  0.67270254  0.83693422  0.58057829  1
  H+  H20  1  0.88877127  0.77877282  0.52966910  1
  H+  H21  1  0.02833716  0.13656695  0.82328418  1
  H+  H22  1  0.42213099  0.91768208  1.00059117  1
  H+  H23  1  0.38766224  0.12859788  0.16619563  1
  H+  H24  1  0.41002304  0.88366821  0.02449157  1
  H+  H25  1  0.38983687  0.10663258  0.50429613  1
  H+  H26  1  0.36734830  0.63805390  0.35120104  1
  H+  H27  1  0.89325796  0.79259728  0.18617829  1
  H+  H28  1  0.36162189  0.47431154  0.33373856  1
  H+  H29  1  0.64129586  0.28071853  1.00148185  1
  H+  H30  1  1.02503748  0.39314172  0.66806856  1
  H+  H31  1  0.14023796  0.77350936  -0.00316186  1
  H+  H32  1  0.85968965  0.68500844  0.45243594  1
  H+  H33  1  0.87205684  0.25475814  0.51559605  1
  H+  H34  1  0.77257039  0.88047336  0.49880325  1
  H+  H35  1  0.61050700  0.98354670  0.15307957  1
  H+  H36  1  0.42971096  0.89333361  0.50309503  1
  H+  H37  1  0.47256391  0.34982566  0.46513616  1
  H+  H38  1  0.64297601  0.90499630  0.49555615  1
  H+  H39  1  0.11577435  0.22860951  -0.00480648  1
  H+  H40  1  0.52931036  0.39454919  0.68582746  1
  H+  H41  1  0.51206976  0.89120056  0.35247583  1
  H+  H42  1  0.29110170  0.63694977  0.81517193  1
  H+  H43  1  0.58954473  0.14196965  0.02368321  1
  H+  H44  1  0.78234544  0.39191148  0.81406472  1
  H+  H45  1  0.89298751  0.38823207  0.65547476  1
  H+  H46  1  0.52046550  0.15038570  0.33824214  1
  H+  H47  1  0.57641626  0.18480000  0.08167790  1
  H+  H48  1  0.11857215  0.13918553  0.82560319  1
  H+  H49  1  0.10073649  0.87689318  0.01287130  1
  H+  H50  1  0.86296574  0.87934813  0.82293015  1
  H+  H51  1  0.86686648  0.96147671  0.67516763  1
  H+  H52  1  0.13469496  0.15903780  0.29629851  1
  H+  H53  1  0.61891198  0.77166648  0.32287876  1
  H+  H54  1  0.46636052  0.12381974  1.00586585  1
  H+  H55  1  0.86397759  0.70771324  0.67281894  1
  H+  H56  1  0.64150538  0.16816347  0.66235604  1
  H+  H57  1  0.41614755  0.34065122  0.74893583  1
  H+  H58  1  0.60275734  0.50993644  0.30729278  1
  H+  H59  1  -0.01761165  0.86785070  -0.01335225  1
  H+  H60  1  0.14181214  0.86847988  0.83989158  1
  H+  H61  1  0.50301790  0.64172819  0.48387798  1
  H+  H62  1  0.64038030  0.61471420  0.50237203  1
  H+  H63  1  0.73881811  0.39458596  0.64938701  1
  H+  H64  1  0.00459703  0.80989026  0.36414244  1
  H+  H65  1  0.22829301  0.62470213  0.65104556  1
  H+  H66  1  0.54515146  0.63664344  0.02879032  1
  H+  H67  1  0.53666926  0.73198964  0.45544278  1
  H+  H68  1  0.14099592  0.03744701  0.16573711  1
  H+  H69  1  0.21320557  0.87255192  1.00469663  1
  H+  H70  1  0.72755045  0.08171639  0.31284345  1
  H+  H71  1  0.52917572  0.14605411  0.49590212  1
  H+  H72  1  0.00075374  0.52262682  0.44613651  1
  H+  H73  1  0.77802064  0.72493061  0.05235858  1
  H+  H74  1  0.63630225  0.72569443  0.02950646  1
  H+  H75  1  -0.03795503  0.68144251  -0.03311655  1
  H+  H76  1  0.02038186  0.90474864  0.17013136  1
  H+  H77  1  0.61105606  0.47303886  0.48249703  1
  H+  H78  1  0.11622463  0.73549504  0.82252382  1
  H+  H79  1  0.36445428  0.13695199  0.32959207  1
  H+  H80  1  0.12180794  0.58319134  0.49988370  1
  H+  H81  1  0.35768591  0.21135388  0.47358582  1
  H+  H82  1  0.88480321  0.76172626  0.82338712  1
  H+  H83  1  0.36399799  0.22718620  0.68642441  1
  H+  H84  1  0.38386580  0.34900971  0.47086025  1
  H+  H85  1  0.50195604  0.13678782  0.65148350  1
  H+  H86  1  0.21521452  0.10790246  0.99093211  1
  H+  H87  1  0.22515640  0.36987002  0.15458329  1
  H+  H88  1  0.87156514  0.25945067  0.17419176  1
  H+  H89  1  0.37166095  0.48371246  0.84104106  1
  H+  H90  1  0.61073136  0.73334986  0.66851546  1
  H+  H91  1  0.74951502  0.86022008  1.01719867  1
  H+  H92  1  0.60846137  0.23794598  0.33904613  1
  H+  H93  1  0.36396675  0.64341741  0.65611809  1
  H+  H94  1  0.09244837  0.17412297  0.73206876  1
  H+  H95  1  0.11802889  0.64383099  0.34179900  1
  H+  H96  1  0.65283151  0.53712423  0.21162588  1
  H+  H97  1  0.16226902  0.60427411  0.17723626  1
  H+  H98  1  0.85806882  0.37889936  0.16390563  1
  H+  H99  1  0.27133458  0.12187051  0.48964732  1
  H+  H100  1  0.61938998  0.24113728  0.16711559  1
  H+  H101  1  0.33346542  0.16260884  0.39083927  1
  H+  H102  1  0.88074451  0.34546702  0.50005655  1
  H+  H103  1  0.86718975  0.58103179  0.51582205  1
  H+  H104  1  0.38774627  0.53146202  0.65969531  1
  H+  H105  1  0.61922577  0.47536847  0.82822989  1
  H+  H106  1  0.25677447  0.86225859  0.16731353  1
  H+  H107  1  0.06712465  0.97965128  0.35528808  1
  H+  H108  1  0.38209247  0.51181643  0.50416771  1
  H+  H109  1  0.88851510  0.27406867  -0.01356984  1
  H+  H110  1  0.85551461  0.45678844  0.49815795  1
  H+  H111  1  0.39715730  1.02712132  0.31392144  1
  H+  H112  1  0.15319003  0.77590256  0.34113840  1
  H+  H113  1  0.62915425  1.00626318  0.82316789  1
  H+  H114  1  -0.02413509  0.11917549  0.17468778  1
  H+  H115  1  0.34514979  0.86209278  0.15923926  1
  H+  H116  1  0.15498284  0.62053043  0.99005511  1
  H+  H117  1  0.27798112  0.15446735  0.14882671  1
  H+  H118  1  0.37512969  0.03560942  1.00844283  1
  H+  H119  1  0.83340324  0.78346500  0.33150314  1
  H+  H120  1  0.01656740  0.12404770  0.52436846  1
  H+  H121  1  0.23593133  0.52132914  0.87138893  1
  H+  H122  1  0.38481922  0.66413040  0.79230712  1
  H+  H123  1  0.89592666  0.09121477  0.33824558  1
  H+  H124  1  0.13940239  0.02421810  0.83623231  1
  H+  H125  1  0.02788539  0.88403104  0.82000708  1
  H+  H126  1  0.38583938  0.37302277  0.69355949  1
  H+  H127  1  0.84124917  0.18467229  0.34729869  1
  H+  H128  1  0.59180402  0.91875283  0.75479624  1
  H+  H129  1  0.09644715  -0.00876980  0.38276220  1
  H+  H130  1  0.85599340  0.89494848  0.39921980  1
  H+  H131  1  0.76606943  0.61690905  0.47818343  1
  H+  H132  1  0.62278393  0.21977693  0.83842003  1
  H+  H133  1  0.39534101  0.87520954  0.84262590  1
  H+  H134  1  0.76505338  0.37325813  0.01050710  1
  H+  H135  1  0.55153840  0.87345692  -0.00498440  1
  H+  H136  1  0.39181862  0.02833214  0.84560405  1
  H+  H137  1  0.88401384  0.65761062  0.16579949  1
  H+  H138  1  0.15563391  0.37204002  -0.01383966  1
  H+  H139  1  0.73014934  0.62023194  -0.00848634  1
  H+  H140  1  0.64006826  0.37651332  0.31960019  1
  H+  H141  1  0.85518067  0.62720883  0.81978817  1
  H+  H142  1  0.63075273  0.48329730  1.00837340  1
  H+  H143  1  0.72276343  0.85478110  0.83337976  1
  H+  H144  1  0.09793335  0.36690594  0.83799245  1
  H+  H145  1  0.28105827  0.38661574  0.02846238  1
  H+  H146  1  0.47950688  0.87774097  0.17821892  1
  H+  H147  1  0.35282249  0.61211330  0.49925719  1
  H+  H148  1  0.63115699  0.10607376  0.83920190  1
  H+  H149  1  0.14556786  0.51244727  0.19021265  1
  H+  H150  1  0.36286474  0.38549286  0.33140085  1
  H+  H151  1  0.85311534  0.38043331  0.33859284  1
  H+  H152  1  0.61987144  0.39895853  0.66861516  1
  H+  H153  1  0.88841010  0.09631931  0.68103801  1
  H+  H154  1  0.54393454  0.39383557  0.01255036  1
  H+  H155  1  0.61320880  0.06205083  0.59952319  1
  H+  H156  1  0.23466316  0.36842866  0.31929224  1
  H+  H157  1  0.36821860  0.13934233  0.83407136  1
  H+  H158  1  0.41705619  0.33756523  0.25726498  1
  H+  H159  1  0.89136613  1.03961419  -0.01072304  1
  H+  H160  1  0.71957862  0.85139714  0.65946693  1
  H+  H161  1  0.27130708  0.38048356  0.49201547  1
  H+  H162  1  0.63559961  0.85637768  0.82977276  1
  H+  H163  1  -0.02068337  0.62012417  0.32391180  1
  H+  H164  1  0.25668023  0.88281710  0.51091054  1
  H+  H165  1  0.62935659  0.27497823  0.50262454  1
  H+  H166  1  0.52057572  0.38727962  0.32978655  1
  H+  H167  1  0.63482118  0.64752389  0.18924252  1
  H+  H168  1  0.25146185  0.14353769  0.31908112  1
  H+  H169  1  0.13182473  0.50242397  0.51041384  1
  H+  H170  1  0.60926714  0.64282447  0.66887161  1
  H+  H171  1  0.53854142  0.40697274  0.16521845  1
  H+  H172  1  0.64571366  0.78507324  0.51392477  1
  H+  H173  1  0.39415426  0.27590469  0.83945552  1
  H+  H174  1  -0.01966856  0.36645920  0.83857573  1
  H+  H175  1  0.87411261  1.00694780  0.49793024  1
  H+  H176  1  0.85563203  0.75558589  1.00767287  1
  H+  H177  1  0.12509795  0.48783235  -0.01231262  1
  H+  H178  1  0.14778669  0.37369736  0.32314083  1
  H+  H179  1  0.01825262  0.36576158  0.49395482  1
  H+  H180  1  0.65929264  0.85571906  1.01250872  1
  H+  H181  1  0.11444912  0.47998609  0.66933382  1
  H+  H182  1  0.20162351  0.57792111  0.89964409  1
  H+  H183  1  0.72159856  0.11607784  0.16167085  1
  H+  H184  1  0.40212463  0.36987598  0.99952404  1
  H+  H185  1  0.90905164  0.88247100  0.95740590  1
  H+  H186  1  0.64746758  0.36404167  0.83800452  1
  H+  H187  1  0.65375667  0.37519935  1.00041457  1
  H+  H188  1  0.85917868  0.98923592  0.17129867  1
  H+  H189  1  0.52899485  0.13330556  0.84368500  1
  H+  H190  1  0.35462599  0.14083806  -0.00144378  1
  H+  H191  1  0.47857903  0.61994464  0.65536867  1
  H+  H192  1  0.52636977  0.89124447  0.81420408  1
  H+  H193  1  0.03174069  0.14200166  0.30433770  1
  H+  H194  1  0.59666285  0.42026192  0.76739188  1
  H+  H195  1  0.27046200  0.98294974  0.07115868  1
  H+  H196  1  0.89113226  0.52484368  0.82940637  1
  H+  H197  1  0.24382447  0.61921317  0.99593179  1
  H+  H198  1  0.82647616  0.10612493  0.52634554  1
  H+  H199  1  0.76566766  0.62832119  0.82337410  1
  H+  H200  1  0.37234395  0.63193800  0.01881109  1
  H+  H201  1  0.14062535  0.27076037  0.84170026  1
  H+  H202  1  0.82036099  0.64626811  0.72818920  1
  H+  H203  1  0.05403737  0.70786469  0.55573442  1
  H+  H204  1  0.76728723  0.62929996  0.29638552  1
  H+  H205  1  0.72583817  0.87600663  0.18273181  1
  H+  H206  1  0.61463934  0.14828342  0.16279944  1
  H+  H207  1  0.39866979  0.78567273  0.18719215  1
  H+  H208  1  0.88731606  0.61469133  0.31498121  1
  H+  H209  1  0.86107785  0.13708582  0.15662297  1
  H+  H210  1  0.28553423  0.65066737  0.35244182  1
  H+  H211  1  0.10453016  0.13494609  -0.00728692  1
  H+  H212  1  0.39638372  0.28556774  0.15974449  1
  H+  H213  1  0.10336374  0.22699044  0.15584447  1
  H+  H214  1  0.64725529  0.08770661  0.97134096  1
  H+  H215  1  0.63965785  0.60821778  0.99870593  1
  H+  H216  1  0.36657396  0.47445006  0.12490489  1
  H+  H217  1  0.65447565  0.00506741  0.98417822  1
  H+  H218  1  0.86296121  0.37474257  0.00798102  1
  H+  H219  1  0.61093838  0.86331433  0.33057803  1
  H+  H220  1  0.36709533  0.92854996  0.42909866  1
  H+  H221  1  0.48663782  0.36464236  0.83640756  1
  H+  H222  1  0.01962583  0.64930278  0.15932696  1
  H+  H223  1  0.44831274  0.60295077  0.09935765  1
  H+  H224  1  0.88705335  0.37571840  0.82758776  1
  H+  H225  1  0.12061213  0.79532776  0.18707654  1
  H+  H226  1  0.15944102  0.54246586  0.34100635  1
  H+  H227  1  0.03218757  0.62801663  0.00679294  1
  H+  H228  1  0.59689417  0.63621877  0.32395286  1
  H+  H229  1  0.15080445  0.86920986  0.66450862  1
  H+  H230  1  0.13503980  0.09786884  0.52374096  1
  H+  H231  1  0.35603124  0.22996493  -0.00423095  1
  H+  H232  1  0.03120576  0.88413935  0.67883009  1
  H+  H233  1  0.95795825  0.34591664  0.19276292  1
  H+  H234  1  0.86578927  -0.02943840  0.82387710  1
  H+  H235  1  -0.01922038  0.86324304  0.52700231  1
  H+  H236  1  0.85895332  0.56429643  0.67104416  1
  H+  H237  1  0.72139596  0.36030688  0.49976154  1
  H+  H238  1  0.23262453  0.11347609  0.66767146  1
  H+  H239  1  0.30329891  0.91795617  0.08371102  1
  H+  H240  1  0.11880599  0.97714084  0.67532857  1
  H+  H241  1  0.42219437  0.76063581  0.98050343  1
  H+  H242  1  0.40850357  0.12584181  0.65618826  1
  H+  H243  1  -0.02436784  0.36708959  -0.01825389  1
  H+  H244  1  0.98032282  0.12572715  0.97929871  1
  H+  H245  1  0.91948507  0.01542728  0.33177435  1
  H+  H246  1  0.10829641  0.90327394  0.17175377  1
  H+  H247  1  0.89983916  0.85104836  0.24334846  1
  H+  H248  1  0.33039994  0.43489433  0.73901296  1
  H+  H249  1  0.27829662  0.13894175  0.83187946  1
  H+  H250  1  0.18477225  0.87436357  0.35255723  1
  H+  H251  1  0.57281749  0.66971583  0.38712187  1
  H+  H252  1  0.49754048  0.87234631  0.65965360  1
  H+  H253  1  0.14225271  0.28439379  0.66340127  1
  H+  H254  1  0.86421306  0.88519437  0.50338459  1
  H+  H255  1  0.06979000  0.91029695  0.07123458  1
  H+  H256  1  0.93162215  0.31124512  0.33193508  1
  H+  H257  1  0.10642881  0.38112609  0.16915628  1
  H+  H258  1  0.03300665  0.14178903  0.67356365  1
  H+  H259  1  0.12175482  0.68913476  0.16281271  1
  H+  H260  1  0.17599022  0.34324245  0.57529650  1
  H+  H261  1  0.61630040  0.38662077  0.48053973  1
  H+  H262  1  0.47454910  0.12669832  0.17129856  1
  H+  H263  1  0.80204527  0.14899609  0.71128641  1
  H+  H264  1  0.10616091  0.45891075  0.83163220  1
  H+  H265  1  0.85787929  0.89885873  0.17167238  1
  H+  H266  1  0.28551496  0.88097387  0.68622288  1
  H+  H267  1  0.64248505  0.78175337  0.18294687  1
  H+  H268  1  0.38978250  0.27739492  0.31720317  1
  H+  H269  1  0.02665616  0.64645490  0.81631966  1
  H+  H270  1  0.80000834  0.11834998  0.40199690  1
  H+  H271  1  0.77445315  0.38948526  0.16042179  1
  H+  H272  1  0.56143697  0.91946079  0.49661354  1
  H+  H273  1  0.87695201  0.14812414  -0.00284722  1
  H+  H274  1  0.39580991  0.37251284  0.15600015  1
  H+  H275  1  0.89021787  0.85057546  0.67770533  1
  H+  H276  1  0.89242668  0.54739939  0.57782363  1
  H+  H277  1  0.47267379  0.61706772  0.32039795  1
  H+  H278  1  0.28203084  0.89469430  0.83610044  1
  H+  H279  1  0.09487177  0.91979252  0.76544984  1
  H+  H280  1  0.05337129  0.42026372  0.34897074  1
  H+  H281  1  0.30823945  0.87658583  0.33256591  1
  H+  H282  1  0.89444978  0.52521296  0.16903495  1
  H+  H283  1  0.16377264  0.87495487  0.51715295  1
  H+  H284  1  0.25868988  0.61284797  0.49607823  1
  H+  H285  1  0.40046577  0.51838808  1.01645511  1
  H+  H286  1  0.61367094  0.72715614  0.82402553  1
  H+  H287  1  0.64901486  0.38021104  0.17491721  1
  H+  H288  1  0.91661714  0.08318749  0.88501820  1
  H+  H289  1  0.05375230  0.41309841  0.12863179  1
  H+  H290  1  0.34487623  0.67473188  0.07115515  1
  H+  H291  1  0.44071096  0.36950612  0.57497235  1
  H+  H292  1  0.79483002  0.63325887  0.36557311  1
  H+  H293  1  0.87746921  0.29579242  0.27240500  1
  H+  H294  1  0.83131562  0.90587490  0.73525255  1
  H+  H295  1  0.83252479  0.40329198  0.07488606  1
  H+  H296  1  0.41389167  0.57484902  0.56452731  1
  H+  H297  1  0.65306822  0.84133557  0.26404802  1
  H+  H298  1  0.72487639  0.61214261  0.65243600  1
  H+  H299  1  0.06950776  0.65102779  0.39891362  1
  H+  H300  1  0.15491796  0.06361396  0.32160758  1
  H+  H301  1  0.59211857  0.91772136  0.06072778  1
  H+  H302  1  0.83237983  0.41077987  0.43221444  1
  H+  H303  1  0.60700062  0.44497438  0.11267070  1
  H+  H304  1  0.45860011  0.86860953  0.56476629  1
  H+  H305  1  0.19166745  0.84625634  0.60634070  1
  H+  H306  1  0.12477521  0.64884060  0.67187665  1
  H+  H307  1  0.16255719  0.07904986  0.89727631  1
  H+  H308  1  0.58522958  0.42427685  0.38730704  1
  H+  H309  1  0.18227915  0.34963009  0.22146242  1
  H+  H310  1  0.41249474  0.08840805  0.25641115  1
  H+  H311  1  0.92260683  0.82892622  0.61814273  1
  H+  H312  1  0.63344580  0.61169265  0.83739318  1
  H+  H313  1  0.09956237  0.41977792  0.40986563  1
  H+  H314  1  0.72847485  0.37461344  0.32579327  1
  H+  H315  1  0.39216596  0.78689169  0.82727580  1
  H+  H316  1  0.18481062  0.59412486  0.27876784  1
  H+  H317  1  0.08519190  0.21005904  0.40241665  1
  H+  H318  1  0.91812935  0.58580653  0.88864913  1
  H+  H319  1  0.84295820  0.43160935  0.75347765  1
  H+  H320  1  0.09799202  0.42175547  0.04081339  1
  H+  H321  1  0.34283289  0.91914536  0.77742423  1
  H+  H322  1  0.40394364  0.58643738  0.26714658  1
  H+  H323  1  0.42858150  0.08820995  0.56585811  1
  H+  H324  1  0.84395469  0.94040411  0.08357629  1
  H+  H325  1  0.41408357  0.86750159  0.27599771  1
  H+  H326  1  0.92181852  0.81908295  0.88284009  1
  H+  H327  1  0.67638344  0.06535731  0.88647197  1
  H+  H328  1  0.40617423  0.32362278  0.58001884  1
  H+  H329  1  0.18203491  0.10242428  0.22136034  1
  H+  H330  1  0.67268218  0.35483381  0.59171789  1
  H+  H331  1  0.57536757  0.66256682  0.76677315  1
  H+  H332  1  -0.00985222  0.58142705  0.49228350  1
  H+  H333  1  0.40500537  0.78871004  0.64844358  1
  H+  H334  1  0.08725872  0.66867691  0.06605747  1
  H+  H335  1  0.16594638  0.84694786  0.24803870  1
  H+  H336  1  0.92404046  0.58195981  0.23013112  1
  H+  H337  1  0.13675552  0.37244982  0.66101010  1
  H+  H338  1  0.33446337  0.18083871  0.08855970  1
  H+  H339  1  0.67763940  0.34719110  0.23295828  1
  H+  H340  1  0.66786531  0.58389454  0.56178629  1
  H+  H341  1  0.12729002  0.01701467  0.99498978  1
  H+  H342  1  -0.04557456  0.85543785  0.38548790  1
  H+  H343  1  0.44075086  0.58031577  0.95859608  1
  H+  H344  1  0.15790807  0.58617328  0.59896079  1
  H+  H345  1  0.33632120  0.15896021  0.73723497  1
  H+  H346  1  0.89751956  0.10863521  0.81659501  1
  H+  H347  1  0.63077006  0.01073299  0.31414378  1
  H+  H348  1  0.85413048  0.69546515  0.11208023  1
  H+  H349  1  0.58403751  0.18085335  0.43537444  1
  H+  H350  1  0.12100709  0.24696761  0.29808526  1
  H+  H351  1  0.83860034  0.16963351  0.09420786  1
  H+  H352  1  0.58782305  0.91902291  0.40441158  1
  H+  H353  1  0.09517181  0.68212190  0.73793048  1
  H+  H354  1  0.61512418  0.66869769  0.12143071  1
  H+  H355  1  0.45208076  0.81843986  0.92018381  1
  H+  H356  1  0.17459378  0.07039089  0.57590600  1
  H+  H357  1  0.19102265  0.33857416  0.93502637  1
  H+  H358  1  0.49711024  0.61287553  0.15932907  1
  H+  H359  1  0.11120350  0.37116675  0.50012656  1
  H+  H360  1  0.05805200  0.88433718  0.45840956  1
  H+  H361  1  0.16636284  0.83614084  0.90041133  1
  H+  H362  1  0.27183198  0.39840351  0.67875259  1
  H+  H363  1  0.38683659  -0.01299048  0.48907760  1
  H+  H364  1  0.43006825  0.34738005  0.93580952  1
  H+  H365  1  0.91628530  0.08835694  0.23492276  1
  H+  H366  1  0.71128483  0.10089674  0.59019479  1
  H+  H367  1  0.78590804  0.14036845  -0.00269847  1
  H+  H368  1  0.29592830  0.63840228  0.17085809  1
  H+  H369  1  0.68433081  0.34195258  0.89671071  1
  H+  H370  1  0.91541796  0.34275857  0.60246602  1
  H+  H371  1  0.14438595  0.11618298  0.66452300  1
  H+  H372  1  0.66439356  0.58372834  0.89771285  1
  H+  H373  1  0.22703227  0.36340768  0.84039687  1
  H+  H374  1  0.66520601  0.08010031  0.22197753  1
  H+  H375  1  0.36971048  0.39545391  0.83109728  1
  H+  H376  1  0.60942334  0.89441213  0.15994161  1
  H+  H377  1  0.69529354  0.04202644  0.47671961  1
  H+  H378  1  0.41709936  0.08653925  0.90550852  1
  H+  H379  1  0.32969334  0.65253225  0.43346109  1
  H+  H380  1  0.07761611  0.16487254  0.39900400  1
  H+  H381  1  0.32469016  0.41280322  0.42902760  1
  H+  H382  1  0.90870575  0.08338680  0.61288524  1
  H+  H383  1  0.33330288  0.67895075  0.71142119  1
  O2-  O384  1  0.06845906  0.16481452  0.14896581  1
  O2-  O385  1  0.07948802  0.15547233  0.51669222  1
  O2-  O386  1  0.09065621  0.17200672  0.81100991  1
  O2-  O387  1  0.07022548  0.41043565  0.17044078  1
  O2-  O388  1  0.08040704  0.39986692  0.48169252  1
  O2-  O389  1  0.06577583  0.39707016  0.82691222  1
  O2-  O390  1  0.07722437  0.69431079  0.14142385  1
  O2-  O391  1  0.03259894  0.58063247  0.46279405  1
  O2-  O392  1  0.08726305  0.67794549  0.80221804  1
  O2-  O393  1  0.07759066  0.92881388  0.14994154  1
  O2-  O394  1  0.07689339  0.90038181  0.50109013  1
  O2-  O395  1  0.09069506  0.91870523  0.81122928  1
  O2-  O396  1  0.33868886  0.18486313  0.13398769  1
  O2-  O397  1  0.32725021  0.14697731  0.46818279  1
  O2-  O398  1  0.33944091  0.17079920  0.81781295  1
  O2-  O399  1  0.32983986  0.41242605  0.11313150  1
  O2-  O400  1  0.33012209  0.41349149  0.47408833  1
  O2-  O401  1  0.33901981  0.42722982  0.82068572  1
  O2-  O402  1  0.35270601  0.67778258  0.15298948  1
  O2-  O403  1  0.32145089  0.64280562  0.48292342  1
  O2-  O404  1  0.34152492  0.68157217  0.79160205  1
  O2-  O405  1  0.29439977  0.85674607  0.13713733  1
  O2-  O406  1  0.35971003  0.92584382  0.47353347  1
  O2-  O407  1  0.34353222  0.92630474  0.82379234  1
  O2-  O408  1  0.58552793  0.18135417  0.15051578  1
  O2-  O409  1  0.58895192  0.18283682  0.48075361  1
  O2-  O410  1  0.59162477  0.15628300  0.83615261  1
  O2-  O411  1  0.60174569  0.44168675  0.15760376  1
  O2-  O412  1  0.58677589  0.41688128  0.46185287  1
  O2-  O413  1  0.59245789  0.41490738  0.81302657  1
  O2-  O414  1  0.60632944  0.67366963  0.16597510  1
  O2-  O415  1  0.55376721  0.68882876  0.46164147  1
  O2-  O416  1  0.57978659  0.66304092  0.81214103  1
  O2-  O417  1  0.57865115  0.92124789  0.14075283  1
  O2-  O418  1  0.62032515  0.94018176  0.47604379  1
  O2-  O419  1  0.58815220  0.92162659  0.80130343  1
  O2-  O420  1  0.83178573  0.16739784  0.13938148  1
  O2-  O421  1  0.79063624  0.13437627  0.52604419  1
  O2-  O422  1  0.86867714  0.16006241  0.78161154  1
  O2-  O423  1  0.83530928  0.41345331  0.14379668  1
  O2-  O424  1  0.83180947  0.40032539  0.47677708  1
  O2-  O425  1  0.84327981  0.42355471  0.79974551  1
  O2-  O426  1  0.86254250  0.69723223  0.15633831  1
  O2-  O427  1  0.81789723  0.62386019  0.45607248  1
  O2-  O428  1  0.82436786  0.65695074  0.80469171  1
  O2-  O429  1  0.82590005  0.92765339  0.15650633  1
  O2-  O430  1  0.83282777  0.90827753  0.47980223  1
  O2-  O431  1  0.83071726  0.90859506  0.81105637  1
  O2-  O432  1  0.17477335  0.09978216  0.17656211  1
  O2-  O433  1  0.16756406  0.06741795  0.53034600  1
  O2-  O434  1  0.16951868  0.08450610  0.85211092  1
  O2-  O435  1  0.17007367  0.34455732  0.17700700  1
  O2-  O436  1  0.17119513  0.33325686  0.52937964  1
  O2-  O437  1  0.16864066  0.33121492  0.85854079  1
  O2-  O438  1  0.18572227  0.57447206  0.20026340  1
  O2-  O439  1  0.16073693  0.56562737  0.51925141  1
  O2-  O440  1  0.21295039  0.55830635  0.85972851  1
  O2-  O441  1  0.15936550  0.85316148  0.20375584  1
  O2-  O442  1  0.20160897  0.85479654  0.53356022  1
  O2-  O443  1  0.17052583  0.83649514  0.85542947  1
  O2-  O444  1  0.41317169  0.09515832  0.18307798  1
  O2-  O445  1  0.42433894  0.08140495  0.51956052  1
  O2-  O446  1  0.42211993  0.08976166  0.86043625  1
  O2-  O447  1  0.42583721  0.34604594  0.17631370  1
  O2-  O448  1  0.40973579  0.31398301  0.45924064  1
  O2-  O449  1  0.42461860  0.33946765  0.84826866  1
  O2-  O450  1  0.43717916  0.58704405  0.14236702  1
  O2-  O451  1  0.40951198  0.57339789  0.51846488  1
  O2-  O452  1  0.44096552  0.58992744  0.87936453  1
  O2-  O453  1  0.42209705  0.84670443  0.19867867  1
  O2-  O454  1  0.46857863  0.87391858  0.51995606  1
  O2-  O455  1  0.42738777  0.84263927  0.84794119  1
  O2-  O456  1  0.66130247  0.08765005  0.17650570  1
  O2-  O457  1  0.74324779  0.10344485  0.46829860  1
  O2-  O458  1  0.66344831  0.06969767  0.84261625  1
  O2-  O459  1  0.67806328  0.34714844  0.18667769  1
  O2-  O460  1  0.66214978  0.33973757  0.51451087  1
  O2-  O461  1  0.68161236  0.33695588  0.85199790  1
  O2-  O462  1  0.67312831  0.58914222  0.23833338  1
  O2-  O463  1  0.66915804  0.58375763  0.51543484  1
  O2-  O464  1  0.66374575  0.58112370  0.85245102  1
  O2-  O465  1  0.66384686  0.84230239  0.19627741  1
  O2-  O466  1  0.68079082  0.84348879  0.52982270  1
  O2-  O467  1  0.66100176  0.82237068  0.84504445  1
  O2-  O468  1  0.91345519  0.08990363  0.19023674  1
  O2-  O469  1  0.90150702  0.07164927  0.50651968  1
  O2-  O470  1  0.92311134  0.07591587  0.84099957  1
  O2-  O471  1  0.89480554  0.31534489  0.19785961  1
  O2-  O472  1  0.91274547  0.31723678  0.51613739  1
  O2-  O473  1  0.91307445  0.34285437  0.84936584  1
  O2-  O474  1  0.92592029  0.58517339  0.18449442  1
  O2-  O475  1  0.89905359  0.55400451  0.53225898  1
  O2-  O476  1  0.91826293  0.58591569  0.84382998  1
  O2-  O477  1  0.91489809  0.85376449  0.19980840  1
  O2-  O478  1  0.91849742  0.83956660  0.54000895  1
  O2-  O479  1  0.91952618  0.82271701  0.83818025  1
  O2-  O480  1  0.18963051  0.11885510  0.30088744  1
  O2-  O481  1  0.17196576  0.08208640  0.65192523  1
  O2-  O482  1  0.15478245  0.07462940  0.97585931  1
  O2-  O483  1  0.17422822  0.34391649  0.30157518  1
  O2-  O484  1  0.17304703  0.34504746  0.64863697  1
  O2-  O485  1  0.19152191  0.34527394  0.98045559  1
  O2-  O486  1  0.18266969  0.60106077  0.32354132  1
  O2-  O487  1  0.16462924  0.59545682  0.64362100  1
  O2-  O488  1  0.18613384  0.59125334  0.97502634  1
  O2-  O489  1  0.19326682  0.83581471  0.32592561  1
  O2-  O490  1  0.18168314  0.83831953  0.65205599  1
  O2-  O491  1  0.15811381  0.83281940  0.98344192  1
  O2-  O492  1  0.41253505  0.08610695  0.30262641  1
  O2-  O493  1  0.44149270  0.10225479  0.63669397  1
  O2-  O494  1  0.40966319  0.09036382  0.98549020  1
  O2-  O495  1  0.41634365  0.33796090  0.30266935  1
  O2-  O496  1  0.41695169  0.34158200  0.70437999  1
  O2-  O497  1  0.43141410  0.34158920  0.98067858  1
  O2-  O498  1  0.40909631  0.58350045  0.31112166  1
  O2-  O499  1  0.41783636  0.58854526  0.63875152  1
  O2-  O500  1  0.43450311  0.57995224  1.00388756  1
  O2-  O501  1  0.41073875  0.86476242  0.32176714  1
  O2-  O502  1  0.43863291  0.85171401  0.64232893  1
  O2-  O503  1  0.47254221  0.79995560  0.95602061  1
  O2-  O504  1  0.67211196  0.06368104  0.29293908  1
  O2-  O505  1  0.66625365  0.07988494  0.62197881  1
  O2-  O506  1  0.68478232  0.06445788  0.96312319  1
  O2-  O507  1  0.67104451  0.34616618  0.30598966  1
  O2-  O508  1  0.67612830  0.36019548  0.63713747  1
  O2-  O509  1  0.68082500  0.34034282  0.98609465  1
  O2-  O510  1  0.60366534  0.56001009  0.28385135  1
  O2-  O511  1  0.66481087  0.58616780  0.63622506  1
  O2-  O512  1  0.67042343  0.58187387  0.97736013  1
  O2-  O513  1  0.64489125  0.83469599  0.31112141  1
  O2-  O514  1  0.66140392  0.82741732  0.64222527  1
  O2-  O515  1  0.68787252  0.82059941  1.01034222  1
  O2-  O516  1  0.93557066  0.07429165  0.31844629  1
  O2-  O517  1  0.92235209  0.07785963  0.65489263  1
  O2-  O518  1  0.91654507  0.09506767  0.96764017  1
  O2-  O519  1  0.87336762  0.29221643  0.31829194  1
  O2-  O520  1  0.92089879  0.35355335  0.64649726  1
  O2-  O521  1  0.91310066  0.33612791  0.97191961  1
  O2-  O522  1  0.92035098  0.58468851  0.30680965  1
  O2-  O523  1  0.88873198  0.53407426  0.65546191  1
  O2-  O524  1  0.93080863  0.61901745  0.97150166  1
  O2-  O525  1  0.83738176  0.83804239  0.31737068  1
  O2-  O526  1  0.92333142  0.82215645  0.66294789  1
  O2-  O527  1  0.92523810  0.83876875  0.96412042  1
  O2-  O528  1  0.07456488  0.16730643  0.00194979  1
  O2-  O529  1  0.09276703  0.18194096  0.28794105  1
  O2-  O530  1  0.09423551  0.17498507  0.68646400  1
  O2-  O531  1  0.08964307  0.42412414  -0.00269106  1
  O2-  O532  1  0.10958148  0.43400983  0.36446424  1
  O2-  O533  1  0.08693341  0.41862005  0.67975304  1
  O2-  O534  1  0.09180463  0.66026350  0.02161057  1
  O2-  O535  1  0.08436053  0.67113986  0.35608485  1
  O2-  O536  1  0.09955803  0.68442103  0.68921536  1
  O2-  O537  1  0.06988973  0.90788250  0.02573128  1
  O2-  O538  1  -0.01930003  0.82131385  0.40029280  1
  O2-  O539  1  0.09363131  0.91661148  0.69019724  1
  O2-  O540  1  0.32193955  0.17016355  0.01121496  1
  O2-  O541  1  0.33786608  0.17128507  0.34540896  1
  O2-  O542  1  0.33580793  0.16412748  0.69208432  1
  O2-  O543  1  0.34112194  0.41469772  0.04622289  1
  O2-  O544  1  0.32977084  0.41326714  0.34704060  1
  O2-  O545  1  0.33294819  0.43155089  0.69405224  1
  O2-  O546  1  0.34231083  0.66481238  0.02639325  1
  O2-  O547  1  0.34167615  0.66856061  0.37278786  1
  O2-  O548  1  0.33393815  0.67610777  0.66637840  1
  O2-  O549  1  0.29434800  0.95213052  0.04974064  1
  O2-  O550  1  0.37075516  0.91591453  0.34039223  1
  O2-  O551  1  0.34005274  0.90182688  0.70859871  1
  O2-  O552  1  0.57208407  0.18342564  0.03458724  1
  O2-  O553  1  0.57718951  0.18075001  0.35816664  1
  O2-  O554  1  0.60717427  0.19288493  0.67713622  1
  O2-  O555  1  0.60422085  0.42452809  0.02727614  1
  O2-  O556  1  0.58246457  0.42412524  0.34128861  1
  O2-  O557  1  0.59268128  0.42924267  0.69021560  1
  O2-  O558  1  0.60542013  0.66242893  0.04301707  1
  O2-  O559  1  0.57442640  0.67286405  0.34166946  1
  O2-  O560  1  0.57769265  0.67071902  0.68490935  1
  O2-  O561  1  0.60630210  0.91605079  0.01700052  1
  O2-  O562  1  0.57346648  0.90843417  0.35946204  1
  O2-  O563  1  0.59967838  0.91470162  0.68399176  1
  O2-  O564  1  0.84469121  0.17735980  0.01383848  1
  O2-  O565  1  0.82765527  0.12678867  0.36109113  1
  O2-  O566  1  0.82412844  0.11316308  0.72804159  1
  O2-  O567  1  0.82947577  0.40092977  0.02755850  1
  O2-  O568  1  0.83362937  0.41956551  0.35417972  1
  O2-  O569  1  0.83765865  0.44456911  0.67899676  1
  O2-  O570  1  0.81521560  0.70600165  0.03390386  1
  O2-  O571  1  0.81613367  0.65782587  0.32495780  1
  O2-  O572  1  0.82549342  0.64577236  0.68281305  1
  O2-  O573  1  0.85901336  0.94187102  0.03888787  1
  O2-  O574  1  0.89383682  0.90358931  0.36301637  1
  O2-  O575  1  0.83552936  0.90147645  0.68986456  1
