# generated using pymatgen
data_H2O
_symmetry_space_group_name_H-M   'P 1'
_cell_length_a   17.99640197
_cell_length_b   17.99473250
_cell_length_c   22.00348555
_cell_angle_alpha   90.01066796
_cell_angle_beta   89.96045000
_cell_angle_gamma   119.96518971
_symmetry_Int_Tables_number   1
_chemical_formula_structural   H2O
_chemical_formula_sum   'H384 O192'
_cell_volume   6173.12846647
_cell_formula_units_Z   192
loop_
 _symmetry_equiv_pos_site_id
 _symmetry_equiv_pos_as_xyz
  1  'x, y, z'
loop_
 _atom_type_symbol
 _atom_type_oxidation_number
  H+  1.0
  O2-  -2.0
loop_
 _atom_site_type_symbol
 _atom_site_label
 _atom_site_symmetry_multiplicity
 _atom_site_fract_x
 _atom_site_fract_y
 _atom_site_fract_z
 _atom_site_occupancy
  H+  H0  1  0.11427311  0.65747429  0.16991032  1
  H+  H1  1  0.97733541  0.36014297  0.14936756  1
  H+  H2  1  0.31452123  0.91026572  0.39557590  1
  H+  H3  1  0.89155221  0.36454176  0.15864791  1
  H+  H4  1  0.63606089  0.77494402  0.51447659  1
  H+  H5  1  0.93325150  0.46125368  0.36565514  1
  H+  H6  1  0.10121899  0.37769329  0.83467793  1
  H+  H7  1  0.39736207  0.52685148  0.66698144  1
  H+  H8  1  0.37871185  0.01898348  1.00255365  1
  H+  H9  1  0.13721427  0.35930553  1.00561404  1
  H+  H10  1  0.60562748  0.88799860  0.33488239  1
  H+  H11  1  0.22631917  0.35840644  -0.00229722  1
  H+  H12  1  0.85565507  0.72187950  0.00255248  1
  H+  H13  1  0.13568220  0.66704786  0.49348877  1
  H+  H14  1  0.12100115  0.39172414  0.68271261  1
  H+  H15  1  0.40622251  0.56253784  0.84281616  1
  H+  H16  1  0.03915239  0.83209334  0.14947619  1
  H+  H17  1  0.83644768  0.41393850  0.73435623  1
  H+  H18  1  0.39192677  0.21754390  0.13650549  1
  H+  H19  1  0.91496472  0.32387295  0.60404634  1
  H+  H20  1  0.10398110  0.99815191  0.17473979  1
  H+  H21  1  0.87497973  0.01969610  0.65877835  1
  H+  H22  1  0.62681631  0.59947689  0.99154799  1
  H+  H23  1  0.60853583  0.64466905  0.48778977  1
  H+  H24  1  0.85484889  0.22625814  0.67389176  1
  H+  H25  1  0.22827849  0.35644562  0.49413727  1
  H+  H26  1  0.18212164  0.31054819  0.84967077  1
  H+  H27  1  0.73055834  0.61257678  0.31974411  1
  H+  H28  1  0.98056675  0.61218653  0.84114261  1
  H+  H29  1  0.62004639  0.87976561  0.68368737  1
  H+  H30  1  0.62326705  0.38950052  0.15554550  1
  H+  H31  1  0.13763164  0.76307373  0.84604142  1
  H+  H32  1  -0.02690625  0.86303427  0.51567396  1
  H+  H33  1  0.97742015  0.37154792  0.84709337  1
  H+  H34  1  0.82987002  0.42836353  0.51150521  1
  H+  H35  1  0.64390575  0.86609145  0.50973464  1
  H+  H36  1  0.83443192  0.91019548  0.40892814  1
  H+  H37  1  0.88972612  0.35970923  0.66255986  1
  H+  H38  1  0.11513250  -0.03454437  0.83359941  1
  H+  H39  1  0.23123060  0.89550297  0.32019124  1
  H+  H40  1  0.17310469  0.87026842  0.25417497  1
  H+  H41  1  0.23389907  0.37576564  0.67328613  1
  H+  H42  1  0.39553285  0.76826999  0.49404501  1
  H+  H43  1  0.59791437  0.15231414  0.33774017  1
  H+  H44  1  0.63639125  0.51459698  0.98824839  1
  H+  H45  1  0.53901033  0.39833963  0.15014612  1
  H+  H46  1  0.38415421  0.40012119  0.83059574  1
  H+  H47  1  0.77191409  0.87885800  0.49641811  1
  H+  H48  1  0.40924366  0.29130816  0.32304365  1
  H+  H49  1  0.38062761  0.14914139  0.33055184  1
  H+  H50  1  0.87831938  0.63861671  0.82653979  1
  H+  H51  1  0.86688138  0.21933643  0.15117520  1
  H+  H52  1  0.13154758  0.13633579  0.49025065  1
  H+  H53  1  0.39417962  0.85529043  0.17531054  1
  H+  H54  1  0.10080484  0.12037280  0.15784783  1
  H+  H55  1  0.37667583  0.39631339  0.66954847  1
  H+  H56  1  0.61549005  0.63736534  0.68119123  1
  H+  H57  1  0.95618134  0.33127472  0.50349965  1
  H+  H58  1  0.84796297  0.38019382  1.00556701  1
  H+  H59  1  0.31306877  0.42715969  0.82803073  1
  H+  H60  1  0.29686766  0.15489972  0.32578275  1
  H+  H61  1  0.63045850  0.36210918  0.83815749  1
  H+  H62  1  0.41767615  0.55067009  0.33196647  1
  H+  H63  1  0.51648574  0.37838922  0.82319051  1
  H+  H64  1  0.77645848  0.88367138  0.67826667  1
  H+  H65  1  0.97193819  0.61981897  0.17175913  1
  H+  H66  1  0.21972407  0.85753146  0.00135132  1
  H+  H67  1  0.01048800  0.37256818  0.32865732  1
  H+  H68  1  0.96690269  0.36242525  1.00394608  1
  H+  H69  1  0.37971590  0.60180507  0.52444808  1
  H+  H70  1  0.35644141  0.72689197  0.33392547  1
  H+  H71  1  -0.00322296  0.86246325  0.34205767  1
  H+  H72  1  0.13890120  0.02433704  0.50851400  1
  H+  H73  1  0.12090178  0.14465296  0.69007212  1
  H+  H74  1  0.54122804  0.77400559  0.94618886  1
  H+  H75  1  0.04345262  0.65958064  0.49492913  1
  H+  H76  1  0.09396785  0.36616897  0.32857371  1
  H+  H77  1  0.19768638  0.06423521  0.15540957  1
  H+  H78  1  0.52926569  0.39145109  0.66448207  1
  H+  H79  1  0.11126935  0.88649756  0.67790888  1
  H+  H80  1  0.60677841  0.11944182  0.49407166  1
  H+  H81  1  0.88029673  0.21449457  0.32259461  1
  H+  H82  1  0.52890571  0.87703239  0.68790751  1
  H+  H83  1  0.31639166  0.06303504  0.13592870  1
  H+  H84  1  0.89573905  0.82331104  0.26777151  1
  H+  H85  1  0.66472723  0.29731358  0.33082960  1
  H+  H86  1  0.97074993  0.85479680  0.99126579  1
  H+  H87  1  1.02304599  0.68085141  0.32837924  1
  H+  H88  1  0.38063757  0.52504426  0.15973491  1
  H+  H89  1  0.31799535  0.86766620  0.75483743  1
  H+  H90  1  0.12731172  0.25635375  0.16072172  1
  H+  H91  1  0.73993365  0.13968357  0.17572731  1
  H+  H92  1  0.13958885  0.52658937  0.84400025  1
  H+  H93  1  0.67787669  0.10189743  0.33495371  1
  H+  H94  1  0.70306656  0.33324721  0.51013131  1
  H+  H95  1  0.61912914  0.75475880  0.34730866  1
  H+  H96  1  0.16719631  0.88179679  0.15929711  1
  H+  H97  1  0.84827286  0.72233306  0.15724251  1
  H+  H98  1  0.07173233  0.18949768  0.85040229  1
  H+  H99  1  0.42576277  0.61002328  0.90941158  1
  H+  H100  1  0.52408916  0.39064575  0.47691402  1
  H+  H101  1  0.46769725  0.07263997  0.29934668  1
  H+  H102  1  0.23175225  0.11084821  0.50538419  1
  H+  H103  1  0.27771900  0.63225050  0.67977933  1
  H+  H104  1  0.13349507  0.12836611  0.32835982  1
  H+  H105  1  0.39073470  0.27463636  0.49848800  1
  H+  H106  1  0.34074102  0.87523454  0.33563142  1
  H+  H107  1  0.14012980  0.52165420  0.66753878  1
  H+  H108  1  0.35472419  0.20383432  0.15847624  1
  H+  H109  1  0.10238005  0.96855235  0.00900294  1
  H+  H110  1  0.18939341  0.57076561  0.50342928  1
  H+  H111  1  1.02184290  0.63283816  1.01445626  1
  H+  H112  1  0.52994614  0.88500245  0.49509785  1
  H+  H113  1  0.87136789  0.64429358  0.49441073  1
  H+  H114  1  0.10873069  0.88931296  0.50291808  1
  H+  H115  1  0.75604528  0.38247451  0.32458917  1
  H+  H116  1  0.35255779  0.87953397  1.00771971  1
  H+  H117  1  0.36562187  0.13585878  0.49017586  1
  H+  H118  1  0.77139180  0.38835614  0.83147625  1
  H+  H119  1  0.51155296  0.14670523  1.00267802  1
  H+  H120  1  0.73100057  0.87636039  0.32870280  1
  H+  H121  1  0.34614926  0.12686448  -0.00214183  1
  H+  H122  1  0.86442612  0.10247741  0.65648090  1
  H+  H123  1  0.22497141  0.61825251  0.84377011  1
  H+  H124  1  0.95599461  0.09399518  0.17361478  1
  H+  H125  1  0.50991442  0.62745396  -0.00304081  1
  H+  H126  1  0.13725451  0.24087157  0.48515617  1
  H+  H127  1  0.22828217  0.11742313  0.66415500  1
  H+  H128  1  0.13430352  0.55227127  0.17997596  1
  H+  H129  1  0.11889809  0.09317776  0.84787027  1
  H+  H130  1  0.52951305  0.65894905  0.83124082  1
  H+  H131  1  0.88606955  0.61360113  -0.00555786  1
  H+  H132  1  0.64176064  0.51398586  0.31867259  1
  H+  H133  1  0.64634398  0.78077346  0.83491597  1
  H+  H134  1  0.84949266  0.97012055  -0.00766721  1
  H+  H135  1  0.12443339  0.46239235  0.11060246  1
  H+  H136  1  0.88035323  0.73356628  0.82848727  1
  H+  H137  1  0.59525002  0.42617569  0.39196108  1
  H+  H138  1  0.85473524  0.12466499  0.16060998  1
  H+  H139  1  0.27263455  0.86151263  0.84693584  1
  H+  H140  1  -0.00208313  0.09220572  0.33696108  1
  H+  H141  1  -0.00837912  0.09592521  0.85092097  1
  H+  H142  1  0.85941494  0.87854520  0.34475553  1
  H+  H143  1  0.61742733  0.24790381  0.52042210  1
  H+  H144  1  0.58519954  0.67137671  0.73882014  1
  H+  H145  1  0.11446790  0.20723842  0.32455686  1
  H+  H146  1  0.36236306  0.47391687  0.50135660  1
  H+  H147  1  0.32265239  0.14996861  0.77962263  1
  H+  H148  1  0.22257380  0.60308745  0.32987328  1
  H+  H149  1  0.22667786  0.60219099  1.02533736  1
  H+  H150  1  0.61019188  0.48244339  0.47336172  1
  H+  H151  1  0.53332397  0.18780078  0.35033834  1
  H+  H152  1  0.36536302  0.40082467  0.16101076  1
  H+  H153  1  0.38690664  0.00859027  0.84665185  1
  H+  H154  1  0.61056258  0.28934799  -0.00007200  1
  H+  H155  1  0.38849770  0.36282148  0.49936524  1
  H+  H156  1  0.35535088  0.97957655  0.49034171  1
  H+  H157  1  0.46777686  0.10985156  0.16084355  1
  H+  H158  1  0.32312647  0.42116770  0.33620612  1
  H+  H159  1  0.02966853  0.38837437  0.67718909  1
  H+  H160  1  0.12854001  0.87909374  0.32119204  1
  H+  H161  1  0.87824378  1.01828160  0.50723800  1
  H+  H162  1  0.36396485  0.38432644  1.00289769  1
  H+  H163  1  0.37157026  0.63780059  -0.00020741  1
  H+  H164  1  0.59924021  0.75026459  0.98380469  1
  H+  H165  1  0.72462735  0.61316289  0.16790911  1
  H+  H166  1  0.88195608  0.24260791  0.83211201  1
  H+  H167  1  0.73674679  0.86432578  0.16462919  1
  H+  H168  1  0.58746234  0.96626449  0.33440130  1
  H+  H169  1  0.63777408  1.01610220  0.50299670  1
  H+  H170  1  0.80880270  0.11774853  0.31604385  1
  H+  H171  1  0.65921734  0.08093305  0.90033078  1
  H+  H172  1  0.86159732  0.87889761  0.49820864  1
  H+  H173  1  0.37171891  0.73003628  0.16561924  1
  H+  H174  1  0.59953352  0.62669321  0.15498889  1
  H+  H175  1  0.39989472  0.63163772  0.33135015  1
  H+  H176  1  0.91667636  0.32463006  0.24879519  1
  H+  H177  1  0.87971203  0.61274143  0.16643028  1
  H+  H178  1  0.51316885  0.89251190  0.01364944  1
  H+  H179  1  0.13741034  0.60239859  1.03184758  1
  H+  H180  1  0.63899362  0.40271169  0.33357528  1
  H+  H181  1  0.45795452  0.85712065  0.32874828  1
  H+  H182  1  0.60420418  0.23305457  0.15649581  1
  H+  H183  1  0.76345916  0.39073817  1.00727929  1
  H+  H184  1  0.37793748  0.26565018  0.84333376  1
  H+  H185  1  0.86502615  0.47702335  0.15624527  1
  H+  H186  1  0.60790993  0.13457087  0.82986596  1
  H+  H187  1  0.41852026  0.22675885  0.72101207  1
  H+  H188  1  0.48225157  0.61723059  0.15718369  1
  H+  H189  1  0.40709857  0.30892550  0.17417274  1
  H+  H190  1  0.60401372  0.86560059  0.16691824  1
  H+  H191  1  0.89455287  0.50949365  0.65099240  1
  H+  H192  1  0.89790187  0.22311233  1.00819486  1
  H+  H193  1  0.19270580  0.34076981  0.30244531  1
  H+  H194  1  0.84825049  0.35290611  0.49657949  1
  H+  H195  1  0.38262047  0.14689778  0.67806954  1
  H+  H196  1  0.88062474  0.34301161  0.31096857  1
  H+  H197  1  0.08789333  0.71303384  0.38170390  1
  H+  H198  1  0.37212466  0.66770573  0.83650677  1
  H+  H199  1  0.26615284  0.65942072  0.51794288  1
  H+  H200  1  -0.02484410  0.86405395  0.66629651  1
  H+  H201  1  0.13050241  0.34145215  0.49159346  1
  H+  H202  1  0.43427063  0.71345227  0.47119071  1
  H+  H203  1  0.10765564  0.72041452  0.67614083  1
  H+  H204  1  0.88664016  0.86210653  -0.01031204  1
  H+  H205  1  0.46346259  0.92753677  0.54295811  1
  H+  H206  1  0.38991223  0.84525112  0.67479293  1
  H+  H207  1  0.11724569  0.63596272  0.67865601  1
  H+  H208  1  0.08118976  0.16016146  0.74975399  1
  H+  H209  1  0.35215955  0.12001912  0.83795280  1
  H+  H210  1  0.72368556  0.11474391  0.84329050  1
  H+  H211  1  0.64003200  0.52171319  0.66654005  1
  H+  H212  1  0.62040466  0.52121909  0.83601122  1
  H+  H213  1  0.21672045  0.84983430  0.67017717  1
  H+  H214  1  0.19093758  0.03117896  0.30691957  1
  H+  H215  1  0.38479051  0.62183110  0.16184013  1
  H+  H216  1  0.40520694  0.41296669  0.34128201  1
  H+  H217  1  0.60593681  0.14272547  0.67170069  1
  H+  H218  1  0.37424612  0.01097249  0.32090360  1
  H+  H219  1  0.63313223  0.27556058  0.66867526  1
  H+  H220  1  0.87245504  0.88657683  0.82412838  1
  H+  H221  1  0.38251829  0.26461174  0.99353576  1
  H+  H222  1  0.33796577  0.68083244  0.77334364  1
  H+  H223  1  0.77469602  0.38128457  0.67650480  1
  H+  H224  1  0.38939148  0.02916693  0.66254539  1
  H+  H225  1  0.11016455  0.46767987  0.02779464  1
  H+  H226  1  0.35723130  0.79253111  0.83672271  1
  H+  H227  1  0.11407885  0.97688559  0.67872619  1
  H+  H228  1  -0.05609524  0.85701339  0.17156112  1
  H+  H229  1  0.47106686  0.10311754  0.50621579  1
  H+  H230  1  0.00233108  0.15870268  0.01958018  1
  H+  H231  1  0.86778114  0.76092009  0.32671394  1
  H+  H232  1  0.88848896  0.53366888  0.32221902  1
  H+  H233  1  0.08312558  0.43424703  0.48546447  1
  H+  H234  1  0.62802362  0.98163352  0.82801832  1
  H+  H235  1  0.91157222  0.82952140  0.57424059  1
  H+  H236  1  0.21365458  0.10192599  0.84837430  1
  H+  H237  1  0.07097705  0.95613696  0.35126937  1
  H+  H238  1  0.73279778  0.36547382  0.16811863  1
  H+  H239  1  0.72441298  0.10602042  0.50042810  1
  H+  H240  1  0.85326186  0.09058221  0.97460511  1
  H+  H241  1  0.11295877  0.10141225  0.99603810  1
  H+  H242  1  0.63524153  0.89102421  0.82965781  1
  H+  H243  1  0.98286849  0.59895431  0.65482568  1
  H+  H244  1  0.71290465  0.12371746  0.65762412  1
  H+  H245  1  0.42733081  0.84515603  0.58428342  1
  H+  H246  1  0.38912780  0.53842149  -0.01767373  1
  H+  H247  1  0.26968993  0.38742726  0.15557108  1
  H+  H248  1  0.51640941  0.63614860  0.50302663  1
  H+  H249  1  0.77730519  0.64243177  0.68579032  1
  H+  H250  1  0.13734839  0.78175235  0.17344586  1
  H+  H251  1  0.51472328  0.65612632  0.34280921  1
  H+  H252  1  0.39302657  0.28319902  0.64951918  1
  H+  H253  1  0.33940088  0.16766776  0.43000420  1
  H+  H254  1  0.60950686  0.64108478  0.82875152  1
  H+  H255  1  0.62324199  1.02776622  -0.00835634  1
  H+  H256  1  0.86778009  0.24459539  0.50644833  1
  H+  H257  1  0.14814237  0.28751902  0.68168282  1
  H+  H258  1  0.62344442  0.11620277  -0.01451647  1
  H+  H259  1  0.92083076  0.55232002  0.49485006  1
  H+  H260  1  0.48553142  0.61872713  0.66688000  1
  H+  H261  1  0.39910976  0.83583874  0.93691950  1
  H+  H262  1  0.59580173  0.88623885  0.00749807  1
  H+  H263  1  0.91134714  0.10302347  0.33378330  1
  H+  H264  1  0.36802562  0.63283807  0.68035994  1
  H+  H265  1  0.22260050  0.87783967  0.51216215  1
  H+  H266  1  0.28426814  0.87704418  0.16481202  1
  H+  H267  1  0.37157844  -0.03398535  0.15826574  1
  H+  H268  1  0.82923946  0.66333826  0.39871981  1
  H+  H269  1  0.37750247  0.76781936  0.99136071  1
  H+  H270  1  0.26972431  0.78228596  0.71867328  1
  H+  H271  1  0.40644067  0.82824323  0.26640954  1
  H+  H272  1  0.98553151  0.85761600  0.84003107  1
  H+  H273  1  0.11361840  0.63177221  0.83261124  1
  H+  H274  1  0.58096961  0.16353984  0.44025539  1
  H+  H275  1  0.34765273  0.88777656  0.49226025  1
  H+  H276  1  0.86818691  0.10767513  0.87030252  1
  H+  H277  1  0.13889333  0.78668933  0.51168176  1
  H+  H278  1  0.65120709  0.09763124  0.26615750  1
  H+  H279  1  0.78840812  0.89331444  0.82807850  1
  H+  H280  1  0.65347713  0.57908108  0.89505399  1
  H+  H281  1  0.85517180  0.63347458  0.33625921  1
  H+  H282  1  0.86086057  0.47689764  0.83055705  1
  H+  H283  1  0.27926593  0.64444874  0.16399429  1
  H+  H284  1  0.88597751  0.86463555  0.66616311  1
  H+  H285  1  0.85143674  0.84919916  0.17670083  1
  H+  H286  1  0.76733553  0.63141863  0.00315709  1
  H+  H287  1  0.60471056  0.22185797  0.83304219  1
  H+  H288  1  0.73381835  0.62588239  0.48077705  1
  H+  H289  1  0.57811431  0.90829906  0.43038163  1
  H+  H290  1  0.47036696  0.10203140  0.84426541  1
  H+  H291  1  0.17715153  0.58762391  0.61029014  1
  H+  H292  1  0.08891221  0.91084621  0.77198378  1
  H+  H293  1  0.10815268  0.16396565  0.42399334  1
  H+  H294  1  0.16938696  0.59887164  0.24221473  1
  H+  H295  1  0.85604008  0.11823413  0.49410387  1
  H+  H296  1  0.88525891  0.36646575  0.84620582  1
  H+  H297  1  0.89828100  0.07628189  0.56723604  1
  H+  H298  1  0.08201194  0.41481931  0.77372514  1
  H+  H299  1  0.91395578  0.33340597  0.94204534  1
  H+  H300  1  0.66363393  0.32674541  0.60640225  1
  H+  H301  1  0.34911222  0.43087249  0.43576758  1
  H+  H302  1  0.08211610  0.67768582  0.10692549  1
  H+  H303  1  0.32845465  0.90664775  0.06970084  1
  H+  H304  1  0.06180808  0.38435326  0.42284620  1
  H+  H305  1  0.57378360  0.16450045  0.73561356  1
  H+  H306  1  0.17761791  0.07721370  0.25023004  1
  H+  H307  1  0.67096343  0.60506816  0.42675158  1
  H+  H308  1  0.84550582  0.67344999  0.76066609  1
  H+  H309  1  0.10077688  0.22381866  0.01274761  1
  H+  H310  1  0.91767900  0.19400607  0.79326617  1
  H+  H311  1  0.64006919  0.52073954  0.16715925  1
  H+  H312  1  0.41481166  0.32726109  0.90065976  1
  H+  H313  1  0.42011564  0.57932856  0.58071515  1
  H+  H314  1  0.17176347  0.08694162  0.60462831  1
  H+  H315  1  0.91987397  0.82852449  0.89704026  1
  H+  H316  1  0.33968322  0.67742542  0.39604172  1
  H+  H317  1  0.81810630  0.16509984  0.73121720  1
  H+  H318  1  0.63958024  0.77099812  0.66605968  1
  H+  H319  1  0.39537849  0.76205290  0.66525482  1
  H+  H320  1  0.60365986  0.39971638  0.05418141  1
  H+  H321  1  0.16520271  0.83642457  0.60736719  1
  H+  H322  1  0.67045827  0.57906196  0.25327292  1
  H+  H323  1  0.67982069  0.34259801  0.23009659  1
  H+  H324  1  0.83316915  0.15254912  0.43127870  1
  H+  H325  1  0.61717438  0.38802457  0.67070079  1
  H+  H326  1  0.66045015  0.83137836  0.89648985  1
  H+  H327  1  0.72428103  0.20733198  0.20873657  1
  H+  H328  1  0.40442439  0.07512328  0.21806208  1
  H+  H329  1  0.06688392  0.15246146  0.10141514  1
  H+  H330  1  0.47765897  0.34599851  0.99080738  1
  H+  H331  1  0.65771128  0.09545859  0.59688850  1
  H+  H332  1  0.67030392  0.83425081  0.60803289  1
  H+  H333  1  0.14321033  0.31259059  0.91384399  1
  H+  H334  1  0.86744643  0.73118228  0.49603356  1
  H+  H335  1  0.28350523  0.09477221  0.08068575  1
  H+  H336  1  0.86348171  0.01023513  0.17545658  1
  H+  H337  1  0.58004039  0.69206936  0.40981119  1
  H+  H338  1  0.60299513  0.71893305  0.16326865  1
  H+  H339  1  0.79761037  0.89852157  0.10601565  1
  H+  H340  1  0.14535538  0.07107903  0.93807858  1
  H+  H341  1  0.13379274  0.51522759  0.32420703  1
  H+  H342  1  0.07044952  0.90759263  0.44265632  1
  H+  H343  1  0.05580712  0.89560524  0.09391422  1
  H+  H344  1  0.57916384  0.90670420  0.11075000  1
  H+  H345  1  0.85143044  0.41524179  0.40691286  1
  H+  H346  1  0.91963285  0.58631480  0.90007246  1
  H+  H347  1  0.91574293  0.98077432  0.04202510  1
  H+  H348  1  0.34676043  0.67229603  0.06138875  1
  H+  H349  1  0.57740291  0.41159105  0.76387920  1
  H+  H350  1  0.25780051  0.13076723  -0.00205300  1
  H+  H351  1  0.93262646  0.58609531  0.56447588  1
  H+  H352  1  0.14495036  0.85574382  0.84431847  1
  H+  H353  1  0.90609192  0.58601251  0.25967634  1
  H+  H354  1  0.42326077  0.34045063  0.58917719  1
  H+  H355  1  0.16161314  0.82442752  0.94172695  1
  H+  H356  1  0.67544550  0.58837149  0.61201102  1
  H+  H357  1  0.11048725  0.72129443  0.01407002  1
  H+  H358  1  0.13409780  0.30789145  0.24580578  1
  H+  H359  1  0.84028802  0.91803594  0.73602266  1
  H+  H360  1  0.89112267  -0.00422161  0.34581591  1
  H+  H361  1  0.57424211  0.17917954  0.05933199  1
  H+  H362  1  0.83141842  0.41759040  0.09668099  1
  H+  H363  1  0.66767784  0.83303018  0.26899152  1
  H+  H364  1  0.57400837  0.65760380  0.05607118  1
  H+  H365  1  0.82505956  0.66520110  0.09565324  1
  H+  H366  1  0.86688436  0.15998013  0.06413688  1
  H+  H367  1  0.33540208  0.41835533  0.05989354  1
  H+  H368  1  0.48443591  0.85527329  0.17959548  1
  H+  H369  1  0.08305493  0.66254122  0.77289406  1
  H+  H370  1  0.88526096  0.52476471  -0.00640843  1
  H+  H371  1  0.41120881  0.07975384  0.56509318  1
  H+  H372  1  0.10742562  0.88052347  0.00808063  1
  H+  H373  1  0.43893585  0.36566432  0.23306548  1
  H+  H374  1  0.48067540  0.11666553  0.66317281  1
  H+  H375  1  0.40558860  0.06940116  0.93939864  1
  H+  H376  1  0.86540306  0.73391608  0.68205131  1
  H+  H377  1  0.50194706  0.37748646  0.32188997  1
  H+  H378  1  0.57517004  0.77012948  0.22041792  1
  H+  H379  1  0.35955152  0.42927127  0.73359833  1
  H+  H380  1  0.65556615  0.34076277  0.90183300  1
  H+  H381  1  0.59712509  0.91523013  0.76202641  1
  H+  H382  1  0.60887556  0.14884186  0.15442675  1
  H+  H383  1  0.12630141  0.34311600  0.14743598  1
  O2-  O384  1  0.07140016  0.15304695  0.14698520  1
  O2-  O385  1  0.10653305  0.16967602  0.46909448  1
  O2-  O386  1  0.04971081  0.13074617  0.83381132  1
  O2-  O387  1  0.08120024  0.40151000  0.10371339  1
  O2-  O388  1  0.06094174  0.37694486  0.46859442  1
  O2-  O389  1  0.07905164  0.41463998  0.81932869  1
  O2-  O390  1  0.08235000  0.68509163  0.15283140  1
  O2-  O391  1  0.10305803  0.69401764  0.47865100  1
  O2-  O392  1  0.08280683  0.66354264  0.81825735  1
  O2-  O393  1  0.04672020  0.88838686  0.14002864  1
  O2-  O394  1  0.07712857  0.91850764  0.48691898  1
  O2-  O395  1  0.08985301  0.90568366  0.81737880  1
  O2-  O396  1  0.26342471  0.05319616  0.11513573  1
  O2-  O397  1  0.33540697  0.16628621  0.47496000  1
  O2-  O398  1  0.32159592  0.15093463  0.82443447  1
  O2-  O399  1  0.33060903  0.42464019  0.14298882  1
  O2-  O400  1  0.33459423  0.41772304  0.47946751  1
  O2-  O401  1  0.36964980  0.44269893  0.81251279  1
  O2-  O402  1  0.33886921  0.66937932  0.14842648  1
  O2-  O403  1  0.37918287  0.71103150  0.47719627  1
  O2-  O404  1  0.33661728  0.69068307  0.81772976  1
  O2-  O405  1  0.34275963  0.90343699  0.14743642  1
  O2-  O406  1  0.32143801  0.91895993  0.47381573  1
  O2-  O407  1  0.33345370  0.89080668  0.82832780  1
  O2-  O408  1  0.57332689  0.17322900  0.14021937  1
  O2-  O409  1  0.57124574  0.14699997  0.48350237  1
  O2-  O410  1  0.57434836  0.16220423  0.81652593  1
  O2-  O411  1  0.59832153  0.42157619  0.13458250  1
  O2-  O412  1  0.58192520  0.42311503  0.45774981  1
  O2-  O413  1  0.57720411  0.40999562  0.80921342  1
  O2-  O414  1  0.57070662  0.65823297  0.14091480  1
  O2-  O415  1  0.57384239  0.67391609  0.48378828  1
  O2-  O416  1  0.58771374  0.67988191  0.81245104  1
  O2-  O417  1  0.57712320  0.90093369  0.15562632  1
  O2-  O418  1  0.58662342  0.90939352  0.47545952  1
  O2-  O419  1  0.60247409  0.92051511  0.81284809  1
  O2-  O420  1  0.82881402  0.15791813  0.14102544  1
  O2-  O421  1  0.82523726  0.15053016  0.47548734  1
  O2-  O422  1  0.86549501  0.18438551  0.81387787  1
  O2-  O423  1  0.83561807  0.41598890  0.14231209  1
  O2-  O424  1  0.82006972  0.38621154  0.48002729  1
  O2-  O425  1  0.83156368  0.41601121  0.81631369  1
  O2-  O426  1  0.82344756  0.66243003  0.14160457  1
  O2-  O427  1  0.84013515  0.67231673  0.47702462  1
  O2-  O428  1  0.85059899  0.67245772  0.81080378  1
  O2-  O429  1  0.79713985  0.89628830  0.15080626  1
  O2-  O430  1  0.83099342  0.90651947  0.47836572  1
  O2-  O431  1  0.84601588  0.91991534  0.80928558  1
  O2-  O432  1  0.14781129  0.05872320  0.18171920  1
  O2-  O433  1  0.17230594  0.08571604  0.52223971  1
  O2-  O434  1  0.15324821  0.06689471  0.86278997  1
  O2-  O435  1  0.15538430  0.31938359  0.17233062  1
  O2-  O436  1  0.16635848  0.31611847  0.50425393  1
  O2-  O437  1  0.12923282  0.30063514  0.86899668  1
  O2-  O438  1  0.17173465  0.60941741  0.19627910  1
  O2-  O439  1  0.20483935  0.62245729  0.52687791  1
  O2-  O440  1  0.16443307  0.58693976  0.85734226  1
  O2-  O441  1  0.17566129  0.84442029  0.18749170  1
  O2-  O442  1  0.16422875  0.84596471  0.53033615  1
  O2-  O443  1  0.17175719  0.82356575  0.86234746  1
  O2-  O444  1  0.40722097  0.06929292  0.17369963  1
  O2-  O445  1  0.40938571  0.07700788  0.51981206  1
  O2-  O446  1  0.40970345  0.06892407  0.85943740  1
  O2-  O447  1  0.43636156  0.36918459  0.18755580  1
  O2-  O448  1  0.42271543  0.33572440  0.51212102  1
  O2-  O449  1  0.41154381  0.32710778  0.85508501  1
  O2-  O450  1  0.41636730  0.58775978  0.17206256  1
  O2-  O451  1  0.41522764  0.57628704  0.53383303  1
  O2-  O452  1  0.42987998  0.61997375  0.86059146  1
  O2-  O453  1  0.42132561  0.82419022  0.19459892  1
  O2-  O454  1  0.43190678  0.86495593  0.53960684  1
  O2-  O455  1  0.37931629  0.85069407  0.85645711  1
  O2-  O456  1  0.69476370  0.14594610  0.19973047  1
  O2-  O457  1  0.66351332  0.07698063  0.51563920  1
  O2-  O458  1  0.66286424  0.07997830  0.85348673  1
  O2-  O459  1  0.67284302  0.33697150  0.18526812  1
  O2-  O460  1  0.64939930  0.30883114  0.53334602  1
  O2-  O461  1  0.65984336  0.33317467  0.85774128  1
  O2-  O462  1  0.66473249  0.57949274  0.18573094  1
  O2-  O463  1  0.67074586  0.59985660  0.47091924  1
  O2-  O464  1  0.64624223  0.58102637  0.85060114  1
  O2-  O465  1  0.63200791  0.79661031  0.20180659  1
  O2-  O466  1  0.67204350  0.83568736  0.52780695  1
  O2-  O467  1  0.67682026  0.84081573  0.85256049  1
  O2-  O468  1  0.89647224  0.07097026  0.18830010  1
  O2-  O469  1  0.90078763  0.07796993  0.52080607  1
  O2-  O470  1  0.89555301  0.08165375  0.89491829  1
  O2-  O471  1  0.92225982  0.33332618  0.17166900  1
  O2-  O472  1  0.89804482  0.30632697  0.52135745  1
  O2-  O473  1  0.91673222  0.33775927  0.86242877  1
  O2-  O474  1  0.91030717  0.58365845  0.18345227  1
  O2-  O475  1  0.93705278  0.60384950  0.51861641  1
  O2-  O476  1  0.91865786  0.58462774  0.85457893  1
  O2-  O477  1  0.88667774  0.82321150  0.19101597  1
  O2-  O478  1  0.91160010  0.82923238  0.52829084  1
  O2-  O479  1  0.92315031  0.82702569  0.85163928  1
  O2-  O480  1  0.19188227  0.08424290  0.29590282  1
  O2-  O481  1  0.16928786  0.08315827  0.64980491  1
  O2-  O482  1  0.14540753  0.07281377  0.98385222  1
  O2-  O483  1  0.13257227  0.30358000  0.29199055  1
  O2-  O484  1  0.17215285  0.34581927  0.66349422  1
  O2-  O485  1  0.16320408  0.32683640  0.98732816  1
  O2-  O486  1  0.16394114  0.57643211  0.31275624  1
  O2-  O487  1  0.17383813  0.58438717  0.65498496  1
  O2-  O488  1  0.16541393  0.56769657  1.03896911  1
  O2-  O489  1  0.18337428  0.89989164  0.29630053  1
  O2-  O490  1  0.15907803  0.82915503  0.65264843  1
  O2-  O491  1  0.15839853  0.82627877  0.98703816  1
  O2-  O492  1  0.41197170  0.06920238  0.30252043  1
  O2-  O493  1  0.41892501  0.08694004  0.64550962  1
  O2-  O494  1  0.40565748  0.07777194  0.98421661  1
  O2-  O495  1  0.44005811  0.35291360  0.31005882  1
  O2-  O496  1  0.42406145  0.34303101  0.63486770  1
  O2-  O497  1  0.41761831  0.32524310  0.97850988  1
  O2-  O498  1  0.44191009  0.61202749  0.31973888  1
  O2-  O499  1  0.42463369  0.58785120  0.65096847  1
  O2-  O500  1  0.42224999  0.60015246  0.97382822  1
  O2-  O501  1  0.39835205  0.82858318  0.31233931  1
  O2-  O502  1  0.42576870  0.82509517  0.65366728  1
  O2-  O503  1  0.40473243  0.83088538  0.98113642  1
  O2-  O504  1  0.62742235  0.08082022  0.30884586  1
  O2-  O505  1  0.65399582  0.10168033  0.64119544  1
  O2-  O506  1  0.65132803  0.08433781  0.97079710  1
  O2-  O507  1  0.69613893  0.35483691  0.31095119  1
  O2-  O508  1  0.66781286  0.33498447  0.65212104  1
  O2-  O509  1  0.64622056  0.35277286  0.98815743  1
  O2-  O510  1  0.67051598  0.57777079  0.30128551  1
  O2-  O511  1  0.67112988  0.58521631  0.65616959  1
  O2-  O512  1  0.66403563  0.57577463  0.97722538  1
  O2-  O513  1  0.67033867  0.84559914  0.31507297  1
  O2-  O514  1  0.66973917  0.83278576  0.65327077  1
  O2-  O515  1  0.59930888  0.80049932  0.96278983  1
  O2-  O516  1  0.93417808  0.06260870  0.32758905  1
  O2-  O517  1  0.89674729  0.07652813  0.63911173  1
  O2-  O518  1  0.83524007  0.04050206  0.94569352  1
  O2-  O519  1  0.91155498  0.31530670  0.29419032  1
  O2-  O520  1  0.92036038  0.32885200  0.64892244  1
  O2-  O521  1  0.90804984  0.32926905  0.98735237  1
  O2-  O522  1  0.90683338  0.59080652  0.30535852  1
  O2-  O523  1  0.92985296  0.56564408  0.63036847  1
  O2-  O524  1  0.91898420  0.58560505  0.98008347  1
  O2-  O525  1  0.89916988  0.82261239  0.31348065  1
  O2-  O526  1  0.91505592  0.83209083  0.65079857  1
  O2-  O527  1  0.91101622  0.82649239  0.97471501  1
  O2-  O528  1  0.05902757  0.16355162  0.02553240  1
  O2-  O529  1  0.09928123  0.15268918  0.34650551  1
  O2-  O530  1  0.11116128  0.18683226  0.71167208  1
  O2-  O531  1  0.07649710  0.40207837  0.03606795  1
  O2-  O532  1  0.06817875  0.39778554  0.34819946  1
  O2-  O533  1  0.08803614  0.42242303  0.69503610  1
  O2-  O534  1  0.08025034  0.66297576  0.03320986  1
  O2-  O535  1  0.07723510  0.73039563  0.34193026  1
  O2-  O536  1  0.08204631  0.66123227  0.69305709  1
  O2-  O537  1  0.07288000  0.90711551  0.02267111  1
  O2-  O538  1  0.05734368  0.89710877  0.35853176  1
  O2-  O539  1  0.08200133  0.91698346  0.69443885  1
  O2-  O540  1  0.31762198  0.15862683  0.01376374  1
  O2-  O541  1  0.35453522  0.18286029  0.34519551  1
  O2-  O542  1  0.36649375  0.18682862  0.69901391  1
  O2-  O543  1  0.33113401  0.41287191  0.01506198  1
  O2-  O544  1  0.37831415  0.44736219  0.35686687  1
  O2-  O545  1  0.35084808  0.42835669  0.68882247  1
  O2-  O546  1  0.33683073  0.66638653  0.01714556  1
  O2-  O547  1  0.33532072  0.66783377  0.35178212  1
  O2-  O548  1  0.33897962  0.66536158  0.69362924  1
  O2-  O549  1  0.32371991  0.91066159  0.02481174  1
  O2-  O550  1  0.31330072  0.90939665  0.34988645  1
  O2-  O551  1  0.30331129  0.84418637  0.71197650  1
  O2-  O552  1  0.57304055  0.18507936  0.01445567  1
  O2-  O553  1  0.59035501  0.19688866  0.35971528  1
  O2-  O554  1  0.57123798  0.16845932  0.69045309  1
  O2-  O555  1  0.59668132  0.39427059  0.00875253  1
  O2-  O556  1  0.60386366  0.42983632  0.34435110  1
  O2-  O557  1  0.58669072  0.41956683  0.68442143  1
  O2-  O558  1  0.57434389  0.65365845  0.01131054  1
  O2-  O559  1  0.58339389  0.69350667  0.36395583  1
  O2-  O560  1  0.58486856  0.66855598  0.69262040  1
  O2-  O561  1  0.57402743  0.92127404  0.02708249  1
  O2-  O562  1  0.56735941  0.90873875  0.35185250  1
  O2-  O563  1  0.58902450  0.90759446  0.70276370  1
  O2-  O564  1  0.89635413  0.17071289  0.02409181  1
  O2-  O565  1  0.85818618  0.15603385  0.34085797  1
  O2-  O566  1  0.81562213  0.16521820  0.68657007  1
  O2-  O567  1  0.82379121  0.41638011  0.02061032  1
  O2-  O568  1  0.87057473  0.42876029  0.36317436  1
  O2-  O569  1  0.83626111  0.40967058  0.68917221  1
  O2-  O570  1  0.82751388  0.66239894  0.01959445  1
  O2-  O571  1  0.82114852  0.65982052  0.35337093  1
  O2-  O572  1  0.83759786  0.67461141  0.70020086  1
  O2-  O573  1  0.86150993  0.93756708  0.02428568  1
  O2-  O574  1  0.83811636  0.91686677  0.36195258  1
  O2-  O575  1  0.83815777  0.91538650  0.68981415  1
