# generated using pymatgen
data_H2O
_symmetry_space_group_name_H-M   'P 1'
_cell_length_a   17.99292279
_cell_length_b   17.99846212
_cell_length_c   22.00595647
_cell_angle_alpha   90.01078989
_cell_angle_beta   89.98217198
_cell_angle_gamma   120.00313717
_symmetry_Int_Tables_number   1
_chemical_formula_structural   H2O
_chemical_formula_sum   'H384 O192'
_cell_volume   6171.54989903
_cell_formula_units_Z   192
loop_
 _symmetry_equiv_pos_site_id
 _symmetry_equiv_pos_as_xyz
  1  'x, y, z'
loop_
 _atom_type_symbol
 _atom_type_oxidation_number
  H+  1.0
  O2-  -2.0
loop_
 _atom_site_type_symbol
 _atom_site_label
 _atom_site_symmetry_multiplicity
 _atom_site_fract_x
 _atom_site_fract_y
 _atom_site_fract_z
 _atom_site_occupancy
  H+  H0  1  0.87051700  0.49511360  0.49078674  1
  H+  H1  1  0.70079911  0.32937097  0.30805444  1
  H+  H2  1  0.36508098  0.63747194  0.67357444  1
  H+  H3  1  0.88488701  0.11413600  0.16577890  1
  H+  H4  1  0.25942310  0.11847191  0.66612401  1
  H+  H5  1  0.47477494  0.62214536  0.17414207  1
  H+  H6  1  0.76700390  0.36875013  0.18047167  1
  H+  H7  1  0.87571022  0.21773296  0.15886139  1
  H+  H8  1  0.35972172  0.63359472  0.00883726  1
  H+  H9  1  0.14265845  0.61442799  0.84222674  1
  H+  H10  1  0.63441030  0.77118542  0.32936602  1
  H+  H11  1  1.02190036  0.64410647  0.17926530  1
  H+  H12  1  0.13211352  0.10860627  0.16042565  1
  H+  H13  1  0.26603217  0.39541767  0.66454364  1
  H+  H14  1  0.28387071  0.14529801  0.33252453  1
  H+  H15  1  0.33388448  0.16501711  0.06590532  1
  H+  H16  1  0.51690576  0.87880177  0.82993845  1
  H+  H17  1  0.38925642  0.52655770  0.99224238  1
  H+  H18  1  0.13249275  0.85428998  1.00679119  1
  H+  H19  1  0.39389434  0.37298006  1.00415766  1
  H+  H20  1  0.21688630  0.36459197  0.83439288  1
  H+  H21  1  0.58932853  0.91530473  0.39064125  1
  H+  H22  1  0.72872134  0.63508400  0.31772414  1
  H+  H23  1  0.62844972  0.01808450  0.68029868  1
  H+  H24  1  0.62870193  0.43360358  0.17061186  1
  H+  H25  1  0.50722044  0.13876511  0.82508001  1
  H+  H26  1  0.08582113  0.40970320  0.09769270  1
  H+  H27  1  0.86855591  0.13913039  0.00766235  1
  H+  H28  1  0.63310564  0.86119228  0.66488716  1
  H+  H29  1  -0.03074120  0.86078328  0.66667160  1
  H+  H30  1  0.67499632  0.66735276  0.51841545  1
  H+  H31  1  0.22915512  0.11268439  0.99098797  1
  H+  H32  1  0.11902044  0.14118890  1.00317126  1
  H+  H33  1  0.98241461  0.12434974  0.98983020  1
  H+  H34  1  0.07923073  0.92148574  0.76372503  1
  H+  H35  1  0.52748648  0.87068076  0.48605474  1
  H+  H36  1  0.89120319  0.02274628  0.32827275  1
  H+  H37  1  0.25447426  0.61080638  0.33624695  1
  H+  H38  1  0.64009271  0.01729902  0.85169345  1
  H+  H39  1  0.67707031  0.33788558  0.55502299  1
  H+  H40  1  0.12511801  0.61998827  0.51628641  1
  H+  H41  1  0.62687832  0.24052767  0.16447967  1
  H+  H42  1  0.11770684  0.38288024  0.15751556  1
  H+  H43  1  0.88843615  0.62202265  0.83878764  1
  H+  H44  1  0.22090905  0.10907831  0.16199065  1
  H+  H45  1  0.02307973  0.89043832  0.33845059  1
  H+  H46  1  0.74637683  0.86700824  0.18417930  1
  H+  H47  1  0.72278337  0.86175388  0.83765174  1
  H+  H48  1  0.12628697  0.51220708  0.17370718  1
  H+  H49  1  0.17571171  0.09462555  0.38822993  1
  H+  H50  1  0.60833048  0.73142037  0.67809130  1
  H+  H51  1  0.37889393  0.11464982  0.65883364  1
  H+  H52  1  0.13803325  0.61324911  0.32945960  1
  H+  H53  1  0.77246150  0.38808182  -0.03886644  1
  H+  H54  1  0.42973178  0.95430518  0.70183850  1
  H+  H55  1  0.70858744  0.35098545  0.83957781  1
  H+  H56  1  0.11487364  0.88984320  0.48847842  1
  H+  H57  1  0.62617747  0.01022426  0.48453488  1
  H+  H58  1  0.85712713  0.88342771  0.82731968  1
  H+  H59  1  0.02605448  0.13725860  0.82387633  1
  H+  H60  1  0.01858251  0.13671774  0.49403324  1
  H+  H61  1  0.53121651  0.89134228  0.33202769  1
  H+  H62  1  0.69271219  0.80715938  0.49130910  1
  H+  H63  1  0.87219438  0.22173074  0.83694737  1
  H+  H64  1  0.14707180  0.41665860  0.47010583  1
  H+  H65  1  0.22143650  0.60569656  0.99623062  1
  H+  H66  1  1.00037255  0.62793882  0.99820261  1
  H+  H67  1  0.62642817  0.88888633  0.48146920  1
  H+  H68  1  0.34482599  0.91797104  0.73808613  1
  H+  H69  1  0.35540123  0.97138739  0.82763135  1
  H+  H70  1  0.97259113  0.86437303  0.83637171  1
  H+  H71  1  0.98542127  0.36123729  0.17800734  1
  H+  H72  1  0.89649823  0.53760607  0.84503310  1
  H+  H73  1  0.45923518  0.33701019  0.49428272  1
  H+  H74  1  0.03034909  0.88609078  0.00221886  1
  H+  H75  1  0.08566005  0.17119029  0.72947459  1
  H+  H76  1  0.13377651  0.73385398  0.33675023  1
  H+  H77  1  0.58914148  0.22064479  0.33929574  1
  H+  H78  1  0.60569213  0.87800313  0.82738620  1
  H+  H79  1  0.38621658  0.76015384  0.65528068  1
  H+  H80  1  1.04255789  0.64666551  0.34147528  1
  H+  H81  1  0.13269351  0.02322580  0.50075581  1
  H+  H82  1  0.61574533  0.22939860  0.48953544  1
  H+  H83  1  0.37815590  0.76665617  0.99593874  1
  H+  H84  1  0.88712953  0.11105035  0.66568209  1
  H+  H85  1  0.47966636  0.84838903  0.18269147  1
  H+  H86  1  0.36200034  -0.00600159  0.33428740  1
  H+  H87  1  0.52265627  0.12548725  0.15649900  1
  H+  H88  1  0.63119349  0.84957600  0.98671223  1
  H+  H89  1  0.12700361  0.28361495  0.50199051  1
  H+  H90  1  0.78546236  0.13596532  0.33590431  1
  H+  H91  1  0.39318728  0.03305957  0.65773558  1
  H+  H92  1  0.36374894  0.22728911  0.15830567  1
  H+  H93  1  0.62920828  0.40223830  0.32994776  1
  H+  H94  1  0.88051569  0.85748971  0.48259888  1
  H+  H95  1  0.73080330  0.10229558  0.85252165  1
  H+  H96  1  0.36631506  0.22726544  0.00905771  1
  H+  H97  1  0.13503866  0.51400635  -0.00678322  1
  H+  H98  1  0.87136889  0.89244795  0.17641312  1
  H+  H99  1  0.87745809  0.53148247  0.19750974  1
  H+  H100  1  0.47044847  0.36537510  0.82599210  1
  H+  H101  1  0.38742052  0.60514111  0.49305645  1
  H+  H102  1  0.36518897  0.39202873  0.15770485  1
  H+  H103  1  0.36571896  0.48169338  0.15899246  1
  H+  H104  1  0.64392772  0.77803467  0.17624666  1
  H+  H105  1  0.99124859  0.35708239  0.83532182  1
  H+  H106  1  0.47559289  0.37678381  0.32219717  1
  H+  H107  1  0.92003242  0.83530258  0.38311454  1
  H+  H108  1  0.14696127  0.77970572  0.66180503  1
  H+  H109  1  0.26750390  0.13416466  0.82127471  1
  H+  H110  1  0.85456470  0.37777882  -0.04436399  1
  H+  H111  1  0.65895240  0.27110474  0.65367954  1
  H+  H112  1  0.13554783  0.11867459  0.83613135  1
  H+  H113  1  0.75476943  0.65108658  0.51455702  1
  H+  H114  1  0.60487661  0.13912610  0.68342399  1
  H+  H115  1  0.12880901  0.87965328  0.83594583  1
  H+  H116  1  0.63822036  0.54342392  0.31262785  1
  H+  H117  1  0.80360112  0.62181234  0.65589802  1
  H+  H118  1  0.10557987  0.97448859  0.67074121  1
  H+  H119  1  -0.01422578  0.87036221  0.18240457  1
  H+  H120  1  0.97571553  0.86906614  0.47901746  1
  H+  H121  1  0.32991273  0.90754340  0.43212547  1
  H+  H122  1  0.66472284  0.82749666  0.89773830  1
  H+  H123  1  0.12607483  0.51971706  0.34126759  1
  H+  H124  1  0.47505419  0.37050877  0.17063564  1
  H+  H125  1  0.10983142  0.88742595  0.67252890  1
  H+  H126  1  0.02221893  0.13730780  0.67218601  1
  H+  H127  1  0.82914234  0.40495894  0.34357185  1
  H+  H128  1  0.60391553  0.13467387  0.48506512  1
  H+  H129  1  0.39031690  0.38415892  0.65487963  1
  H+  H130  1  0.10646667  0.27451449  0.32581198  1
  H+  H131  1  0.36616826  0.13928188  0.15862021  1
  H+  H132  1  0.88567979  0.77007138  0.66565292  1
  H+  H133  1  0.13493647  0.64680833  0.68002096  1
  H+  H134  1  0.32449477  0.39773641  0.40639328  1
  H+  H135  1  0.87589253  0.27266244  0.51107718  1
  H+  H136  1  0.23201278  0.87460601  0.32271250  1
  H+  H137  1  0.88457179  0.25749337  0.00574284  1
  H+  H138  1  0.78323705  0.64558265  0.01121863  1
  H+  H139  1  0.38836000  0.12186994  0.31424672  1
  H+  H140  1  0.52774226  0.14387503  0.00437953  1
  H+  H141  1  0.36885634  0.13701567  0.50910372  1
  H+  H142  1  0.47764403  0.61387675  0.83973014  1
  H+  H143  1  0.61918194  0.47146279  0.65274220  1
  H+  H144  1  0.37205818  0.10301867  0.83630954  1
  H+  H145  1  0.32481497  0.82168653  0.19778348  1
  H+  H146  1  0.27923703  0.38780887  0.00143738  1
  H+  H147  1  0.64965337  0.46934695  0.38303493  1
  H+  H148  1  0.71518295  0.96543494  0.10501388  1
  H+  H149  1  0.11999664  0.73933977  0.83574963  1
  H+  H150  1  0.61490002  0.65727419  0.15867113  1
  H+  H151  1  0.87291169  0.88734056  0.34854261  1
  H+  H152  1  0.87212866  0.73927526  0.16811239  1
  H+  H153  1  0.52497514  0.86374244  0.17226773  1
  H+  H154  1  0.60393905  0.47794329  0.83588195  1
  H+  H155  1  0.67524492  0.82971632  0.24758246  1
  H+  H156  1  0.84263301  0.42295573  0.13619193  1
  H+  H157  1  0.02844893  0.37548637  0.00464942  1
  H+  H158  1  0.11207376  -0.02193235  0.15334084  1
  H+  H159  1  0.38958253  0.84636612  0.49648981  1
  H+  H160  1  0.92907921  0.59838906  0.28700937  1
  H+  H161  1  0.37520925  0.35068223  0.49346585  1
  H+  H162  1  0.35176493  0.62894732  0.16507836  1
  H+  H163  1  0.38597383  0.11188288  0.99226117  1
  H+  H164  1  0.10229658  0.45711980  0.82594220  1
  H+  H165  1  0.63536054  0.27970231  -0.00538783  1
  H+  H166  1  0.93533668  0.36550757  0.34084129  1
  H+  H167  1  0.89629943  0.35835765  0.19182201  1
  H+  H168  1  0.52619727  0.63738897  0.00796586  1
  H+  H169  1  0.10619178  0.63660238  0.17341113  1
  H+  H170  1  0.66118102  0.11663569  0.16530440  1
  H+  H171  1  0.11295520  0.88858477  0.15616927  1
  H+  H172  1  0.28374154  0.39802224  0.33449551  1
  H+  H173  1  0.84381094  0.16585926  0.07421939  1
  H+  H174  1  0.85866462  0.87612462  1.01503940  1
  H+  H175  1  0.38031917  0.76637247  0.83953046  1
  H+  H176  1  0.58577938  0.33595240  0.47664244  1
  H+  H177  1  0.58983420  0.48808515  0.51865347  1
  H+  H178  1  0.86639021  -0.01966518  0.16862654  1
  H+  H179  1  0.15395159  0.56636977  0.23583503  1
  H+  H180  1  0.10967500  0.38786074  0.67691367  1
  H+  H181  1  0.73454713  0.37312806  0.49541527  1
  H+  H182  1  0.67015942  0.09297023  -0.05492322  1
  H+  H183  1  1.00739013  0.63392870  0.48747443  1
  H+  H184  1  0.90620350  0.32733920  0.57206203  1
  H+  H185  1  0.66611277  0.00374474  0.13948382  1
  H+  H186  1  0.63771149  0.55278410  0.16701660  1
  H+  H187  1  0.22736729  0.87218208  0.65129036  1
  H+  H188  1  0.71990725  0.85890445  0.66474669  1
  H+  H189  1  0.86128812  0.39693482  0.49885313  1
  H+  H190  1  0.39276899  0.51744240  0.32872765  1
  H+  H191  1  0.64996018  0.53642089  0.99744486  1
  H+  H192  1  0.77881136  0.65682649  0.16206783  1
  H+  H193  1  0.79420567  0.39176855  0.67954888  1
  H+  H194  1  0.26522442  0.88503968  0.82317934  1
  H+  H195  1  0.10950276  0.70517797  0.02694305  1
  H+  H196  1  0.36427622  0.88252482  0.00369672  1
  H+  H197  1  0.34528064  0.69316484  0.32610932  1
  H+  H198  1  0.10426282  0.61618273  1.00545764  1
  H+  H199  1  0.35621212  0.39254775  0.80866985  1
  H+  H200  1  0.38129818  0.59917202  0.32736771  1
  H+  H201  1  0.10787232  0.39365995  0.37129610  1
  H+  H202  1  0.47309927  0.11327306  0.32152829  1
  H+  H203  1  0.38479342  0.37377620  0.32415669  1
  H+  H204  1  0.38904305  0.61531074  0.83856055  1
  H+  H205  1  0.38523951  0.80884785  0.35876520  1
  H+  H206  1  0.40250052  0.52606126  0.49561731  1
  H+  H207  1  0.12303983  0.35965828  0.83570216  1
  H+  H208  1  0.86417628  0.62604629  0.48027993  1
  H+  H209  1  0.53683133  0.39946602  0.01851648  1
  H+  H210  1  -0.01948226  0.35876581  0.66830983  1
  H+  H211  1  0.35963903  0.48170860  0.82225114  1
  H+  H212  1  0.12260089  0.76803019  0.50064614  1
  H+  H213  1  0.14759086  0.27787193  0.98803026  1
  H+  H214  1  0.89653066  0.77928589  0.99388885  1
  H+  H215  1  0.41361266  0.92387908  0.14379176  1
  H+  H216  1  0.13288172  0.27532603  0.65363565  1
  H+  H217  1  0.85167477  0.73860502  0.33428478  1
  H+  H218  1  0.13730199  1.02546563  0.33797940  1
  H+  H219  1  0.52245685  0.14927796  0.67029761  1
  H+  H220  1  0.75800355  0.12417733  0.16417741  1
  H+  H221  1  0.52107162  0.64032213  0.34182743  1
  H+  H222  1  0.01728360  0.13770389  0.33756581  1
  H+  H223  1  0.13512564  0.52414180  0.66721782  1
  H+  H224  1  0.61228710  0.64576944  0.33612508  1
  H+  H225  1  1.03285357  0.65103044  0.83136758  1
  H+  H226  1  0.35574740  0.23071554  0.50496746  1
  H+  H227  1  0.61505979  0.72663480  0.00387378  1
  H+  H228  1  0.63221329  0.32932043  0.14865261  1
  H+  H229  1  0.38267401  0.53380006  0.65855423  1
  H+  H230  1  0.70689395  0.62605590  0.67714569  1
  H+  H231  1  0.26882562  0.86479674  0.48847025  1
  H+  H232  1  0.12132761  0.38238898  0.00146188  1
  H+  H233  1  0.35789851  0.22031862  0.80993105  1
  H+  H234  1  0.71989271  0.84665674  -0.00584981  1
  H+  H235  1  0.87952758  0.22286069  0.34328822  1
  H+  H236  1  0.77937381  0.13907627  0.69267487  1
  H+  H237  1  0.16088845  0.58507075  0.60693028  1
  H+  H238  1  0.77299739  0.63655715  0.82402141  1
  H+  H239  1  0.27432444  0.63261603  0.82561773  1
  H+  H240  1  0.51904955  0.88149442  0.67251430  1
  H+  H241  1  0.61994498  0.49026727  0.49408526  1
  H+  H242  1  0.08521350  0.91559529  0.06403647  1
  H+  H243  1  0.88165016  0.62164681  0.18652541  1
  H+  H244  1  0.27369662  0.63686123  0.67448175  1
  H+  H245  1  0.88199021  0.11047058  0.50737952  1
  H+  H246  1  0.86568751  0.36875820  0.82865561  1
  H+  H247  1  0.89112129  1.02113350  0.83831907  1
  H+  H248  1  0.73094717  0.12992672  1.00329254  1
  H+  H249  1  0.36878378  0.90986539  0.33679896  1
  H+  H250  1  0.82946240  0.41065208  0.87067188  1
  H+  H251  1  0.11009998  0.22439769  0.15734688  1
  H+  H252  1  0.62376329  0.39589379  0.01107737  1
  H+  H253  1  0.11271548  0.22965158  0.82473127  1
  H+  H254  1  0.88968145  0.11095923  0.32786408  1
  H+  H255  1  0.89423166  0.36149990  0.67275241  1
  H+  H256  1  0.65891795  0.02956649  0.31746057  1
  H+  H257  1  0.22541434  0.86101757  0.16583936  1
  H+  H258  1  0.89255246  0.11085680  0.84022040  1
  H+  H259  1  0.47304494  0.13035466  0.50685808  1
  H+  H260  1  0.20726584  0.60835018  0.51425330  1
  H+  H261  1  0.65106416  0.33231586  0.93216061  1
  H+  H262  1  0.57174675  0.90892965  0.73688813  1
  H+  H263  1  0.92273056  0.53819380  0.34219498  1
  H+  H264  1  0.37843373  0.85459175  0.84129254  1
  H+  H265  1  0.90710943  0.35244667  1.02694358  1
  H+  H266  1  0.25716670  0.61860877  0.16293735  1
  H+  H267  1  0.11295155  0.88720809  0.33103133  1
  H+  H268  1  0.54472204  0.65986231  0.49326662  1
  H+  H269  1  0.11132952  0.14869633  0.34176087  1
  H+  H270  1  0.01949964  0.13631887  0.15488875  1
  H+  H271  1  0.89195867  0.63371080  0.67670280  1
  H+  H272  1  0.23187370  0.36574313  0.17404680  1
  H+  H273  1  0.61255220  0.72598027  0.82850297  1
  H+  H274  1  0.12785610  0.11019897  0.65814103  1
  H+  H275  1  0.77097619  0.12989633  0.48690530  1
  H+  H276  1  0.90236193  0.63957932  0.99800628  1
  H+  H277  1  0.32964412  0.73647959  0.19727161  1
  H+  H278  1  0.85630386  0.88081447  0.67719992  1
  H+  H279  1  0.38803070  0.02396632  0.99177176  1
  H+  H280  1  0.10762304  -0.01648304  0.82322467  1
  H+  H281  1  0.64030147  0.61937191  0.83986917  1
  H+  H282  1  0.88596622  0.77315116  0.83662807  1
  H+  H283  1  0.63887661  0.86372365  0.32406410  1
  H+  H284  1  0.91537275  0.53104695  0.67395288  1
  H+  H285  1  0.38941664  1.02685101  0.16946438  1
  H+  H286  1  0.26540608  0.13338568  0.50597824  1
  H+  H287  1  0.27517867  0.88249398  0.01094974  1
  H+  H288  1  0.86563382  0.50499758  0.07642500  1
  H+  H289  1  0.07534460  0.17031447  0.43338112  1
  H+  H290  1  0.82416497  0.89588101  0.07616173  1
  H+  H291  1  0.59946888  0.68503174  0.43440325  1
  H+  H292  1  0.54906149  0.35665716  0.41754311  1
  H+  H293  1  0.41446143  0.34718572  0.59794421  1
  H+  H294  1  0.93121193  0.84222718  0.24509076  1
  H+  H295  1  0.66806564  0.60938418  0.22803947  1
  H+  H296  1  0.33400734  0.66600530  0.76555152  1
  H+  H297  1  0.15853242  0.33810190  0.59551113  1
  H+  H298  1  0.91797650  0.08460918  0.22739219  1
  H+  H299  1  0.58148975  0.66631154  0.76906120  1
  H+  H300  1  0.60135535  0.63892929  0.67446246  1
  H+  H301  1  0.42172048  0.81892095  0.55576233  1
  H+  H302  1  0.41510760  0.33972862  0.22925233  1
  H+  H303  1  0.91485644  0.58696915  0.54910435  1
  H+  H304  1  0.68581790  0.62017204  0.60484703  1
  H+  H305  1  0.38195412  0.81501877  0.28469175  1
  H+  H306  1  0.47221286  0.62160617  0.66600802  1
  H+  H307  1  0.14798410  0.79818916  0.95734785  1
  H+  H308  1  0.92929149  0.32679827  0.89754337  1
  H+  H309  1  0.17335694  0.83924942  0.26282062  1
  H+  H310  1  0.16523904  0.08616530  0.89520070  1
  H+  H311  1  0.38597752  0.84778188  0.64940172  1
  H+  H312  1  0.22052331  0.36201885  0.49810573  1
  H+  H313  1  0.16537105  0.33709164  0.23093997  1
  H+  H314  1  0.64554548  0.62277261  0.99804537  1
  H+  H315  1  0.44310074  0.35318779  0.95212523  1
  H+  H316  1  0.83755401  0.16303550  0.43227786  1
  H+  H317  1  0.16885318  0.57855204  0.89883493  1
  H+  H318  1  0.68141694  0.08956213  0.63081990  1
  H+  H319  1  0.06089539  0.32317644  0.29964979  1
  H+  H320  1  0.82059855  0.66282262  0.38330784  1
  H+  H321  1  0.40827056  0.82455024  0.93549254  1
  H+  H322  1  0.78014490  0.88927739  0.34148904  1
  H+  H323  1  0.64064504  0.06221285  0.54381927  1
  H+  H324  1  0.67507226  0.59478743  0.89932971  1
  H+  H325  1  0.85896431  0.97144543  0.67539449  1
  H+  H326  1  0.82801976  0.91370348  0.76780197  1
  H+  H327  1  0.38569764  0.32147836  0.86793337  1
  H+  H328  1  0.60460643  0.92295881  0.04660745  1
  H+  H329  1  0.61457855  0.26837894  0.83972030  1
  H+  H330  1  0.41802105  0.58261229  0.23448247  1
  H+  H331  1  0.84040709  0.41837267  0.74454195  1
  H+  H332  1  0.37037872  0.23526428  0.32622115  1
  H+  H333  1  0.86906613  0.22726118  0.68289751  1
  H+  H334  1  0.10944300  0.68353108  0.73916143  1
  H+  H335  1  0.73916424  0.28672811  0.61574015  1
  H+  H336  1  0.41770694  0.09864194  0.56967360  1
  H+  H337  1  0.18227183  0.88630113  0.89467192  1
  H+  H338  1  0.53223962  0.38778169  0.65489028  1
  H+  H339  1  0.17215856  0.33694265  0.92765350  1
  H+  H340  1  0.58129385  0.15883956  0.09514332  1
  H+  H341  1  0.52329592  0.87395493  0.00148197  1
  H+  H342  1  0.41963772  0.08620970  0.22954591  1
  H+  H343  1  0.62169596  0.15023391  0.00688885  1
  H+  H344  1  0.60064107  0.38696927  0.83621557  1
  H+  H345  1  0.69500534  0.08890177  0.25886391  1
  H+  H346  1  0.13040698  0.11272268  0.50293371  1
  H+  H347  1  0.92954361  0.60910052  0.93262109  1
  H+  H348  1  0.13579483  0.77271631  0.17439630  1
  H+  H349  1  0.64238439  0.31696853  0.25232752  1
  H+  H350  1  0.31380254  0.64473327  0.43588727  1
  H+  H351  1  0.15280314  0.07717997  0.59774604  1
  H+  H352  1  1.00452969  0.62156377  0.67164008  1
  H+  H353  1  0.92155905  0.08929333  0.93263208  1
  H+  H354  1  0.87737349  0.02004680  0.50934509  1
  H+  H355  1  0.81397010  0.91164560  0.42789606  1
  H+  H356  1  0.08340835  0.66962623  0.43513166  1
  H+  H357  1  0.91286709  0.08123469  0.60410385  1
  H+  H358  1  0.84096084  0.16334875  0.77785423  1
  H+  H359  1  0.14145806  0.02310109  0.99076859  1
  H+  H360  1  0.32579739  0.65923706  0.06877845  1
  H+  H361  1  0.26840872  0.30562686  0.44573901  1
  H+  H362  1  0.33399022  0.42008271  0.06397979  1
  H+  H363  1  0.84313541  0.67802607  0.07139478  1
  H+  H364  1  0.86812914  0.71772267  0.46998769  1
  H+  H365  1  0.56477402  0.16431988  0.39912030  1
  H+  H366  1  0.58367260  0.68528653  0.09987022  1
  H+  H367  1  0.40513896  0.07661091  0.89673365  1
  H+  H368  1  0.08865890  0.17270036  0.06147526  1
  H+  H369  1  0.92124520  0.83600952  0.93326235  1
  H+  H370  1  0.15814356  0.83020567  0.55854676  1
  H+  H371  1  0.07729752  0.40845821  0.74078797  1
  H+  H372  1  0.59637977  0.43628176  0.10220137  1
  H+  H373  1  0.31912395  0.14867419  0.72527757  1
  H+  H374  1  0.85935411  0.46661795  0.05822491  1
  H+  H375  1  0.35603445  0.71017952  0.49036360  1
  H+  H376  1  0.86442241  0.42837194  0.41130530  1
  H+  H377  1  0.09257626  0.92269681  0.42684590  1
  H+  H378  1  0.41807003  0.58745939  0.93390870  1
  H+  H379  1  0.56871930  0.17898307  0.76719753  1
  H+  H380  1  0.32245715  0.42767166  0.72502439  1
  H+  H381  1  0.93999968  0.32909674  0.27591221  1
  H+  H382  1  0.83400032  0.65996161  0.76450468  1
  H+  H383  1  0.34761058  0.91583380  0.09363196  1
  O2-  O384  1  0.08008141  0.16635566  0.13887608  1
  O2-  O385  1  0.07896123  0.16902889  0.47876287  1
  O2-  O386  1  0.08693674  0.16943652  0.80827511  1
  O2-  O387  1  0.08470263  0.41087696  0.14312987  1
  O2-  O388  1  0.16089203  0.46603247  0.44207253  1
  O2-  O389  1  0.07322465  0.39758646  0.81130305  1
  O2-  O390  1  0.08122960  0.67316415  0.16307657  1
  O2-  O391  1  0.07383257  0.67005444  0.47946431  1
  O2-  O392  1  0.09465148  0.68030767  0.81997047  1
  O2-  O393  1  0.07917787  0.91481564  0.14072374  1
  O2-  O394  1  0.08974363  0.92499666  0.47228571  1
  O2-  O395  1  0.07793300  0.92177095  0.80975139  1
  O2-  O396  1  0.33510610  0.16780921  0.14182444  1
  O2-  O397  1  0.32768167  0.16585256  0.49363452  1
  O2-  O398  1  0.32670835  0.15673238  0.80453985  1
  O2-  O399  1  0.33432370  0.42176775  0.14251917  1
  O2-  O400  1  0.30343875  0.36601334  0.45666120  1
  O2-  O401  1  0.32419327  0.42384435  0.80330956  1
  O2-  O402  1  0.31842549  0.65558808  0.14927570  1
  O2-  O403  1  0.31865393  0.64816634  0.48060036  1
  O2-  O404  1  0.33544536  0.66567321  0.81145782  1
  O2-  O405  1  0.35703630  0.91833559  0.13956859  1
  O2-  O406  1  0.32830765  0.88628119  0.47379949  1
  O2-  O407  1  0.32635120  0.91051539  0.81126250  1
  O2-  O408  1  0.58330738  0.15368688  0.14108332  1
  O2-  O409  1  0.57519412  0.16855674  0.47720766  1
  O2-  O410  1  0.56708925  0.17836005  0.81223950  1
  O2-  O411  1  0.58688872  0.44128705  0.14752277  1
  O2-  O412  1  0.53210455  0.32514777  0.45590130  1
  O2-  O413  1  0.56642067  0.41566929  0.82855812  1
  O2-  O414  1  0.58353858  0.68797357  0.14574704  1
  O2-  O415  1  0.60536514  0.69477647  0.47910907  1
  O2-  O416  1  0.58284391  0.66430599  0.81502858  1
  O2-  O417  1  0.65722186  0.95325312  0.11409080  1
  O2-  O418  1  0.58653477  0.90853368  0.46830533  1
  O2-  O419  1  0.57549131  0.90826353  0.81182253  1
  O2-  O420  1  0.84476808  0.15964998  0.14167502  1
  O2-  O421  1  0.83312643  0.16140232  0.47818012  1
  O2-  O422  1  0.83966809  0.15987596  0.82300296  1
  O2-  O423  1  0.83020191  0.40962683  0.17938458  1
  O2-  O424  1  0.83615055  0.42781638  0.47680785  1
  O2-  O425  1  0.83352183  0.40133120  0.82560589  1
  O2-  O426  1  0.84014741  0.68023849  0.15010191  1
  O2-  O427  1  0.83038883  0.65500334  0.46402106  1
  O2-  O428  1  0.83444518  0.66521128  0.80965534  1
  O2-  O429  1  0.83499240  0.91551760  0.16023132  1
  O2-  O430  1  0.80989906  0.90812657  0.47654603  1
  O2-  O431  1  0.82757177  0.91473071  0.81361770  1
  O2-  O432  1  0.15973469  0.07530668  0.17366684  1
  O2-  O433  1  0.16106959  0.08305522  0.51848878  1
  O2-  O434  1  0.16422704  0.08540874  0.84979527  1
  O2-  O435  1  0.17003032  0.33359317  0.18629451  1
  O2-  O436  1  0.16169215  0.34468595  0.51456317  1
  O2-  O437  1  0.15876577  0.33137333  0.85264833  1
  O2-  O438  1  0.15579612  0.57175157  0.19062447  1
  O2-  O439  1  0.15285082  0.59015345  0.53598565  1
  O2-  O440  1  0.17096074  0.58138146  0.85367460  1
  O2-  O441  1  0.16819088  0.83727876  0.18349301  1
  O2-  O442  1  0.15834322  0.83082715  0.51361371  1
  O2-  O443  1  0.16259932  0.85431460  0.85673597  1
  O2-  O444  1  0.42091091  0.08741786  0.18288904  1
  O2-  O445  1  0.41378713  0.10315078  0.52414441  1
  O2-  O446  1  0.40048638  0.07074826  0.85147338  1
  O2-  O447  1  0.41433990  0.33656664  0.18347729  1
  O2-  O448  1  0.40541413  0.32489026  0.51643452  1
  O2-  O449  1  0.40357081  0.32941884  0.82569305  1
  O2-  O450  1  0.41489460  0.58484402  0.18886484  1
  O2-  O451  1  0.43243437  0.58830448  0.49354618  1
  O2-  O452  1  0.41709614  0.58358670  0.85536637  1
  O2-  O453  1  0.32611933  0.77899934  0.22475512  1
  O2-  O454  1  0.42421624  0.81934971  0.51044284  1
  O2-  O455  1  0.40941940  0.82599290  0.85725625  1
  O2-  O456  1  0.69391816  0.09051836  0.18112605  1
  O2-  O457  1  0.65235716  0.07101692  0.50054543  1
  O2-  O458  1  0.67233339  0.07468771  0.87015077  1
  O2-  O459  1  0.65510807  0.30578402  0.17834051  1
  O2-  O460  1  0.67302544  0.33606213  0.51017950  1
  O2-  O461  1  0.65065025  0.32996993  0.85633649  1
  O2-  O462  1  0.67098290  0.61278164  0.18169915  1
  O2-  O463  1  0.71727313  0.66078028  0.54329799  1
  O2-  O464  1  0.67306471  0.59073659  0.85421773  1
  O2-  O465  1  0.68257029  0.83375229  0.19941217  1
  O2-  O466  1  0.71885859  0.87082904  0.49391984  1
  O2-  O467  1  0.66174847  0.82935303  0.85208914  1
  O2-  O468  1  0.91652259  0.08062709  0.18235727  1
  O2-  O469  1  0.91216485  0.08010412  0.52358302  1
  O2-  O470  1  0.92627181  0.08190461  0.85207784  1
  O2-  O471  1  0.92949028  0.32932242  0.20005813  1
  O2-  O472  1  0.89505966  0.33009241  0.52832176  1
  O2-  O473  1  0.92499410  0.32416936  0.85320501  1
  O2-  O474  1  0.91138881  0.59337601  0.20581607  1
  O2-  O475  1  0.91385619  0.58300043  0.50481596  1
  O2-  O476  1  0.92381404  0.59817967  0.85754197  1
  O2-  O477  1  0.92631530  0.84091840  0.20044286  1
  O2-  O478  1  0.91390101  0.83035402  0.47000782  1
  O2-  O479  1  0.91349037  0.83224609  0.85385212  1
  O2-  O480  1  0.16787931  0.08990933  0.34428758  1
  O2-  O481  1  0.15255182  0.07440808  0.64297452  1
  O2-  O482  1  0.16919951  0.08295421  0.97493354  1
  O2-  O483  1  0.11811385  0.33136031  0.30877984  1
  O2-  O484  1  0.16013369  0.33654581  0.64073379  1
  O2-  O485  1  0.17839880  0.33909434  0.97357653  1
  O2-  O486  1  0.15738832  0.57124368  0.31524324  1
  O2-  O487  1  0.16811363  0.58505213  0.65308599  1
  O2-  O488  1  0.16140200  0.57540055  0.97976363  1
  O2-  O489  1  0.17139786  0.83840431  0.30811440  1
  O2-  O490  1  0.16612054  0.83765867  0.64284473  1
  O2-  O491  1  0.16227972  0.81920259  0.99896436  1
  O2-  O492  1  0.41453158  0.08566537  0.30074293  1
  O2-  O493  1  0.41961971  0.09295065  0.64363631  1
  O2-  O494  1  0.41681457  0.08334638  0.97514172  1
  O2-  O495  1  0.41761459  0.34540517  0.30543251  1
  O2-  O496  1  0.42141872  0.35418526  0.64237594  1
  O2-  O497  1  0.42984936  0.34446719  0.99531016  1
  O2-  O498  1  0.41989311  0.57832022  0.31209410  1
  O2-  O499  1  0.41317576  0.59640098  0.64901761  1
  O2-  O500  1  0.41818347  0.58788089  0.97957201  1
  O2-  O501  1  0.41709935  0.84155449  0.32320572  1
  O2-  O502  1  0.41875195  0.82016060  0.63643174  1
  O2-  O503  1  0.40802272  0.82716012  0.98098728  1
  O2-  O504  1  0.69546691  0.08955200  0.30432442  1
  O2-  O505  1  0.66322220  0.08305787  0.67297386  1
  O2-  O506  1  0.67150611  0.10902906  0.98886550  1
  O2-  O507  1  0.64715175  0.32693421  0.29742415  1
  O2-  O508  1  0.71100779  0.31671625  0.63201958  1
  O2-  O509  1  0.66198688  0.33949928  0.97739510  1
  O2-  O510  1  0.66466285  0.60392968  0.30010855  1
  O2-  O511  1  0.66207304  0.59435143  0.64740935  1
  O2-  O512  1  0.67982635  0.59655363  0.98230472  1
  O2-  O513  1  0.66905183  0.83125878  0.31172549  1
  O2-  O514  1  0.65906043  0.82709369  0.65101007  1
  O2-  O515  1  0.66241354  0.81743463  0.97358416  1
  O2-  O516  1  0.92110558  0.08206838  0.31080939  1
  O2-  O517  1  0.91580271  0.07986636  0.64935072  1
  O2-  O518  1  0.92150128  0.09593613  0.97742292  1
  O2-  O519  1  0.95044694  0.32578860  0.32028853  1
  O2-  O520  1  0.91782933  0.32639982  0.65540126  1
  O2-  O521  1  0.91638303  0.32422948  0.99240529  1
  O2-  O522  1  0.94475156  0.59864885  0.33002122  1
  O2-  O523  1  0.94362991  0.59049250  0.65753479  1
  O2-  O524  1  0.93615465  0.61439391  0.97821037  1
  O2-  O525  1  0.91731269  0.84505335  0.33902358  1
  O2-  O526  1  0.90777185  0.83070931  0.65497786  1
  O2-  O527  1  0.92844375  0.83926497  0.97839981  1
  O2-  O528  1  0.09377445  0.17678341  0.01605496  1
  O2-  O529  1  0.07760844  0.17628252  0.35403435  1
  O2-  O530  1  0.08432591  0.16963836  0.68389490  1
  O2-  O531  1  0.08921747  0.41034335  0.01856672  1
  O2-  O532  1  0.09262742  0.43004514  0.39643252  1
  O2-  O533  1  0.07890214  0.41625779  0.69390914  1
  O2-  O534  1  0.07067197  0.64251866  0.02359128  1
  O2-  O535  1  0.10606769  0.67443671  0.35333910  1
  O2-  O536  1  0.11008438  0.68381920  0.69403397  1
  O2-  O537  1  0.09087964  0.91375571  0.01844025  1
  O2-  O538  1  0.08709264  0.92065770  0.34809680  1
  O2-  O539  1  0.07882047  0.91565759  0.68947233  1
  O2-  O540  1  0.33431294  0.16570965  0.02004330  1
  O2-  O541  1  0.34662712  0.17452513  0.33838759  1
  O2-  O542  1  0.31974889  0.14471659  0.68034042  1
  O2-  O543  1  0.33928490  0.41869321  0.01867639  1
  O2-  O544  1  0.34026460  0.41933408  0.35260855  1
  O2-  O545  1  0.32618707  0.42902579  0.67978824  1
  O2-  O546  1  0.32580172  0.66053528  0.02333786  1
  O2-  O547  1  0.31718661  0.64056372  0.34989062  1
  O2-  O548  1  0.33440812  0.66990252  0.68934190  1
  O2-  O549  1  0.33733983  0.91608907  0.02091662  1
  O2-  O550  1  0.33289829  0.93344965  0.35133101  1
  O2-  O551  1  0.36812343  0.92867993  0.69495654  1
  O2-  O552  1  0.58576164  0.17774711  0.02260460  1
  O2-  O553  1  0.56288070  0.16137073  0.35385511  1
  O2-  O554  1  0.58190837  0.17876875  0.68784684  1
  O2-  O555  1  0.59872593  0.42999579  0.03007494  1
  O2-  O556  1  0.60849175  0.43798268  0.35074758  1
  O2-  O557  1  0.59501570  0.40916900  0.65552975  1
  O2-  O558  1  0.58588552  0.66740723  0.02432679  1
  O2-  O559  1  0.58253685  0.67459809  0.35519198  1
  O2-  O560  1  0.57562206  0.67036830  0.69461671  1
  O2-  O561  1  0.58600938  0.89973258  0.00472906  1
  O2-  O562  1  0.59177681  0.91704818  0.34525141  1
  O2-  O563  1  0.57685688  0.91765792  0.69129849  1
  O2-  O564  1  0.84063816  0.17041173  0.02664684  1
  O2-  O565  1  0.84383039  0.16212717  0.35734484  1
  O2-  O566  1  0.84192684  0.16644779  0.69892462  1
  O2-  O567  1  0.83178511  0.41544040  -0.05570467  1
  O2-  O568  1  0.88253917  0.42955302  0.36611724  1
  O2-  O569  1  0.85091611  0.42455741  0.70021121  1
  O2-  O570  1  0.84435729  0.67546546  0.02582460  1
  O2-  O571  1  0.81479891  0.67421253  0.33961812  1
  O2-  O572  1  0.84903754  0.65486271  0.68528483  1
  O2-  O573  1  0.81236666  0.88367517  0.03247690  1
  O2-  O574  1  0.83656384  0.92053968  0.36184945  1
  O2-  O575  1  0.82623163  0.91209489  0.69198856  1
