# generated using pymatgen
data_H2O
_symmetry_space_group_name_H-M   'P 1'
_cell_length_a   17.98686240
_cell_length_b   17.98469439
_cell_length_c   21.99982909
_cell_angle_alpha   90.00303765
_cell_angle_beta   90.00720447
_cell_angle_gamma   119.98696787
_symmetry_Int_Tables_number   1
_chemical_formula_structural   H2O
_chemical_formula_sum   'H384 O192'
_cell_volume   6164.03963473
_cell_formula_units_Z   192
loop_
 _symmetry_equiv_pos_site_id
 _symmetry_equiv_pos_as_xyz
  1  'x, y, z'
loop_
 _atom_type_symbol
 _atom_type_oxidation_number
  H+  1.0
  O2-  -2.0
loop_
 _atom_site_type_symbol
 _atom_site_label
 _atom_site_symmetry_multiplicity
 _atom_site_fract_x
 _atom_site_fract_y
 _atom_site_fract_z
 _atom_site_occupancy
  H+  H0  1  0.12454520  0.89771003  0.33212896  1
  H+  H1  1  0.88845277  0.42195921  0.50228284  1
  H+  H2  1  0.51901990  0.38370894  0.48249998  1
  H+  H3  1  0.47781452  0.36638973  0.32913361  1
  H+  H4  1  0.34481807  0.21775806  0.67931339  1
  H+  H5  1  0.89322863  0.35256480  0.67048969  1
  H+  H6  1  0.15400055  0.79597744  0.31908318  1
  H+  H7  1  0.46840238  0.85414786  0.15971340  1
  H+  H8  1  0.37992913  0.61824187  0.86517927  1
  H+  H9  1  0.58775176  1.00655123  0.47759423  1
  H+  H10  1  0.40204788  0.28641214  0.16856009  1
  H+  H11  1  0.84274738  0.94350604  0.81982613  1
  H+  H12  1  0.39645818  0.05118619  0.82784173  1
  H+  H13  1  -0.00899444  0.39032653  0.35363107  1
  H+  H14  1  0.83361978  0.16887729  0.43789433  1
  H+  H15  1  0.58909357  0.66649246  0.06872467  1
  H+  H16  1  0.36683736  0.10544974  0.68376516  1
  H+  H17  1  0.39386499  0.94564837  0.29093832  1
  H+  H18  1  0.30745907  0.65497188  0.39082162  1
  H+  H19  1  0.55229864  0.78723282  0.28905975  1
  H+  H20  1  0.38055493  1.02363325  0.17159084  1
  H+  H21  1  0.25699391  0.35995533  0.00952115  1
  H+  H22  1  0.38490782  0.76634936  0.99268720  1
  H+  H23  1  0.11745617  0.52804128  0.84921501  1
  H+  H24  1  0.22423816  0.36385612  0.33944265  1
  H+  H25  1  0.53224062  0.39230632  0.15891623  1
  H+  H26  1  0.60714296  0.47540088  0.48320328  1
  H+  H27  1  0.10688253  -0.02100173  0.15121852  1
  H+  H28  1  0.13291196  0.87726230  0.16336452  1
  H+  H29  1  0.73386964  0.37679577  0.84121683  1
  H+  H30  1  0.63902046  0.89167324  0.50359545  1
  H+  H31  1  0.60644963  0.38458963  0.33303894  1
  H+  H32  1  0.86912110  0.97805714  0.66833817  1
  H+  H33  1  0.81356932  0.63658025  0.33146513  1
  H+  H34  1  0.52363284  0.63356105  0.15839748  1
  H+  H35  1  0.36460949  0.39057579  0.16468821  1
  H+  H36  1  0.82261349  0.92217449  0.06156334  1
  H+  H37  1  0.72800897  0.11580776  0.49966128  1
  H+  H38  1  0.46204698  0.61122520  0.63682728  1
  H+  H39  1  0.51381083  0.91133205  0.48751420  1
  H+  H40  1  0.61636938  0.14624582  0.48908511  1
  H+  H41  1  0.12943305  0.35291733  0.51627203  1
  H+  H42  1  0.62487239  0.60499281  0.49682074  1
  H+  H43  1  0.43125985  0.60515954  0.40383084  1
  H+  H44  1  0.57585466  0.34544878  0.65506832  1
  H+  H45  1  0.10531443  0.22902880  0.34557747  1
  H+  H46  1  0.27049151  0.89252989  0.15992206  1
  H+  H47  1  0.48240915  0.37281242  0.83657738  1
  H+  H48  1  0.36526777  0.62506952  0.64391637  1
  H+  H49  1  0.61212633  -0.02619552  1.00247429  1
  H+  H50  1  0.10206912  0.63710732  0.81471004  1
  H+  H51  1  0.77992913  0.88604869  0.35325728  1
  H+  H52  1  0.60468353  0.88013189  0.15329489  1
  H+  H53  1  0.51937840  0.14342913  0.16159141  1
  H+  H54  1  0.66737418  0.63439680  0.83954235  1
  H+  H55  1  0.85173755  0.38778173  0.36381570  1
  H+  H56  1  0.78916447  0.08264030  0.20357768  1
  H+  H57  1  0.38432272  0.11442633  0.16530164  1
  H+  H58  1  -0.03077705  0.59716645  0.63765878  1
  H+  H59  1  0.37138642  0.02805884  0.51292242  1
  H+  H60  1  0.09210301  0.61656337  0.49301920  1
  H+  H61  1  0.56901654  0.15962356  0.39908113  1
  H+  H62  1  0.34204582  0.62140125  0.48710883  1
  H+  H63  1  0.29668680  0.87918157  0.29453337  1
  H+  H64  1  0.21792179  0.85502730  0.66650128  1
  H+  H65  1  0.78399241  0.63911306  0.83419382  1
  H+  H66  1  0.84630178  0.37390334  0.98181920  1
  H+  H67  1  0.40401959  0.07493441  0.94300278  1
  H+  H68  1  0.77494500  0.63515899  0.16137823  1
  H+  H69  1  0.22575446  0.36555781  0.18045936  1
  H+  H70  1  0.62825353  0.86671017  0.47437484  1
  H+  H71  1  0.13793691  0.02083760  0.50635531  1
  H+  H72  1  0.35107030  0.87529320  0.84071880  1
  H+  H73  1  0.22646021  0.11958568  0.88340379  1
  H+  H74  1  0.10828219  0.87227677  0.82318118  1
  H+  H75  1  0.13205794  0.10935597  0.66173537  1
  H+  H76  1  0.12011852  0.22535005  0.68464793  1
  H+  H77  1  0.58450947  0.87161101  0.83219247  1
  H+  H78  1  0.88935084  0.11136173  0.97829340  1
  H+  H79  1  0.38912217  0.77334176  0.66494147  1
  H+  H80  1  0.62907081  0.11320097  0.84799218  1
  H+  H81  1  0.12644426  0.81174082  1.01061205  1
  H+  H82  1  0.26625374  0.13598614  0.48761414  1
  H+  H83  1  0.68147925  0.83099568  0.60005899  1
  H+  H84  1  0.56282442  0.09924483  0.71518145  1
  H+  H85  1  0.86433637  0.49335804  0.51538125  1
  H+  H86  1  0.42197183  0.17870146  0.52619455  1
  H+  H87  1  0.37839033  0.52039990  0.16476150  1
  H+  H88  1  0.66890743  0.54443024  0.64461160  1
  H+  H89  1  0.89617006  0.72665410  0.32461043  1
  H+  H90  1  0.61503369  0.98552282  0.33569629  1
  H+  H91  1  0.46368268  0.85734711  0.83570382  1
  H+  H92  1  0.63498358  0.74049933  0.82310936  1
  H+  H93  1  0.66205217  0.61975521  0.32612730  1
  H+  H94  1  0.02459467  0.88863830  0.67487993  1
  H+  H95  1  0.35617387  0.87930188  0.68605211  1
  H+  H96  1  0.53014820  0.89520229  0.67678598  1
  H+  H97  1  0.21818133  0.35668879  0.50526483  1
  H+  H98  1  0.54687325  0.39216568  0.00130265  1
  H+  H99  1  0.62303119  0.72376921  0.49667509  1
  H+  H100  1  0.20533115  0.84868258  0.83634334  1
  H+  H101  1  0.98063069  0.36687934  0.16573756  1
  H+  H102  1  0.88490852  0.10652019  0.50980881  1
  H+  H103  1  0.52136939  0.88393718  0.00171313  1
  H+  H104  1  0.60067226  0.00569316  0.17776549  1
  H+  H105  1  0.89918436  0.62203203  0.56924878  1
  H+  H106  1  0.46753712  1.11393161  0.32496949  1
  H+  H107  1  0.71505248  0.10858175  0.84033028  1
  H+  H108  1  1.02024478  0.88715835  0.15008536  1
  H+  H109  1  0.34793164  0.63520928  0.15711904  1
  H+  H110  1  0.13655108  0.64413926  0.15354627  1
  H+  H111  1  0.01576746  0.12792922  0.49761943  1
  H+  H112  1  0.57960661  0.41843296  0.39228993  1
  H+  H113  1  0.89947899  0.77230935  0.84254332  1
  H+  H114  1  0.25736318  0.12996069  0.68141870  1
  H+  H115  1  0.36787931  0.01600886  0.68178455  1
  H+  H116  1  0.02907636  0.67912644  0.34517167  1
  H+  H117  1  0.10376016  0.21678919  -0.00455722  1
  H+  H118  1  0.10670666  0.38212837  0.16876976  1
  H+  H119  1  0.51119095  0.12108766  1.01370840  1
  H+  H120  1  0.28862502  0.40246273  0.83221151  1
  H+  H121  1  0.25082147  0.16153336  -0.00281888  1
  H+  H122  1  0.35129864  0.22927888  0.48221665  1
  H+  H123  1  0.72556829  0.11046356  -0.00856435  1
  H+  H124  1  0.72721415  0.77288127  0.79792262  1
  H+  H125  1  0.12078218  0.54062670  0.30896131  1
  H+  H126  1  0.71622374  0.36469150  0.43685308  1
  H+  H127  1  0.63512713  0.77148599  0.99718069  1
  H+  H128  1  0.91119625  0.07668733  0.77197396  1
  H+  H129  1  0.35530202  0.87139320  1.00965547  1
  H+  H130  1  0.12481614  0.39131398  0.68378201  1
  H+  H131  1  0.86027795  0.47963858  0.15062908  1
  H+  H132  1  0.76305106  0.37953535  0.15896095  1
  H+  H133  1  0.09967163  0.91590166  0.04872866  1
  H+  H134  1  0.64379491  0.28773443  0.85268293  1
  H+  H135  1  0.62061051  0.68083077  0.72669820  1
  H+  H136  1  0.40573160  0.54775654  0.85307385  1
  H+  H137  1  0.76053815  0.89306513  0.99870433  1
  H+  H138  1  0.67185014  0.08672130  0.55924577  1
  H+  H139  1  0.37976517  0.12672643  0.84629728  1
  H+  H140  1  0.03808319  0.87723079  0.49275858  1
  H+  H141  1  0.21136797  0.81285742  0.02315040  1
  H+  H142  1  0.85699603  0.22069324  0.50070460  1
  H+  H143  1  0.40859048  0.75445757  0.31228878  1
  H+  H144  1  0.37246676  0.13387444  0.33458009  1
  H+  H145  1  0.52766137  0.15659174  0.85255580  1
  H+  H146  1  0.12883005  0.88678860  0.49214226  1
  H+  H147  1  0.90579967  0.24467701  0.12902791  1
  H+  H148  1  0.53931407  0.43983934  0.74331245  1
  H+  H149  1  0.96253959  0.35125669  0.51490897  1
  H+  H150  1  0.25051354  0.62910804  0.84939951  1
  H+  H151  1  0.11461858  0.76306949  0.82521437  1
  H+  H152  1  0.79438173  0.64907237  0.67796338  1
  H+  H153  1  0.51252471  0.19013267  0.52489758  1
  H+  H154  1  0.65248707  0.03898408  0.65837375  1
  H+  H155  1  0.44469505  0.35875380  0.65235884  1
  H+  H156  1  0.59765514  0.21805159  0.33895961  1
  H+  H157  1  0.87799900  0.85257939  0.16618573  1
  H+  H158  1  0.78975251  0.13297281  0.67276811  1
  H+  H159  1  0.46725313  0.61379153  0.49880663  1
  H+  H160  1  0.86849601  0.96376317  0.15539222  1
  H+  H161  1  0.61103601  0.79383502  0.90660870  1
  H+  H162  1  0.52705401  0.72158314  0.87232158  1
  H+  H163  1  0.09476177  0.39530979  0.85144975  1
  H+  H164  1  0.44793877  0.77545409  0.53497261  1
  H+  H165  1  0.89211617  0.01304543  0.32530483  1
  H+  H166  1  0.34806177  0.88852553  0.47575634  1
  H+  H167  1  0.11252106  0.13166021  0.85190391  1
  H+  H168  1  0.35012795  0.23951589  -0.00309546  1
  H+  H169  1  0.88381465  -0.09412224  0.49086628  1
  H+  H170  1  0.63830868  0.27175978  0.16866221  1
  H+  H171  1  0.41242603  0.82723424  0.93399462  1
  H+  H172  1  0.89080507  0.86704975  0.65822338  1
  H+  H173  1  0.10890797  0.12970697  -0.00843713  1
  H+  H174  1  0.61323250  0.72556237  0.33506054  1
  H+  H175  1  0.89438973  0.85778347  0.83528941  1
  H+  H176  1  0.35844111  0.23470786  0.83577551  1
  H+  H177  1  0.35437345  0.34582642  0.64289059  1
  H+  H178  1  0.88364440  0.01543290  0.50856765  1
  H+  H179  1  0.00165619  0.60625051  0.48293615  1
  H+  H180  1  0.57662973  0.16548360  0.10042913  1
  H+  H181  1  0.86530781  0.72279506  0.16087683  1
  H+  H182  1  0.40142092  0.57523796  0.55518495  1
  H+  H183  1  0.60096307  0.96908446  0.83116638  1
  H+  H184  1  0.02378518  0.64674191  0.13357391  1
  H+  H185  1  0.77119457  0.15080707  0.34521124  1
  H+  H186  1  0.12050229  0.62919119  0.31612801  1
  H+  H187  1  0.41164964  0.37359403  0.98967897  1
  H+  H188  1  0.84434870  0.50661696  0.98535020  1
  H+  H189  1  0.64252313  0.86714339  0.65321441  1
  H+  H190  1  0.63185986  0.48410141  0.00534648  1
  H+  H191  1  0.86107142  0.45092388  0.66408573  1
  H+  H192  1  -0.09844518  0.59975789  0.30307597  1
  H+  H193  1  0.54673024  0.51099838  0.69757078  1
  H+  H194  1  0.10429022  0.63452252  0.66340888  1
  H+  H195  1  0.40409587  1.03642182  0.48854738  1
  H+  H196  1  0.99657351  0.02452470  0.19602992  1
  H+  H197  1  0.74077941  0.29261391  0.66230469  1
  H+  H198  1  0.11419968  -0.02226968  0.67435497  1
  H+  H199  1  0.64975850  0.52644416  0.32372813  1
  H+  H200  1  0.43632723  0.21639767  0.09847174  1
  H+  H201  1  0.85290125  0.13422466  0.82655274  1
  H+  H202  1  0.26223385  0.63996124  0.32600081  1
  H+  H203  1  0.01473309  0.87826889  0.82624992  1
  H+  H204  1  0.37203300  0.00751360  0.99689255  1
  H+  H205  1  0.09447345  0.45776664  0.50200174  1
  H+  H206  1  0.48993071  0.12211649  0.70129585  1
  H+  H207  1  0.23035254  0.63672511  0.16253727  1
  H+  H208  1  0.89783040  0.11403057  0.66265201  1
  H+  H209  1  0.87384756  0.26973245  0.83917469  1
  H+  H210  1  0.31950137  0.90346009  0.74441351  1
  H+  H211  1  0.37458177  0.76561735  0.84251767  1
  H+  H212  1  0.39132676  0.82262041  0.52473312  1
  H+  H213  1  0.77700082  0.88942971  0.66768472  1
  H+  H214  1  0.62864678  0.85817533  -0.00745593  1
  H+  H215  1  0.32588208  0.94119748  0.86752446  1
  H+  H216  1  0.15321666  0.34573757  0.80894812  1
  H+  H217  1  0.83904760  0.91771274  0.41403948  1
  H+  H218  1  0.14202088  0.11896826  0.16299271  1
  H+  H219  1  0.85818914  0.24033408  0.35094355  1
  H+  H220  1  0.14610324  0.56713143  0.56647817  1
  H+  H221  1  0.68792948  0.14308838  0.64583846  1
  H+  H222  1  0.10239366  0.47883672  0.01776981  1
  H+  H223  1  0.62992507  0.11380959  0.33120172  1
  H+  H224  1  0.73233821  0.61593561  0.99575892  1
  H+  H225  1  0.92355445  0.82485134  0.60708983  1
  H+  H226  1  0.77690385  0.11540210  0.19431541  1
  H+  H227  1  0.52546852  0.63406874  0.01250200  1
  H+  H228  1  0.13032157  0.36469152  0.99148187  1
  H+  H229  1  0.12244296  0.75760465  0.51287776  1
  H+  H230  1  0.37088487  0.23120829  0.34097400  1
  H+  H231  1  0.76630213  0.85513514  0.51009238  1
  H+  H232  1  0.86131261  0.48100060  0.82434811  1
  H+  H233  1  0.64141914  0.36789697  0.47209594  1
  H+  H234  1  0.65826069  0.62758280  0.65111484  1
  H+  H235  1  0.91853645  0.56810104  0.21228136  1
  H+  H236  1  0.38643630  0.35940110  0.33946328  1
  H+  H237  1  0.23825895  0.37060497  0.66844676  1
  H+  H238  1  0.87723547  0.22302256  0.67945679  1
  H+  H239  1  0.26159566  0.82587564  0.50926880  1
  H+  H240  1  0.43006857  0.84393791  0.61613511  1
  H+  H241  1  0.60546368  0.34414225  0.67871156  1
  H+  H242  1  0.71596731  0.35822512  0.33073471  1
  H+  H243  1  0.66266901  0.38424516  -0.00531010  1
  H+  H244  1  0.88210753  0.60434097  0.15962496  1
  H+  H245  1  1.03034095  0.13781861  0.67981245  1
  H+  H246  1  0.61598637  0.39970315  0.82331112  1
  H+  H247  1  0.97105235  0.60741111  0.83487877  1
  H+  H248  1  0.35254114  0.62773417  0.01003675  1
  H+  H249  1  0.86262965  0.22886704  -0.01910023  1
  H+  H250  1  0.89182186  0.86302888  0.32956891  1
  H+  H251  1  0.62558870  0.23824045  0.47357180  1
  H+  H252  1  0.63613781  0.77204571  0.16827251  1
  H+  H253  1  -0.02426381  0.10523660  0.32307122  1
  H+  H254  1  0.13118579  0.40436776  0.34316183  1
  H+  H255  1  0.37893376  0.36481648  0.49131618  1
  H+  H256  1  0.12369499  0.11210143  0.32091819  1
  H+  H257  1  0.62146319  0.72496032  0.66595654  1
  H+  H258  1  0.17609198  0.33571987  0.61075830  1
  H+  H259  1  0.89475687  0.78052918  0.99943933  1
  H+  H260  1  0.40598229  0.44346109  0.69919863  1
  H+  H261  1  0.35425734  0.47699124  0.47155744  1
  H+  H262  1  0.86033071  0.38402650  0.15229824  1
  H+  H263  1  0.22523338  0.61219256  0.64934509  1
  H+  H264  1  0.13232429  0.78789040  0.16497348  1
  H+  H265  1  0.85569275  0.38829436  0.82328053  1
  H+  H266  1  0.88353297  0.50545589  0.31022820  1
  H+  H267  1  0.64037416  0.61203910  0.99581348  1
  H+  H268  1  0.61337368  0.63330714  0.16306306  1
  H+  H269  1  0.36978535  0.49834573  0.66556926  1
  H+  H270  1  0.13496024  -0.03423772  0.98778625  1
  H+  H271  1  0.01607432  0.38925974  0.01269068  1
  H+  H272  1  0.97373996  0.10215121  0.98781124  1
  H+  H273  1  1.00531634  0.38619804  0.83393984  1
  H+  H274  1  0.53820602  0.63128096  0.34492216  1
  H+  H275  1  0.12997812  0.10617036  0.50620554  1
  H+  H276  1  0.19865028  0.58781905  0.50397098  1
  H+  H277  1  0.60582066  0.09791529  0.17849340  1
  H+  H278  1  0.98523969  0.35869295  0.66711753  1
  H+  H279  1  0.76905266  0.88584689  0.15394737  1
  H+  H280  1  0.64289885  0.22227294  0.67326368  1
  H+  H281  1  0.35753771  0.47553447  0.37875195  1
  H+  H282  1  0.38501431  0.51622647  0.00545105  1
  H+  H283  1  0.85505945  0.62970167  0.00437423  1
  H+  H284  1  0.93732281  0.84501621  0.94689825  1
  H+  H285  1  0.33399098  0.16523670  0.40158583  1
  H+  H286  1  0.32114638  0.69891029  0.48471326  1
  H+  H287  1  0.64161938  0.52512480  0.17269990  1
  H+  H288  1  0.59259695  0.92395053  0.73203968  1
  H+  H289  1  0.35696969  0.88723308  0.16434123  1
  H+  H290  1  0.82659071  0.16623065  0.76946404  1
  H+  H291  1  0.56561818  0.93178822  0.39375278  1
  H+  H292  1  0.88495204  0.14878572  0.13373608  1
  H+  H293  1  0.90721642  0.32693689  0.57445638  1
  H+  H294  1  0.37818671  0.60586843  0.34860065  1
  H+  H295  1  0.32792942  0.90519723  0.06866304  1
  H+  H296  1  0.84119198  0.44384042  0.41331547  1
  H+  H297  1  0.92511753  0.08288715  0.60193152  1
  H+  H298  1  0.27664986  0.94073345  0.41301394  1
  H+  H299  1  0.03555830  0.13904389  0.15433031  1
  H+  H300  1  0.43745477  0.34787590  0.92751055  1
  H+  H301  1  0.94221162  0.38576173  0.29461864  1
  H+  H302  1  0.08911578  0.42146805  0.74050680  1
  H+  H303  1  0.32621432  0.66654233  0.06529893  1
  H+  H304  1  0.71573050  0.38749537  0.59232548  1
  H+  H305  1  0.40720251  0.09045086  0.26421496  1
  H+  H306  1  0.83081129  0.66287882  0.06513420  1
  H+  H307  1  0.57551668  0.17526733  0.79055977  1
  H+  H308  1  0.06868506  0.39556488  0.44480728  1
  H+  H309  1  0.08080323  0.41186537  0.10779291  1
  H+  H310  1  0.09216041  0.91862953  0.39409026  1
  H+  H311  1  0.13736114  0.60048637  0.90077317  1
  H+  H312  1  0.83484659  0.89895478  0.75732083  1
  H+  H313  1  0.29635007  0.30425475  0.03242824  1
  H+  H314  1  0.12899175  0.67928139  -0.01411189  1
  H+  H315  1  0.60277964  0.12730394  1.01328614  1
  H+  H316  1  0.65365514  0.08138423  0.27153182  1
  H+  H317  1  0.84253430  0.67092318  0.77319500  1
  H+  H318  1  0.17065017  0.84785724  0.25628536  1
  H+  H319  1  0.12831204  0.02627396  0.31954018  1
  H+  H320  1  0.16104750  0.82061717  0.57033610  1
  H+  H321  1  0.15753742  0.61036498  0.22085160  1
  H+  H322  1  0.35853791  0.73148066  0.15606304  1
  H+  H323  1  0.33890809  0.65551044  0.70588591  1
  H+  H324  1  0.31484465  0.16735413  0.78211213  1
  H+  H325  1  0.15362836  0.08050718  0.22593402  1
  H+  H326  1  0.06689960  0.65909619  0.75326386  1
  H+  H327  1  0.59380333  0.41932100  0.09967949  1
  H+  H328  1  0.67396751  0.59002199  0.90236960  1
  H+  H329  1  0.91431273  0.83483146  0.22833691  1
  H+  H330  1  0.39635707  0.37849364  0.83932591  1
  H+  H331  1  0.07607145  0.16551207  0.40267581  1
  H+  H332  1  0.64313178  0.36411666  0.17001583  1
  H+  H333  1  0.08029889  0.91367311  0.76293081  1
  H+  H334  1  0.71679290  0.42821245  0.58315272  1
  H+  H335  1  0.59018669  0.67503086  0.43278636  1
  H+  H336  1  0.15849695  0.48706244  0.38382667  1
  H+  H337  1  0.10032875  0.72158350  0.66451421  1
  H+  H338  1  0.88463093  0.61008670  0.83994194  1
  H+  H339  1  0.98343714  0.87047893  0.32215901  1
  H+  H340  1  0.30690004  0.63171595  0.79496535  1
  H+  H341  1  0.73583132  0.76715392  0.54880620  1
  H+  H342  1  0.13747769  0.27769809  0.17730552  1
  H+  H343  1  0.10566528  0.21649911  0.50021345  1
  H+  H344  1  0.83276459  0.41100254  0.73138393  1
  H+  H345  1  0.89765966  0.33728308  0.89552144  1
  H+  H346  1  0.13240258  0.86144218  0.66247269  1
  H+  H347  1  0.94171679  0.43264109  0.96206486  1
  H+  H348  1  0.40389589  0.32997590  0.55057443  1
  H+  H349  1  0.41517735  0.57999481  0.94839026  1
  H+  H350  1  0.86210298  -0.00453725  0.99698050  1
  H+  H351  1  0.17191087  0.33991406  0.27528728  1
  H+  H352  1  0.08672427  0.17502201  0.09212671  1
  H+  H353  1  0.08232472  0.67880035  0.40144804  1
  H+  H354  1  0.57691754  0.91151936  0.09368969  1
  H+  H355  1  0.67420264  0.58617166  0.54848081  1
  H+  H356  1  0.34522969  0.44428635  0.77318711  1
  H+  H357  1  0.16281075  0.33963035  0.93114100  1
  H+  H358  1  0.49289521  0.84760631  0.31236510  1
  H+  H359  1  0.31718141  0.94396698  0.40079582  1
  H+  H360  1  0.67407976  0.58447225  0.23278226  1
  H+  H361  1  0.89675881  0.30647699  0.20875294  1
  H+  H362  1  0.94139980  0.05378517  0.23658534  1
  H+  H363  1  0.96932257  0.10205008  0.82890139  1
  H+  H364  1  0.66724651  0.33004727  0.26668137  1
  H+  H365  1  0.66126647  0.07862310  0.93566886  1
  H+  H366  1  0.14192295  0.26359407  0.84144695  1
  H+  H367  1  0.10072181  0.70990055  0.08626922  1
  H+  H368  1  0.90215040  0.57440799  0.93473220  1
  H+  H369  1  0.16193222  0.08058941  0.60055635  1
  H+  H370  1  0.40707667  0.58136353  0.22199336  1
  H+  H371  1  0.65576991  0.83191132  0.22590049  1
  H+  H372  1  0.34175225  0.19267314  0.08682441  1
  H+  H373  1  0.61842038  0.48905497  0.82962805  1
  H+  H374  1  0.09396574  0.15471781  0.78358802  1
  H+  H375  1  0.69430126  0.35808576  0.92805480  1
  H+  H376  1  0.32266062  0.40156280  0.10421802  1
  H+  H377  1  0.13717691  0.52478391  0.66210217  1
  H+  H378  1  0.87899546  0.73709082  0.68584435  1
  H+  H379  1  0.62162374  0.86054395  0.32481637  1
  H+  H380  1  0.41871975  0.81941123  0.22139535  1
  H+  H381  1  0.86271241  0.18188490  0.04144721  1
  H+  H382  1  0.21549800  0.61850918  1.01003795  1
  H+  H383  1  0.41916257  0.33604842  0.23276305  1
  O2-  O384  1  0.09154221  0.18339343  0.13703035  1
  O2-  O385  1  0.07686234  0.15825439  0.48198806  1
  O2-  O386  1  0.08633948  0.16042392  0.82778156  1
  O2-  O387  1  0.07409267  0.40936264  0.15261522  1
  O2-  O388  1  0.06872308  0.39552211  0.48948102  1
  O2-  O389  1  0.06955097  0.42099132  0.82547909  1
  O2-  O390  1  0.08669533  0.68424995  0.12827052  1
  O2-  O391  1  0.06302407  0.64806135  0.47787192  1
  O2-  O392  1  0.06868336  0.66336235  0.79883296  1
  O2-  O393  1  0.08036407  0.91819485  0.13535627  1
  O2-  O394  1  0.09703639  0.91559712  0.47773591  1
  O2-  O395  1  0.07883229  0.90884854  0.80919951  1
  O2-  O396  1  0.38307366  0.19990957  0.12032407  1
  O2-  O397  1  0.32498270  0.16786478  0.46934627  1
  O2-  O398  1  0.32327165  0.17198073  0.82715106  1
  O2-  O399  1  0.33080070  0.41677101  0.14850461  1
  O2-  O400  1  0.32079048  0.41454594  0.45829501  1
  O2-  O401  1  0.34847989  0.43997122  0.81833640  1
  O2-  O402  1  0.32017905  0.66785494  0.14233073  1
  O2-  O403  1  0.30159167  0.64049321  0.47054405  1
  O2-  O404  1  0.31288993  0.65286610  0.83640463  1
  O2-  O405  1  0.33182321  0.92048399  0.14624943  1
  O2-  O406  1  0.31683526  0.83125455  0.49372520  1
  O2-  O407  1  0.31961098  0.90753959  0.83107331  1
  O2-  O408  1  0.57979629  0.17347088  0.14681087  1
  O2-  O409  1  0.58560861  0.17415398  0.47094749  1
  O2-  O410  1  0.58687941  0.18276730  0.83576290  1
  O2-  O411  1  0.59310704  0.41912150  0.14514401  1
  O2-  O412  1  0.57791799  0.41537931  0.46537171  1
  O2-  O413  1  0.58447725  0.42963261  0.81168165  1
  O2-  O414  1  0.58477541  0.66472272  0.14600994  1
  O2-  O415  1  0.57644052  0.67011871  0.47702549  1
  O2-  O416  1  0.66989886  0.72083226  0.79968724  1
  O2-  O417  1  0.57034061  0.90630074  0.13893062  1
  O2-  O418  1  0.53786218  0.95734598  0.45704074  1
  O2-  O419  1  0.56779489  0.91069137  0.81239380  1
  O2-  O420  1  0.90963191  0.19859354  0.10692240  1
  O2-  O421  1  0.83293058  0.16186296  0.48362114  1
  O2-  O422  1  0.82252137  0.16568327  0.81521292  1
  O2-  O423  1  0.82595569  0.41284160  0.14148938  1
  O2-  O424  1  0.88826490  0.47231943  0.48374641  1
  O2-  O425  1  0.82650612  0.41958965  0.80843959  1
  O2-  O426  1  0.83515714  0.66183446  0.14596522  1
  O2-  O427  1  0.91183152  0.71117983  0.51797766  1
  O2-  O428  1  0.84459136  0.67024399  0.81952393  1
  O2-  O429  1  0.82657221  0.90929515  0.13415170  1
  O2-  O430  1  0.84006589  0.92105455  0.48141379  1
  O2-  O431  1  0.82706701  0.88716292  0.80218324  1
  O2-  O432  1  0.15284752  0.07477057  0.18030584  1
  O2-  O433  1  0.16478719  0.08083597  0.52212842  1
  O2-  O434  1  0.16562034  0.09463679  0.89570012  1
  O2-  O435  1  0.16636371  0.33559749  0.19743719  1
  O2-  O436  1  0.16526642  0.32768996  0.52986808  1
  O2-  O437  1  0.17144597  0.32873138  0.84566181  1
  O2-  O438  1  0.16616126  0.61403181  0.17502776  1
  O2-  O439  1  0.13948976  0.56002701  0.52084905  1
  O2-  O440  1  0.15033584  0.59086570  0.85791150  1
  O2-  O441  1  0.16423502  0.84741648  0.18045106  1
  O2-  O442  1  0.16565972  0.81685215  0.52506884  1
  O2-  O443  1  0.14291669  0.82217183  0.84349352  1
  O2-  O444  1  0.40976888  0.08446397  0.18716013  1
  O2-  O445  1  0.47679231  0.20783895  0.54781166  1
  O2-  O446  1  0.41287342  0.09671222  0.85787227  1
  O2-  O447  1  0.42457829  0.34396739  0.18799029  1
  O2-  O448  1  0.40801991  0.33369916  0.50551191  1
  O2-  O449  1  0.42213618  0.34338083  0.85276494  1
  O2-  O450  1  0.40752091  0.58289640  0.17770292  1
  O2-  O451  1  0.40425465  0.57905671  0.50747299  1
  O2-  O452  1  0.42389288  0.60210759  0.87571309  1
  O2-  O453  1  0.40842136  0.82330281  0.17713164  1
  O2-  O454  1  0.44601450  0.82791341  0.54225680  1
  O2-  O455  1  0.40489183  0.82710124  0.85472174  1
  O2-  O456  1  0.61556712  0.05708395  0.20261371  1
  O2-  O457  1  0.66739196  0.09172379  0.51459752  1
  O2-  O458  1  0.65518769  0.07655302  0.85656840  1
  O2-  O459  1  0.67405398  0.33364858  0.18394755  1
  O2-  O460  1  0.67972849  0.34266167  0.47261674  1
  O2-  O461  1  0.67666102  0.35075065  0.86356992  1
  O2-  O462  1  0.66913237  0.58575544  0.18718737  1
  O2-  O463  1  0.65708608  0.57479443  0.50539614  1
  O2-  O464  1  0.67710246  0.58866145  0.85676770  1
  O2-  O465  1  0.66441642  0.83363074  0.18097318  1
  O2-  O466  1  0.71218639  0.80228779  0.53426429  1
  O2-  O467  1  0.58128016  0.77587490  0.86603999  1
  O2-  O468  1  0.95576264  0.04516656  0.19169812  1
  O2-  O469  1  0.91592782  0.07725032  0.52544788  1
  O2-  O470  1  0.90793085  0.07328154  0.81626312  1
  O2-  O471  1  0.91309644  0.33426469  0.16913740  1
  O2-  O472  1  0.90290904  0.32985536  0.52937801  1
  O2-  O473  1  0.90415383  0.33217702  0.85070137  1
  O2-  O474  1  0.91340695  0.57118875  0.16657334  1
  O2-  O475  1  0.86629060  0.56138322  0.58295993  1
  O2-  O476  1  0.91221053  0.57546277  0.85271293  1
  O2-  O477  1  0.91241778  0.82809821  0.18303925  1
  O2-  O478  1  0.93961901  0.79052869  0.53161527  1
  O2-  O479  1  0.93088424  0.83542378  0.85255305  1
  O2-  O480  1  0.15155951  0.08351481  0.30037631  1
  O2-  O481  1  0.16095742  0.07794135  0.64618821  1
  O2-  O482  1  0.16510451  0.08828520  0.96289240  1
  O2-  O483  1  0.16713733  0.34255559  0.32078950  1
  O2-  O484  1  0.17720404  0.33699270  0.65623164  1
  O2-  O485  1  0.15982839  0.33420869  0.97571277  1
  O2-  O486  1  0.14910546  0.60056585  0.29476187  1
  O2-  O487  1  0.16177543  0.58154012  0.64132796  1
  O2-  O488  1  0.15157681  0.58944365  1.01732836  1
  O2-  O489  1  0.18258786  0.85409473  0.30122386  1
  O2-  O490  1  0.15963851  0.82797455  0.64763217  1
  O2-  O491  1  0.14770059  0.77171578  1.02136988  1
  O2-  O492  1  0.40660043  0.08992737  0.30983923  1
  O2-  O493  1  0.40206373  0.07850789  0.67417452  1
  O2-  O494  1  0.40648507  0.06952480  0.98734344  1
  O2-  O495  1  0.41444839  0.33239369  0.31757441  1
  O2-  O496  1  0.38938390  0.31975548  0.63248252  1
  O2-  O497  1  0.44420430  0.34759422  0.97294294  1
  O2-  O498  1  0.41485436  0.58177137  0.36273145  1
  O2-  O499  1  0.40151739  0.57785828  0.62508568  1
  O2-  O500  1  0.41280321  0.57692930  0.99439552  1
  O2-  O501  1  0.45855570  0.79420581  0.28752690  1
  O2-  O502  1  0.41892418  0.83740289  0.66081914  1
  O2-  O503  1  0.41622477  0.82760542  0.97920225  1
  O2-  O504  1  0.66662284  0.09053448  0.31639165  1
  O2-  O505  1  0.69599610  0.09214445  0.63790455  1
  O2-  O506  1  0.66353833  0.07738765  0.98100832  1
  O2-  O507  1  0.65852595  0.32833488  0.31143354  1
  O2-  O508  1  0.69340451  0.23731599  0.64751699  1
  O2-  O509  1  0.69474011  0.35478979  0.97685943  1
  O2-  O510  1  0.68761654  0.58649100  0.30915838  1
  O2-  O511  1  0.69416403  0.60437432  0.63265608  1
  O2-  O512  1  0.67058344  0.58259465  0.97944865  1
  O2-  O513  1  0.61410207  0.81006454  0.30005202  1
  O2-  O514  1  0.67281811  0.83468120  0.64486040  1
  O2-  O515  1  0.65968393  0.82852267  0.97620917  1
  O2-  O516  1  0.92207003  0.06635915  0.30057255  1
  O2-  O517  1  0.92853942  0.08360946  0.64788522  1
  O2-  O518  1  0.91270142  0.07199651  0.97235955  1
  O2-  O519  1  0.93274029  0.36473392  0.33626686  1
  O2-  O520  1  0.92455460  0.32349254  0.65385239  1
  O2-  O521  1  0.90156061  0.37159015  0.96896843  1
  O2-  O522  1  0.92007057  0.55867094  0.28740826  1
  O2-  O523  1  0.92693089  0.54363749  0.61567529  1
  O2-  O524  1  0.89039063  0.56791243  0.97894341  1
  O2-  O525  1  0.92266144  0.83793930  0.30749188  1
  O2-  O526  1  0.92496019  0.83758489  0.65094999  1
  O2-  O527  1  0.92629564  0.84245962  0.99060382  1
  O2-  O528  1  0.07643297  0.15721569  0.01083851  1
  O2-  O529  1  0.07541872  0.16786810  0.35734674  1
  O2-  O530  1  0.08897724  0.16466682  0.69861368  1
  O2-  O531  1  0.07656251  0.41547599  0.02481895  1
  O2-  O532  1  0.10979697  0.44280555  0.36107933  1
  O2-  O533  1  0.09296269  0.42143610  0.69566961  1
  O2-  O534  1  0.11749758  0.62174876  -0.03015396  1
  O2-  O535  1  0.08628199  0.68987971  0.35658363  1
  O2-  O536  1  0.06772818  0.65915313  0.67584208  1
  O2-  O537  1  0.12551059  0.91389712  0.00976179  1
  O2-  O538  1  0.08797604  0.92021397  0.34924194  1
  O2-  O539  1  0.08529387  0.91749774  0.69083641  1
  O2-  O540  1  0.29871062  0.20882232  0.02286420  1
  O2-  O541  1  0.34251047  0.16941150  0.35455963  1
  O2-  O542  1  0.31470226  0.16295449  0.70191621  1
  O2-  O543  1  0.30900989  0.36528640  0.03017756  1
  O2-  O544  1  0.32368558  0.41286194  0.39052316  1
  O2-  O545  1  0.35156283  0.44366783  0.69276527  1
  O2-  O546  1  0.32416074  0.66177534  0.01983299  1
  O2-  O547  1  0.31728597  0.65565830  0.34624159  1
  O2-  O548  1  0.33490975  0.66169434  0.66232156  1
  O2-  O549  1  0.31742598  0.89339216  0.02405190  1
  O2-  O550  1  0.35331861  0.88441274  0.28732997  1
  O2-  O551  1  0.31956664  0.90375333  0.69972045  1
  O2-  O552  1  0.57119164  0.15480627  0.02949631  1
  O2-  O553  1  0.56524340  0.15748678  0.35270361  1
  O2-  O554  1  0.55169624  0.14673794  0.71921456  1
  O2-  O555  1  0.60601134  0.42219749  0.01930997  1
  O2-  O556  1  0.57900850  0.41848784  0.34599453  1
  O2-  O557  1  0.51184811  0.45009988  0.70722851  1
  O2-  O558  1  0.58746464  0.66691308  0.02313998  1
  O2-  O559  1  0.59963478  0.66908990  0.35366879  1
  O2-  O560  1  0.60135971  0.66674746  0.68363148  1
  O2-  O561  1  0.58217272  0.91219783  0.01644412  1
  O2-  O562  1  0.58273057  0.92482420  0.35115713  1
  O2-  O563  1  0.59261590  0.92656586  0.68687093  1
  O2-  O564  1  0.84048698  0.17158313  -0.00182603  1
  O2-  O565  1  0.82931365  0.18048929  0.36427198  1
  O2-  O566  1  0.84685084  0.16180907  0.69456177  1
  O2-  O567  1  0.78207975  0.40177743  0.00210339  1
  O2-  O568  1  0.81847836  0.41689719  0.37234501  1
  O2-  O569  1  0.83553592  0.39683011  0.68781518  1
  O2-  O570  1  0.82696708  0.66279178  0.02004896  1
  O2-  O571  1  0.87657557  0.66566245  0.33412171  1
  O2-  O572  1  0.84842890  0.67724375  0.70132944  1
  O2-  O573  1  0.82016570  0.92970116  0.01590023  1
  O2-  O574  1  0.83976890  0.91419566  0.36582149  1
  O2-  O575  1  0.83815591  0.91655218  0.68199621  1
