# generated using pymatgen
data_H2O
_symmetry_space_group_name_H-M   'P 1'
_cell_length_a   17.98443955
_cell_length_b   17.97842624
_cell_length_c   21.98694950
_cell_angle_alpha   90.03778713
_cell_angle_beta   89.97677092
_cell_angle_gamma   120.01154450
_symmetry_Int_Tables_number   1
_chemical_formula_structural   H2O
_chemical_formula_sum   'H384 O192'
_cell_volume   6155.92843080
_cell_formula_units_Z   192
loop_
 _symmetry_equiv_pos_site_id
 _symmetry_equiv_pos_as_xyz
  1  'x, y, z'
loop_
 _atom_type_symbol
 _atom_type_oxidation_number
  H+  1.0
  O2-  -2.0
loop_
 _atom_site_type_symbol
 _atom_site_label
 _atom_site_symmetry_multiplicity
 _atom_site_fract_x
 _atom_site_fract_y
 _atom_site_fract_z
 _atom_site_occupancy
  H+  H0  1  0.76658946  0.13313898  0.37214797  1
  H+  H1  1  0.74019928  0.64549768  0.18992500  1
  H+  H2  1  0.37361383  0.84742397  0.00681364  1
  H+  H3  1  0.90289092  0.03828571  0.83000248  1
  H+  H4  1  0.38850503  0.36652198  0.65899885  1
  H+  H5  1  0.48143469  0.87443943  0.32919516  1
  H+  H6  1  0.58964237  0.91446286  0.73060026  1
  H+  H7  1  0.36070752  0.64859784  0.33835572  1
  H+  H8  1  0.36601888  0.48476478  0.66089671  1
  H+  H9  1  0.90794893  0.84413186  1.00040873  1
  H+  H10  1  0.86404695  1.00729069  0.33009912  1
  H+  H11  1  0.71999553  0.61451015  0.82867818  1
  H+  H12  1  0.86504460  0.47260026  0.34175339  1
  H+  H13  1  0.17409228  0.52704652  0.31262805  1
  H+  H14  1  0.01632351  0.89251026  0.67363704  1
  H+  H15  1  0.14359269  0.11295085  0.00203210  1
  H+  H16  1  0.62733480  -0.00114387  0.16771360  1
  H+  H17  1  0.07167141  0.47172329  0.36127648  1
  H+  H18  1  0.22530440  0.61373703  0.65865038  1
  H+  H19  1  0.35888347  0.13115328  0.82631156  1
  H+  H20  1  0.16750547  0.83092553  0.93876420  1
  H+  H21  1  0.38763555  0.11141752  0.33092700  1
  H+  H22  1  0.87684714  0.26513143  0.18164095  1
  H+  H23  1  0.47643689  0.86102245  0.66191630  1
  H+  H24  1  0.84282053  0.13515329  0.67674235  1
  H+  H25  1  0.11287919  0.22550665  0.01487856  1
  H+  H26  1  0.57549408  0.49897518  0.20454440  1
  H+  H27  1  0.35921344  0.97861010  0.33934928  1
  H+  H28  1  0.97683780  0.86008517  0.33706543  1
  H+  H29  1  0.58687284  0.67115467  0.06005853  1
  H+  H30  1  0.33212406  0.42848464  0.72324073  1
  H+  H31  1  0.10203546  0.13355611  0.16941393  1
  H+  H32  1  0.35972694  -0.01338966  0.82679369  1
  H+  H33  1  0.40709241  0.48566006  0.31972663  1
  H+  H34  1  0.16954065  0.25613846  0.68325333  1
  H+  H35  1  0.77859422  0.63434206  0.34635943  1
  H+  H36  1  0.88781569  0.85981168  0.51546019  1
  H+  H37  1  0.96452937  0.34914333  0.34029016  1
  H+  H38  1  1.03164909  0.62831439  1.00225636  1
  H+  H39  1  0.73080607  0.11672390  0.17885560  1
  H+  H40  1  0.52388145  0.12681168  0.66672912  1
  H+  H41  1  0.85419009  0.37765044  0.16401579  1
  H+  H42  1  0.27525908  0.62968993  0.00811945  1
  H+  H43  1  0.19509641  0.35162100  0.17470201  1
  H+  H44  1  0.02220719  0.88596488  0.50214150  1
  H+  H45  1  0.89717546  0.36252873  0.83526114  1
  H+  H46  1  0.24417957  0.39334783  0.80828629  1
  H+  H47  1  0.35415300  0.89297662  0.83127382  1
  H+  H48  1  0.47193033  0.61148352  0.64318056  1
  H+  H49  1  0.11543129  0.02377245  0.66067282  1
  H+  H50  1  0.11661271  0.64049100  0.67321788  1
  H+  H51  1  0.22621075  0.86405347  0.50642856  1
  H+  H52  1  0.62072127  0.98290073  0.82365952  1
  H+  H53  1  0.22359936  0.10906359  0.17625429  1
  H+  H54  1  0.38445227  0.76455479  0.00264368  1
  H+  H55  1  0.11239790  0.98722778  0.16485589  1
  H+  H56  1  0.22772993  1.11142857  0.50760071  1
  H+  H57  1  0.14109918  0.36134590  0.65711463  1
  H+  H58  1  0.63497778  0.11767618  0.34029802  1
  H+  H59  1  0.52464269  0.89067314  0.49766266  1
  H+  H60  1  0.11208059  0.97492253  0.49830467  1
  H+  H61  1  0.09013023  0.38061482  0.16351351  1
  H+  H62  1  1.01791108  0.16534463  0.66334985  1
  H+  H63  1  0.89860444  0.78868987  0.65994205  1
  H+  H64  1  0.77941293  0.80198757  0.04581386  1
  H+  H65  1  1.00311991  0.86468884  0.99084291  1
  H+  H66  1  0.13322466  1.01916408  0.33139609  1
  H+  H67  1  0.02198068  0.38056555  0.49814912  1
  H+  H68  1  0.58111325  0.91424179  0.40326197  1
  H+  H69  1  1.03077087  0.14197705  0.47982161  1
  H+  H70  1  0.41786126  0.08058541  0.55937937  1
  H+  H71  1  0.00688352  0.13457116  0.68961479  1
  H+  H72  1  0.39642016  0.53105282  0.14725738  1
  H+  H73  1  0.88427776  0.35460236  0.49714705  1
  H+  H74  1  0.77667575  0.14227591  1.00768612  1
  H+  H75  1  0.23807168  0.37512869  0.65552799  1
  H+  H76  1  0.85156640  0.72758843  0.82116007  1
  H+  H77  1  0.64052612  0.51808217  0.33846742  1
  H+  H78  1  0.92187185  0.57657583  0.27260485  1
  H+  H79  1  0.47225681  0.65057698  0.19672992  1
  H+  H80  1  0.67631525  0.34037747  0.89058008  1
  H+  H81  1  0.88822068  0.72057254  -0.02947595  1
  H+  H82  1  0.35968332  0.21561027  0.34258535  1
  H+  H83  1  0.62670116  0.26326760  0.50111632  1
  H+  H84  1  0.90208577  0.60321363  0.97037985  1
  H+  H85  1  0.36112606  0.63630488  0.66064139  1
  H+  H86  1  0.61358915  0.22449647  0.16857021  1
  H+  H87  1  0.72259840  0.34965098  0.50444254  1
  H+  H88  1  0.90002675  0.04868410  0.97762704  1
  H+  H89  1  0.61455689  0.38515368  0.33620410  1
  H+  H90  1  0.84179739  0.94980387  0.67629202  1
  H+  H91  1  0.50705524  0.89037346  0.01731732  1
  H+  H92  1  0.60968269  0.89202240  0.16645733  1
  H+  H93  1  0.58166951  0.13156229  0.48571753  1
  H+  H94  1  0.63143124  0.10448175  0.65417478  1
  H+  H95  1  0.91634538  0.07786692  0.63118679  1
  H+  H96  1  0.78101486  0.38246264  0.82156764  1
  H+  H97  1  0.99161379  0.74071560  0.16308216  1
  H+  H98  1  0.27357270  0.64915021  0.33344674  1
  H+  H99  1  0.14031879  0.11438009  0.50561547  1
  H+  H100  1  0.35432003  0.95653469  0.02321818  1
  H+  H101  1  0.98577574  0.88384572  0.18621691  1
  H+  H102  1  0.84550259  -0.03549722  0.48706713  1
  H+  H103  1  0.36493910  0.31663604  0.17152139  1
  H+  H104  1  0.59097949  0.63024453  0.17410686  1
  H+  H105  1  0.62264088  0.39233377  0.51507226  1
  H+  H106  1  0.22131232  0.35176638  -0.00593316  1
  H+  H107  1  0.22451065  0.86560744  0.84282991  1
  H+  H108  1  0.33204385  0.14143507  0.10148373  1
  H+  H109  1  0.60332207  0.70776427  0.66098208  1
  H+  H110  1  0.13536366  0.77093828  0.33137364  1
  H+  H111  1  0.90823967  0.32215143  0.59057672  1
  H+  H112  1  0.39050488  0.78444651  0.50628206  1
  H+  H113  1  0.09091322  0.21657858  0.16909220  1
  H+  H114  1  0.73419207  0.51712500  0.60974605  1
  H+  H115  1  0.34606280  0.64302021  0.17329194  1
  H+  H116  1  0.10835300  0.89470339  0.67322083  1
  H+  H117  1  0.41638507  0.35025945  1.01094274  1
  H+  H118  1  0.66174844  0.78914274  0.85881978  1
  H+  H119  1  0.35415326  0.27238131  0.86193954  1
  H+  H120  1  0.32935814  0.15747364  0.40329971  1
  H+  H121  1  0.51419304  0.13595858  0.82063949  1
  H+  H122  1  0.14143343  0.52523875  -0.00493972  1
  H+  H123  1  0.35859177  0.76512279  0.84118404  1
  H+  H124  1  1.02591836  0.88665244  0.82515720  1
  H+  H125  1  0.98038005  0.59138026  0.17783007  1
  H+  H126  1  0.86485900  0.47142384  0.49547904  1
  H+  H127  1  0.86929678  0.09786459  0.33839701  1
  H+  H128  1  0.25433573  0.63329866  0.16253897  1
  H+  H129  1  0.60217490  0.61165307  0.81282799  1
  H+  H130  1  0.23264358  0.61405268  0.50537421  1
  H+  H131  1  0.38714235  1.01912559  0.65787275  1
  H+  H132  1  0.85800064  0.13134096  0.16380604  1
  H+  H133  1  0.13623512  0.35880053  1.00621848  1
  H+  H134  1  0.36207018  0.72577017  0.66749155  1
  H+  H135  1  0.75211064  0.10937521  0.48733548  1
  H+  H136  1  0.09922586  0.71353396  0.15942730  1
  H+  H137  1  0.52272197  0.12243263  0.02328980  1
  H+  H138  1  0.32655584  0.38825631  0.82531963  1
  H+  H139  1  0.52160137  0.62308037  0.35052069  1
  H+  H140  1  0.16693164  0.83532330  0.60289254  1
  H+  H141  1  0.12477157  0.37537769  0.33154611  1
  H+  H142  1  0.12534979  -0.01986109  1.01188341  1
  H+  H143  1  0.87075015  0.87444786  0.67222689  1
  H+  H144  1  0.12017605  0.63824045  0.49463335  1
  H+  H145  1  0.13477033  0.86277321  0.84282614  1
  H+  H146  1  0.28488589  0.42116052  0.49202422  1
  H+  H147  1  0.65182347  0.49041315  0.64916925  1
  H+  H148  1  0.56469166  0.40762309  0.10619784  1
  H+  H149  1  0.14937728  0.08256454  0.59963216  1
  H+  H150  1  0.64372563  0.27203655  0.83494590  1
  H+  H151  1  0.02476150  0.39081089  0.00659980  1
  H+  H152  1  0.63193943  0.36303245  0.17309502  1
  H+  H153  1  0.63065317  0.11423143  0.84147474  1
  H+  H154  1  0.22544897  0.86602224  0.66266271  1
  H+  H155  1  0.86930652  0.14913606  1.00535002  1
  H+  H156  1  0.38729855  0.60443815  0.99904140  1
  H+  H157  1  0.86788080  0.63443768  0.34317777  1
  H+  H158  1  0.86694688  -0.01833974  0.17960370  1
  H+  H159  1  0.47360730  0.11998141  0.49675034  1
  H+  H160  1  0.64092109  0.11698266  0.18251847  1
  H+  H161  1  0.37469245  0.50996817  0.47945252  1
  H+  H162  1  0.28562797  0.13248466  1.00803206  1
  H+  H163  1  0.67335508  0.11946821  0.50282398  1
  H+  H164  1  0.62170732  0.97184976  0.49480711  1
  H+  H165  1  -0.00840967  0.60598292  0.83192235  1
  H+  H166  1  0.37925071  0.23484153  0.67523003  1
  H+  H167  1  0.12726540  0.23467456  0.33885258  1
  H+  H168  1  0.26040442  0.31385835  0.37096869  1
  H+  H169  1  0.88400694  0.88753473  0.18822935  1
  H+  H170  1  0.11562762  0.73003296  0.67333988  1
  H+  H171  1  0.41824249  0.83919674  0.60243941  1
  H+  H172  1  0.62194743  0.60546810  -0.01737876  1
  H+  H173  1  0.98057759  0.61057053  0.50624473  1
  H+  H174  1  0.51767519  0.60808836  0.12874034  1
  H+  H175  1  0.59412326  0.72366037  0.35615128  1
  H+  H176  1  0.87340725  0.72981753  0.50376531  1
  H+  H177  1  0.89633409  0.50253437  0.82985905  1
  H+  H178  1  0.12702877  0.60926998  0.17121348  1
  H+  H179  1  0.13530536  0.76719228  -0.00361184  1
  H+  H180  1  0.63623318  0.03177615  0.99583291  1
  H+  H181  1  0.13681320  0.01739356  0.84822114  1
  H+  H182  1  0.89658060  0.87275094  0.83710908  1
  H+  H183  1  0.21709158  0.60814352  0.84043536  1
  H+  H184  1  0.90829827  0.74476518  0.16751983  1
  H+  H185  1  0.60997021  0.77158802  0.17360139  1
  H+  H186  1  -0.01948579  0.60889098  0.33252213  1
  H+  H187  1  0.15779874  0.15514542  0.67801290  1
  H+  H188  1  0.26280460  0.87057150  1.02075305  1
  H+  H189  1  0.48345752  0.10850001  0.18016144  1
  H+  H190  1  0.39120612  0.78645799  0.32944426  1
  H+  H191  1  0.63568213  0.53519959  0.47246442  1
  H+  H192  1  0.61446172  0.96730557  0.66857969  1
  H+  H193  1  0.82630627  0.89394848  0.01611197  1
  H+  H194  1  0.56726576  0.44046825  1.00250802  1
  H+  H195  1  0.72771265  0.38015664  0.98726732  1
  H+  H196  1  0.22112743  0.86205785  0.32540102  1
  H+  H197  1  0.72299087  0.84355593  0.66349298  1
  H+  H198  1  0.11260689  0.47083312  0.66256574  1
  H+  H199  1  0.71105655  0.84785393  0.32811483  1
  H+  H200  1  0.60560516  0.36472748  0.67041170  1
  H+  H201  1  0.10897560  0.72920135  0.82791436  1
  H+  H202  1  0.61408104  -0.02017778  0.34725656  1
  H+  H203  1  0.12461215  0.13198876  0.83100676  1
  H+  H204  1  0.88336971  0.11476992  0.46839716  1
  H+  H205  1  0.36356586  0.97923416  0.49143083  1
  H+  H206  1  0.85195090  0.87333165  0.34133648  1
  H+  H207  1  0.60413033  0.69646799  0.78721451  1
  H+  H208  1  0.89043764  0.27097082  0.83951482  1
  H+  H209  1  0.39008996  0.87307532  0.50603886  1
  H+  H210  1  0.36203882  0.88681847  0.67719244  1
  H+  H211  1  0.99012449  0.13110542  0.99126869  1
  H+  H212  1  0.61564944  0.46817333  0.81566844  1
  H+  H213  1  0.56719670  0.71254381  0.50761185  1
  H+  H214  1  0.36541030  0.76743560  0.17949360  1
  H+  H215  1  0.30292744  0.37069214  0.16710365  1
  H+  H216  1  -0.03627470  0.10513289  0.18465939  1
  H+  H217  1  0.17159630  0.58648176  -0.06479622  1
  H+  H218  1  1.02522957  0.38171820  0.65774060  1
  H+  H219  1  0.28893700  0.35079984  0.13543725  1
  H+  H220  1  0.62002110  0.84627260  0.51157577  1
  H+  H221  1  0.11777988  0.63438434  0.34224104  1
  H+  H222  1  0.50805122  0.36403142  0.16437748  1
  H+  H223  1  0.83860049  0.65243274  0.02042880  1
  H+  H224  1  0.69574563  0.86709821  1.01774700  1
  H+  H225  1  0.09016375  0.66430838  0.40309774  1
  H+  H226  1  0.35782244  0.12798489  0.49272494  1
  H+  H227  1  0.79302085  0.90338258  0.82900037  1
  H+  H228  1  0.88836782  0.27762417  -0.00659975  1
  H+  H229  1  0.90842238  0.61343223  0.17890535  1
  H+  H230  1  0.63139657  0.90080963  0.82464030  1
  H+  H231  1  0.74377637  0.60551044  0.18965606  1
  H+  H232  1  0.47891517  0.11377796  0.33166034  1
  H+  H233  1  0.41745625  0.20060186  0.72407171  1
  H+  H234  1  0.86621493  0.47542604  0.66953561  1
  H+  H235  1  1.02635544  0.37072985  0.82963146  1
  H+  H236  1  0.85848993  0.37954825  0.34371071  1
  H+  H237  1  0.52588339  0.38462400  0.33588408  1
  H+  H238  1  0.47595139  0.36197924  0.65925890  1
  H+  H239  1  0.11787747  0.72696722  0.49429844  1
  H+  H240  1  0.59510690  0.89152782  1.01397492  1
  H+  H241  1  0.31358754  0.16480308  0.77782057  1
  H+  H242  1  0.89694286  0.51316335  -0.01255553  1
  H+  H243  1  0.35038481  0.63266904  0.81919860  1
  H+  H244  1  0.10971415  0.85385557  0.17882719  1
  H+  H245  1  0.48110317  0.62492080  0.83669221  1
  H+  H246  1  0.48020999  0.35339398  0.51371481  1
  H+  H247  1  0.86574592  0.38596083  0.66487237  1
  H+  H248  1  0.69863250  0.58668741  0.97720385  1
  H+  H249  1  0.37313366  -0.02266401  0.17163426  1
  H+  H250  1  0.87112938  0.64184364  0.67113124  1
  H+  H251  1  0.61718835  0.46283066  0.55402750  1
  H+  H252  1  0.04495866  0.14655563  0.81554402  1
  H+  H253  1  0.63247744  0.36694276  0.98776007  1
  H+  H254  1  0.78197841  0.63524308  0.66260887  1
  H+  H255  1  0.61747516  0.13937075  0.01772454  1
  H+  H256  1  0.14276760  0.52374502  0.50671431  1
  H+  H257  1  0.62040762  0.77367023  0.99930546  1
  H+  H258  1  0.33853170  0.37526233  -0.05570907  1
  H+  H259  1  0.41748757  0.59261712  0.58272177  1
  H+  H260  1  0.88572692  0.26654661  0.48571425  1
  H+  H261  1  0.14664174  0.28273731  0.50691203  1
  H+  H262  1  0.48902466  0.52771330  0.27461813  1
  H+  H263  1  0.35907478  0.11178701  0.16336689  1
  H+  H264  1  0.72612645  0.36097721  0.32676228  1
  H+  H265  1  0.36838673  0.87338561  0.17600970  1
  H+  H266  1  0.37646180  0.34428117  0.32599703  1
  H+  H267  1  0.16641150  0.08372707  0.23737715  1
  H+  H268  1  0.87971745  0.27196541  0.65430371  1
  H+  H269  1  0.86525688  0.38636022  1.00475032  1
  H+  H270  1  0.88876129  0.76783861  0.33162768  1
  H+  H271  1  0.38498706  0.09287092  1.00181954  1
  H+  H272  1  0.72198562  0.36346393  0.17010268  1
  H+  H273  1  0.12484578  0.88943486  0.01392019  1
  H+  H274  1  0.13439350  0.61647549  0.84611324  1
  H+  H275  1  0.10872734  0.88245936  0.34629556  1
  H+  H276  1  0.76002118  0.87233095  0.49561845  1
  H+  H277  1  0.98100525  0.61358095  0.66153834  1
  H+  H278  1  0.07215086  0.15778995  0.07021856  1
  H+  H279  1  0.08750563  0.92100850  0.76730542  1
  H+  H280  1  0.62382349  0.38381553  0.81749717  1
  H+  H281  1  0.13572792  0.86165131  0.50784096  1
  H+  H282  1  0.51938831  0.63840710  0.00384508  1
  H+  H283  1  0.14830471  0.15688089  0.34261855  1
  H+  H284  1  0.32898416  0.90870436  0.11358829  1
  H+  H285  1  0.12195052  0.51641524  0.17352155  1
  H+  H286  1  0.00331292  0.38342844  0.16645024  1
  H+  H287  1  0.87629902  0.26119562  0.34523787  1
  H+  H288  1  0.11065819  0.18401136  0.43428970  1
  H+  H289  1  0.65131899  0.57462704  0.88518527  1
  H+  H290  1  0.22672446  0.10678641  0.85005182  1
  H+  H291  1  0.41380429  0.04816478  0.95052289  1
  H+  H292  1  0.17484569  0.33905712  0.56751069  1
  H+  H293  1  0.14367264  0.19293873  0.74856934  1
  H+  H294  1  0.61102723  0.22444184  0.34019357  1
  H+  H295  1  0.22672084  0.10342104  0.33007596  1
  H+  H296  1  0.83504693  0.90584793  0.12553493  1
  H+  H297  1  0.86051539  0.46886975  0.16252257  1
  H+  H298  1  0.89798707  0.07460096  0.24318397  1
  H+  H299  1  0.42389691  0.59306224  0.93607622  1
  H+  H300  1  0.76262173  0.66357218  0.07813041  1
  H+  H301  1  0.58503090  0.40427996  0.73007347  1
  H+  H302  1  0.65468850  0.60280757  0.36828165  1
  H+  H303  1  0.41639225  0.58407006  0.24708585  1
  H+  H304  1  0.62775612  0.85804912  0.33158078  1
  H+  H305  1  0.41058769  0.31881651  0.56470441  1
  H+  H306  1  0.40958094  0.83295796  0.23852206  1
  H+  H307  1  0.64974256  0.81219927  0.56983198  1
  H+  H308  1  0.92700654  0.83848361  0.89447068  1
  H+  H309  1  0.38072154  0.65926364  0.48604951  1
  H+  H310  1  0.86467638  0.14142808  0.82381435  1
  H+  H311  1  0.67906858  0.85297881  0.91197806  1
  H+  H312  1  0.72122003  0.62166038  0.47598575  1
  H+  H313  1  0.82416939  0.03078060  0.60066461  1
  H+  H314  1  0.61581399  0.56314841  0.26220645  1
  H+  H315  1  0.83711372  0.41742642  0.06462845  1
  H+  H316  1  0.07588605  0.41457631  0.41549708  1
  H+  H317  1  0.08026501  0.91347854  0.40653941  1
  H+  H318  1  0.31861661  0.40607815  0.40317191  1
  H+  H319  1  0.32055102  0.65796199  0.75833188  1
  H+  H320  1  0.93600070  0.10508770  0.88562114  1
  H+  H321  1  0.75526114  0.61826971  0.07849986  1
  H+  H322  1  0.36452013  0.22067240  0.49363582  1
  H+  H323  1  0.12695436  0.81215180  0.23762931  1
  H+  H324  1  0.33163036  0.92007366  0.73520173  1
  H+  H325  1  0.37508937  0.23423789  0.17259194  1
  H+  H326  1  0.93164078  0.56152829  0.89660227  1
  H+  H327  1  0.84988136  0.67551808  0.44175709  1
  H+  H328  1  0.14385537  0.33343462  0.23683417  1
  H+  H329  1  0.08106782  0.92416035  0.10591828  1
  H+  H330  1  0.83398061  0.16703255  0.10353046  1
  H+  H331  1  0.11483490  0.38440621  0.49993335  1
  H+  H332  1  0.41333520  0.32914814  0.91521551  1
  H+  H333  1  0.92582922  0.84418465  0.25080197  1
  H+  H334  1  0.36110379  0.89133979  0.33831967  1
  H+  H335  1  0.17068997  0.08113119  0.94232471  1
  H+  H336  1  0.08547836  0.67215758  0.76574024  1
  H+  H337  1  0.66753761  0.33270474  0.26645292  1
  H+  H338  1  0.92289531  0.84221018  0.57973289  1
  H+  H339  1  0.66739110  0.31922670  0.59651210  1
  H+  H340  1  0.67516891  0.09118343  0.28495447  1
  H+  H341  1  0.82334037  0.66936817  0.76164787  1
  H+  H342  1  0.90252130  0.32064103  0.24318730  1
  H+  H343  1  0.56417579  0.63078164  0.70844478  1
  H+  H344  1  0.16633857  0.58689028  0.59986976  1
  H+  H345  1  0.83311993  0.41444726  0.43470874  1
  H+  H346  1  0.58439395  0.93277885  0.10303957  1
  H+  H347  1  0.83978910  0.41230429  0.76051745  1
  H+  H348  1  0.72222548  0.11845710  0.84291033  1
  H+  H349  1  0.12349925  0.63518344  0.00671572  1
  H+  H350  1  0.08219750  0.65751857  0.09759661  1
  H+  H351  1  0.66735177  0.08993807  0.93570478  1
  H+  H352  1  0.21312176  0.37267163  0.32660793  1
  H+  H353  1  0.39136864  0.81921936  0.90259798  1
  H+  H354  1  0.63731042  0.85229053  0.66272210  1
  H+  H355  1  0.53974812  0.65668870  0.44115311  1
  H+  H356  1  0.46440032  0.69336318  0.86828990  1
  H+  H357  1  0.92336646  0.58299711  0.60100597  1
  H+  H358  1  0.36415694  0.45884827  -0.01680460  1
  H+  H359  1  0.76059804  0.14173491  0.67631414  1
  H+  H360  1  0.81617328  0.89767446  0.39957619  1
  H+  H361  1  0.33407748  0.68126307  0.43303824  1
  H+  H362  1  0.89279715  0.61298027  0.50891447  1
  H+  H363  1  0.63869619  0.82439569  0.23636708  1
  H+  H364  1  0.42158500  0.07914689  0.23944832  1
  H+  H365  1  0.58569633  0.16029239  0.11099392  1
  H+  H366  1  0.40609164  0.31194358  0.26702134  1
  H+  H367  1  0.39517299  0.11191981  0.65619306  1
  H+  H368  1  0.57507988  0.17022948  0.40418837  1
  H+  H369  1  0.07472197  0.41916554  0.06944972  1
  H+  H370  1  0.38264304  0.21438934  0.01277539  1
  H+  H371  1  0.42522917  0.11785335  0.88083261  1
  H+  H372  1  0.33053289  0.91696998  0.43331305  1
  H+  H373  1  0.67519888  0.08001414  0.59853161  1
  H+  H374  1  0.84114794  0.91524396  0.76492140  1
  H+  H375  1  0.58150784  0.16041576  0.76566996  1
  H+  H376  1  0.92036442  0.33485806  0.93256509  1
  H+  H377  1  0.82649073  0.17191110  0.76997461  1
  H+  H378  1  0.72733645  0.35317771  0.65656881  1
  H+  H379  1  0.42500473  0.46786548  0.12079598  1
  H+  H380  1  0.61473243  0.21526209  0.66741412  1
  H+  H381  1  0.32802537  0.65842138  0.07037851  1
  H+  H382  1  0.91995036  0.10599003  0.53146646  1
  H+  H383  1  0.16514812  0.58208300  0.25987362  1
  O2-  O384  1  0.06418813  0.15583507  0.15494555  1
  O2-  O385  1  0.09428424  0.17497338  0.47843710  1
  O2-  O386  1  0.10654006  0.16811230  0.80750625  1
  O2-  O387  1  0.06331263  0.41457900  0.14960065  1
  O2-  O388  1  0.08345588  0.41454273  0.48450254  1
  O2-  O389  1  0.08800273  0.40015443  0.81271325  1
  O2-  O390  1  0.08057569  0.65462051  0.14341042  1
  O2-  O391  1  0.08844797  0.66651178  0.47822891  1
  O2-  O392  1  0.07983543  0.66891051  0.81147470  1
  O2-  O393  1  0.07743247  0.92554158  0.15129571  1
  O2-  O394  1  0.08155823  0.91393799  0.48361177  1
  O2-  O395  1  0.08791067  0.91728692  0.81305603  1
  O2-  O396  1  0.32610036  0.13899883  0.14710687  1
  O2-  O397  1  0.32808391  0.15932367  0.47779360  1
  O2-  O398  1  0.31997991  0.16044219  0.82183421  1
  O2-  O399  1  0.42595157  0.52157465  0.11288087  1
  O2-  O400  1  0.33497904  0.45013168  0.46476475  1
  O2-  O401  1  0.30596118  0.41865596  0.79946181  1
  O2-  O402  1  0.31664414  0.66873846  0.15070343  1
  O2-  O403  1  0.33879262  0.68012926  0.47785523  1
  O2-  O404  1  0.31585711  0.65726968  0.80371216  1
  O2-  O405  1  0.33774996  0.91409778  0.15932261  1
  O2-  O406  1  0.33203023  0.91669336  0.47871426  1
  O2-  O407  1  0.32604310  0.92426316  0.81368710  1
  O2-  O408  1  0.58658046  0.16218323  0.15765223  1
  O2-  O409  1  0.56625450  0.17311236  0.47144899  1
  O2-  O410  1  0.57867190  0.16310022  0.81065096  1
  O2-  O411  1  0.56673622  0.40896997  0.15194930  1
  O2-  O412  1  0.59561460  0.42919431  0.51626672  1
  O2-  O413  1  0.58978194  0.40857979  0.80020259  1
  O2-  O414  1  0.57216099  0.65944564  0.14436427  1
  O2-  O415  1  0.53044147  0.65123789  0.48958434  1
  O2-  O416  1  0.56488758  0.63578880  0.79483704  1
  O2-  O417  1  0.59289721  0.93605090  0.14929754  1
  O2-  O418  1  0.58440352  0.91132439  0.48163491  1
  O2-  O419  1  0.60018662  0.92569418  0.80458594  1
  O2-  O420  1  0.83055706  0.16453694  0.14908638  1
  O2-  O421  1  0.83838386  0.16469440  0.44915080  1
  O2-  O422  1  0.82988836  0.16974895  0.81529041  1
  O2-  O423  1  0.82833732  0.40971201  0.14476484  1
  O2-  O424  1  0.83488980  0.41100426  0.48015120  1
  O2-  O425  1  0.84277437  0.41301909  0.80635492  1
  O2-  O426  1  0.93129008  0.71066825  0.14912129  1
  O2-  O427  1  0.84601373  0.67008553  0.48671343  1
  O2-  O428  1  0.81549122  0.66788715  0.80660723  1
  O2-  O429  1  0.84226750  0.91646141  0.16981705  1
  O2-  O430  1  0.81887959  0.90210438  0.47865484  1
  O2-  O431  1  0.85059862  0.93001289  0.81026368  1
  O2-  O432  1  0.16396818  0.08697328  0.19174753  1
  O2-  O433  1  0.16640145  0.08102349  0.52215222  1
  O2-  O434  1  0.16534949  0.07624635  0.86656264  1
  O2-  O435  1  0.13682097  0.32384862  0.19123684  1
  O2-  O436  1  0.17287897  0.34298263  0.52187930  1
  O2-  O437  1  0.12209127  0.35109559  0.82356285  1
  O2-  O438  1  0.15526432  0.57716400  0.18932436  1
  O2-  O439  1  0.17180416  0.58512159  0.51964193  1
  O2-  O440  1  0.16249453  0.58623121  0.86354850  1
  O2-  O441  1  0.10731165  0.80089845  0.19444465  1
  O2-  O442  1  0.16596502  0.83072871  0.52207701  1
  O2-  O443  1  0.16402692  0.83167037  0.85905049  1
  O2-  O444  1  0.42145146  0.07467708  0.19354338  1
  O2-  O445  1  0.41253552  0.07986618  0.51423770  1
  O2-  O446  1  0.41444263  0.09461857  0.83975807  1
  O2-  O447  1  0.40142445  0.29577662  0.18845282  1
  O2-  O448  1  0.41755113  0.31585795  0.52018780  1
  O2-  O449  1  0.37660955  0.32923418  0.88123536  1
  O2-  O450  1  0.41247851  0.61460248  0.21020269  1
  O2-  O451  1  0.43798323  0.61412991  0.50538270  1
  O2-  O452  1  0.43845348  0.63158212  0.86233022  1
  O2-  O453  1  0.40029293  0.82925449  0.19301660  1
  O2-  O454  1  0.42225477  0.84471348  0.52204868  1
  O2-  O455  1  0.38588043  0.82379420  0.85839658  1
  O2-  O456  1  0.67090559  0.08456671  0.19603012  1
  O2-  O457  1  0.69677813  0.08249775  0.51305985  1
  O2-  O458  1  0.66229313  0.08592937  0.85866836  1
  O2-  O459  1  0.66269915  0.33293932  0.18758631  1
  O2-  O460  1  0.66384518  0.32231538  0.52177269  1
  O2-  O461  1  0.68074569  0.33418101  0.84522007  1
  O2-  O462  1  0.57344083  0.54543912  0.22770761  1
  O2-  O463  1  0.66223717  0.59603594  0.46023521  1
  O2-  O464  1  0.65630568  0.57766165  0.84006819  1
  O2-  O465  1  0.63283883  0.82927512  0.19142646  1
  O2-  O466  1  0.64105127  0.80649502  0.52435877  1
  O2-  O467  1  0.68806986  0.85026181  0.86753281  1
  O2-  O468  1  0.90139445  0.07354279  0.19657878  1
  O2-  O469  1  0.91163260  0.08333601  0.49029237  1
  O2-  O470  1  0.93182060  0.10082812  0.84067053  1
  O2-  O471  1  0.90383921  0.32507103  0.19793191  1
  O2-  O472  1  0.91339238  0.32148580  0.50945755  1
  O2-  O473  1  0.92601340  0.33253605  0.85335832  1
  O2-  O474  1  0.92116923  0.56853134  0.19450113  1
  O2-  O475  1  0.92082387  0.57922278  0.52251422  1
  O2-  O476  1  0.93038613  0.56366269  0.84944925  1
  O2-  O477  1  0.92533871  0.85243114  0.20389744  1
  O2-  O478  1  0.92203555  0.83529701  0.53173996  1
  O2-  O479  1  0.92188992  0.83650271  0.84954148  1
  O2-  O480  1  0.16634449  0.07850470  0.31410922  1
  O2-  O481  1  0.12978665  0.08059317  0.64234495  1
  O2-  O482  1  0.17492197  0.08330011  0.98822521  1
  O2-  O483  1  0.15436978  0.34951181  0.30918599  1
  O2-  O484  1  0.17624108  0.33397972  0.64405640  1
  O2-  O485  1  0.15744823  0.31916994  0.99553425  1
  O2-  O486  1  0.17501982  0.58128985  0.30595866  1
  O2-  O487  1  0.16377486  0.58556592  0.64513321  1
  O2-  O488  1  0.17465986  0.58660511  0.98174656  1
  O2-  O489  1  0.15873500  0.82980142  0.31422348  1
  O2-  O490  1  0.16451630  0.83502137  0.64823869  1
  O2-  O491  1  0.16663922  0.82938453  0.98445555  1
  O2-  O492  1  0.41853442  0.08205510  0.31466729  1
  O2-  O493  1  0.42091644  0.07810085  0.63967743  1
  O2-  O494  1  0.41240899  0.05603589  0.99436176  1
  O2-  O495  1  0.41162028  0.31913419  0.31206666  1
  O2-  O496  1  0.41444613  0.33121134  0.64596117  1
  O2-  O497  1  0.44353047  0.31922011  0.99324081  1
  O2-  O498  1  0.44956623  0.53928835  0.30026973  1
  O2-  O499  1  0.41041165  0.58600525  0.62802276  1
  O2-  O500  1  0.42267943  0.58143878  0.98052491  1
  O2-  O501  1  0.42110851  0.84572340  0.31254666  1
  O2-  O502  1  0.41556431  0.83434216  0.64771886  1
  O2-  O503  1  0.41075400  0.82599575  0.98944247  1
  O2-  O504  1  0.66930527  0.08814433  0.32973192  1
  O2-  O505  1  0.66648276  0.07630979  0.64293563  1
  O2-  O506  1  0.67278269  0.09148998  0.98139818  1
  O2-  O507  1  0.66569423  0.32983056  0.31185545  1
  O2-  O508  1  0.66665974  0.31842621  0.64256220  1
  O2-  O509  1  0.67499972  0.36019653  0.96313651  1
  O2-  O510  1  0.66903385  0.58272062  0.33030112  1
  O2-  O511  1  0.69365092  0.53604208  0.62032139  1
  O2-  O512  1  0.63903243  0.56542672  0.96499020  1
  O2-  O513  1  0.64929134  0.82026559  0.31535145  1
  O2-  O514  1  0.66367249  0.81905823  0.64578361  1
  O2-  O515  1  0.64888420  0.83777801  0.98878703  1
  O2-  O516  1  0.89232448  0.06735391  0.31458810  1
  O2-  O517  1  0.85480174  0.05102524  0.63916988  1
  O2-  O518  1  0.93227853  0.11007617  0.96966706  1
  O2-  O519  1  0.90513459  0.31786332  0.32377765  1
  O2-  O520  1  0.91130884  0.33019672  0.63549943  1
  O2-  O521  1  0.91948617  0.33789990  0.97798073  1
  O2-  O522  1  0.91971958  0.57821517  0.31811512  1
  O2-  O523  1  0.92026446  0.58203775  0.64656171  1
  O2-  O524  1  0.93305342  0.57000797  0.96527946  1
  O2-  O525  1  0.91755534  0.83011836  0.31844443  1
  O2-  O526  1  0.92465847  0.84928781  0.64736818  1
  O2-  O527  1  0.94299364  0.83108041  0.97308377  1
  O2-  O528  1  0.07886203  0.16075589  0.02537556  1
  O2-  O529  1  0.15147203  0.20730822  0.36457642  1
  O2-  O530  1  0.17661170  0.21042884  0.70604932  1
  O2-  O531  1  0.08361361  0.42103224  0.02468154  1
  O2-  O532  1  0.06850853  0.41672582  0.36879548  1
  O2-  O533  1  0.08590724  0.40839473  0.67045359  1
  O2-  O534  1  0.08932300  0.66261127  0.02160537  1
  O2-  O535  1  0.08761416  0.66384053  0.35707801  1
  O2-  O536  1  0.08544653  0.66969297  0.68952622  1
  O2-  O537  1  0.09304649  0.91919102  0.02749849  1
  O2-  O538  1  0.07872079  0.91350518  0.36066943  1
  O2-  O539  1  0.07926897  0.92450228  0.69027701  1
  O2-  O540  1  0.34427625  0.15187951  0.02459658  1
  O2-  O541  1  0.32848261  0.15481591  0.35708045  1
  O2-  O542  1  0.36899002  0.18035274  0.69621818  1
  O2-  O543  1  0.33293489  0.39534243  -0.01491925  1
  O2-  O544  1  0.30322648  0.37449249  0.36160614  1
  O2-  O545  1  0.33839591  0.42528092  0.67810037  1
  O2-  O546  1  0.33526737  0.65777354  0.02553069  1
  O2-  O547  1  0.33293891  0.68064587  0.35132407  1
  O2-  O548  1  0.33046725  0.66406231  0.68005189  1
  O2-  O549  1  0.32136552  0.89667957  0.03990209  1
  O2-  O550  1  0.32628645  0.91698379  0.35286572  1
  O2-  O551  1  0.33176897  0.91827207  0.68948356  1
  O2-  O552  1  0.58120182  0.15766184  0.03979969  1
  O2-  O553  1  0.58026886  0.16467716  0.35666830  1
  O2-  O554  1  0.58444193  0.15425256  0.68233010  1
  O2-  O555  1  0.55473595  0.38904790  0.02666633  1
  O2-  O556  1  0.58624597  0.41803511  0.34912453  1
  O2-  O557  1  0.58080818  0.40089678  0.68332567  1
  O2-  O558  1  0.58327620  0.67481044  0.01529470  1
  O2-  O559  1  0.56418818  0.66741129  0.37811269  1
  O2-  O560  1  0.56717617  0.64431928  0.66489941  1
  O2-  O561  1  0.56926023  0.92435567  0.03138470  1
  O2-  O562  1  0.58125849  0.91711707  0.35770131  1
  O2-  O563  1  0.58489485  0.90765113  0.68477088  1
  O2-  O564  1  0.83649265  0.17393117  0.02470249  1
  O2-  O565  1  0.82988837  0.16165399  0.38118567  1
  O2-  O566  1  0.82165805  0.17311407  0.69150271  1
  O2-  O567  1  0.83907328  0.42101866  0.01930502  1
  O2-  O568  1  0.83026955  0.41240604  0.35732432  1
  O2-  O569  1  0.83529201  0.41421193  0.68377703  1
  O2-  O570  1  0.84948086  0.65737838  -0.02330094  1
  O2-  O571  1  0.84096309  0.66799127  0.35791214  1
  O2-  O572  1  0.83787168  0.67027886  0.68306277  1
  O2-  O573  1  0.82817644  0.86026668  0.05023921  1
  O2-  O574  1  0.81628331  0.89879461  0.35405730  1
  O2-  O575  1  0.82560404  0.89315903  0.69307310  1
