# generated using pymatgen
data_H2O
_symmetry_space_group_name_H-M   'P 1'
_cell_length_a   17.98427239
_cell_length_b   17.98476249
_cell_length_c   22.00695448
_cell_angle_alpha   90.00996933
_cell_angle_beta   90.00724906
_cell_angle_gamma   119.99296755
_symmetry_Int_Tables_number   1
_chemical_formula_structural   H2O
_chemical_formula_sum   'H384 O192'
_cell_volume   6164.79879923
_cell_formula_units_Z   192
loop_
 _symmetry_equiv_pos_site_id
 _symmetry_equiv_pos_as_xyz
  1  'x, y, z'
loop_
 _atom_type_symbol
 _atom_type_oxidation_number
  H+  1.0
  O2-  -2.0
loop_
 _atom_site_type_symbol
 _atom_site_label
 _atom_site_symmetry_multiplicity
 _atom_site_fract_x
 _atom_site_fract_y
 _atom_site_fract_z
 _atom_site_occupancy
  H+  H0  1  0.47502898  0.36144091  0.98999826  1
  H+  H1  1  0.85344751  0.13728200  0.34126132  1
  H+  H2  1  0.13489792  0.86976296  0.32571501  1
  H+  H3  1  0.39796074  0.27749828  0.83536516  1
  H+  H4  1  0.52484044  0.13065251  0.65532799  1
  H+  H5  1  0.38512596  0.10825916  0.65752537  1
  H+  H6  1  0.74892860  0.09803810  0.67156467  1
  H+  H7  1  0.40067301  0.53753533  0.50890460  1
  H+  H8  1  0.91714196  0.33542656  0.93715987  1
  H+  H9  1  0.63377498  1.01049636  0.62740734  1
  H+  H10  1  0.86363894  -0.03617914  0.66422554  1
  H+  H11  1  0.89012413  0.11790571  0.50002652  1
  H+  H12  1  0.64360580  0.25532971  0.98798281  1
  H+  H13  1  0.27823698  0.73388544  0.95593412  1
  H+  H14  1  0.36925509  0.23236090  0.00178001  1
  H+  H15  1  0.76109537  0.80401750  0.45615577  1
  H+  H16  1  0.14221592  1.02460472  0.83755499  1
  H+  H17  1  0.86227357  0.11835309  -0.02099821  1
  H+  H18  1  0.89156765  0.86075927  0.83742391  1
  H+  H19  1  0.60486523  0.39288810  0.34752950  1
  H+  H20  1  0.08061690  0.42092521  0.43371543  1
  H+  H21  1  0.97408206  0.85463941  0.99275911  1
  H+  H22  1  0.60587455  0.38193302  0.15628061  1
  H+  H23  1  0.88550859  0.60768779  0.50687506  1
  H+  H24  1  0.13424316  0.36142502  0.50354280  1
  H+  H25  1  0.39401838  0.51109690  0.32907569  1
  H+  H26  1  0.73033673  0.38115258  0.32133535  1
  H+  H27  1  0.61997741  0.38708276  0.83115490  1
  H+  H28  1  0.86754125  0.10604275  1.01066478  1
  H+  H29  1  0.85342503  0.23577404  0.17713639  1
  H+  H30  1  0.47497884  0.10939619  0.32850275  1
  H+  H31  1  0.77777745  0.37571382  0.00776051  1
  H+  H32  1  0.81788151  0.89271267  0.42639818  1
  H+  H33  1  0.25809497  0.87916072  0.16844028  1
  H+  H34  1  0.39211593  0.77713688  0.64516712  1
  H+  H35  1  0.88975929  0.28169259  0.65908668  1
  H+  H36  1  0.52240826  0.38502439  0.83577578  1
  H+  H37  1  0.52016087  0.65301318  0.49762321  1
  H+  H38  1  0.64443950  0.36836120  0.65809307  1
  H+  H39  1  1.02126669  0.63136571  0.83321563  1
  H+  H40  1  0.38275559  0.35666070  0.98641345  1
  H+  H41  1  1.01397701  0.39425477  0.34100934  1
  H+  H42  1  0.72580380  0.60902237  0.16730162  1
  H+  H43  1  0.97178565  0.11693074  0.65613631  1
  H+  H44  1  0.13628170  0.27605580  -0.00472950  1
  H+  H45  1  0.05279827  0.33917165  0.13484378  1
  H+  H46  1  0.10966181  0.38359407  0.82777675  1
  H+  H47  1  0.01171748  0.63792021  0.16660915  1
  H+  H48  1  0.22936317  0.11537982  0.83683121  1
  H+  H49  1  0.22567189  0.85871544  0.50584229  1
  H+  H50  1  0.39428490  0.87399504  0.49283975  1
  H+  H51  1  0.21059948  0.10874895  0.17414703  1
  H+  H52  1  0.86497719  0.39321381  0.67547168  1
  H+  H53  1  0.62170066  0.21285134  0.34509748  1
  H+  H54  1  0.62514578  0.64344298  0.15382737  1
  H+  H55  1  0.87425557  0.09072033  0.65582334  1
  H+  H56  1  0.65623020  0.86680245  0.81125878  1
  H+  H57  1  0.28440483  0.62853855  0.01353393  1
  H+  H58  1  0.10734453  0.46928003  0.67317655  1
  H+  H59  1  0.13994160  0.60831542  0.83680846  1
  H+  H60  1  0.61997014  0.87745328  0.64445994  1
  H+  H61  1  0.62571596  0.97965540  0.01947337  1
  H+  H62  1  0.09688651  0.63433476  0.15933981  1
  H+  H63  1  0.64250005  0.64784038  0.31849671  1
  H+  H64  1  0.22927998  0.30635484  0.22253527  1
  H+  H65  1  0.37489352  0.70287907  0.03382306  1
  H+  H66  1  0.39459120  0.36939163  0.65323869  1
  H+  H67  1  0.36397924  0.47076538  0.15282403  1
  H+  H68  1  0.87074706  0.72455302  0.48822558  1
  H+  H69  1  0.71605613  0.10118062  0.33407580  1
  H+  H70  1  0.40544790  0.82322218  0.27361749  1
  H+  H71  1  0.38815459  1.01715204  0.81594711  1
  H+  H72  1  0.11050473  0.13201695  0.82359517  1
  H+  H73  1  0.12715460  1.01427571  0.17483777  1
  H+  H74  1  0.38418377  0.01781207  0.65506981  1
  H+  H75  1  -0.02207826  0.85901219  0.50057731  1
  H+  H76  1  0.39317637  0.62101714  0.83388906  1
  H+  H77  1  0.65027071  0.52152383  0.33091045  1
  H+  H78  1  0.10803435  0.13209702  0.49196421  1
  H+  H79  1  0.60869178  0.11868975  0.34228390  1
  H+  H80  1  0.26045176  0.11877645  0.49492083  1
  H+  H81  1  0.88442795  0.86268687  0.32407990  1
  H+  H82  1  0.52964936  0.13895805  0.79984443  1
  H+  H83  1  0.11122343  0.54021616  0.33153277  1
  H+  H84  1  0.36345689  0.72993860  0.81816374  1
  H+  H85  1  -0.02386216  0.12503278  0.17337958  1
  H+  H86  1  0.01984043  0.13547871  0.49150317  1
  H+  H87  1  0.07873413  0.42369710  0.05853803  1
  H+  H88  1  0.38509679  0.49015976  0.81734362  1
  H+  H89  1  1.02425397  0.87710082  0.67141433  1
  H+  H90  1  0.11229948  0.87993850  0.49068691  1
  H+  H91  1  1.01809165  0.88195055  0.15865488  1
  H+  H92  1  0.85471913  0.22718770  0.33887535  1
  H+  H93  1  0.26596510  0.88462855  0.33941069  1
  H+  H94  1  0.54767448  0.62578547  0.33084293  1
  H+  H95  1  0.73877763  0.13228785  0.84685631  1
  H+  H96  1  0.34590780  0.20974373  0.49719963  1
  H+  H97  1  0.84668866  0.24777471  0.02175050  1
  H+  H98  1  0.80732985  0.66527954  0.72596255  1
  H+  H99  1  0.88206373  0.77477557  0.16871647  1
  H+  H100  1  0.77811260  0.87906558  0.81984783  1
  H+  H101  1  0.87735424  0.50836083  0.00408193  1
  H+  H102  1  0.14085335  0.77619663  0.84361446  1
  H+  H103  1  0.47494033  0.10768442  0.17275470  1
  H+  H104  1  0.37795430  0.59530533  0.17969510  1
  H+  H105  1  0.13164902  0.51929276  0.50762390  1
  H+  H106  1  0.62072349  0.14616548  0.80908570  1
  H+  H107  1  0.34325641  0.73115557  0.35046177  1
  H+  H108  1  0.10679979  0.13929683  0.33919353  1
  H+  H109  1  0.39167800  0.37195502  0.17283960  1
  H+  H110  1  1.02452147  0.39107071  0.82791693  1
  H+  H111  1  0.81512595  0.37688798  0.39403305  1
  H+  H112  1  0.37637114  0.36666457  0.49573010  1
  H+  H113  1  0.96591639  0.60023603  0.99837537  1
  H+  H114  1  0.84477133  0.66321192  0.42982424  1
  H+  H115  1  0.90093991  0.59114478  0.23578387  1
  H+  H116  1  0.12866799  1.01124413  0.50292964  1
  H+  H117  1  0.63571687  0.27802970  0.82226027  1
  H+  H118  1  0.46605845  0.86830652  0.85669422  1
  H+  H119  1  0.02132111  0.63402980  0.49782351  1
  H+  H120  1  0.33673573  0.67643660  0.72464521  1
  H+  H121  1  0.87524782  0.52424192  0.17956377  1
  H+  H122  1  0.60436095  0.97332210  0.17027199  1
  H+  H123  1  0.72506291  0.12637961  1.01524613  1
  H+  H124  1  0.11425950  0.87851903  0.67258267  1
  H+  H125  1  0.61636459  0.72485719  0.00008773  1
  H+  H126  1  0.95931203  0.36638493  0.17726579  1
  H+  H127  1  0.74484438  0.13631749  0.49657726  1
  H+  H128  1  0.87843420  0.95945193  0.00140832  1
  H+  H129  1  0.02929372  0.88736213  0.82802716  1
  H+  H130  1  0.60308116  0.89966469  0.88074069  1
  H+  H131  1  0.60808122  0.75863073  0.50136534  1
  H+  H132  1  0.52067339  0.12618987  0.49541398  1
  H+  H133  1  0.39053434  0.62206145  0.51195429  1
  H+  H134  1  0.63368434  0.27518190  0.49156599  1
  H+  H135  1  0.27167662  0.13105820  0.67029193  1
  H+  H136  1  0.77258866  0.88717716  0.33448418  1
  H+  H137  1  0.87059142  0.38789684  1.01257433  1
  H+  H138  1  0.27098351  0.62690221  0.50869687  1
  H+  H139  1  0.71907980  0.11359578  0.18355410  1
  H+  H140  1  0.51617698  0.12452217  0.01494870  1
  H+  H141  1  0.11811485  0.24353673  0.66901403  1
  H+  H142  1  0.12112939  0.26803326  0.84248482  1
  H+  H143  1  0.53739184  0.41421632  0.50739407  1
  H+  H144  1  0.10713414  0.43030665  0.16475602  1
  H+  H145  1  0.38679407  0.40203973  0.81841855  1
  H+  H146  1  0.37940983  0.26838124  0.32861297  1
  H+  H147  1  0.60855215  0.47558947  0.65882258  1
  H+  H148  1  0.86001644  0.47072392  0.83153286  1
  H+  H149  1  0.75193230  0.63805687  0.66535614  1
  H+  H150  1  0.63210239  0.27206284  0.17571536  1
  H+  H151  1  0.12727847  0.27816063  0.33345092  1
  H+  H152  1  0.41823558  0.83509718  0.58419954  1
  H+  H153  1  0.88333252  0.76623111  0.65405110  1
  H+  H154  1  0.62079424  0.66669174  0.49580209  1
  H+  H155  1  0.36703552  0.88455411  0.65998841  1
  H+  H156  1  0.62960687  0.73445128  0.15330966  1
  H+  H157  1  0.22280227  0.61205405  0.65863120  1
  H+  H158  1  0.13352645  0.60956780  0.50673983  1
  H+  H159  1  0.30642651  0.41028238  0.66815536  1
  H+  H160  1  0.63598986  0.61356933  0.98738409  1
  H+  H161  1  0.77751819  0.38461655  0.48444151  1
  H+  H162  1  0.67342823  0.36691269  0.26113126  1
  H+  H163  1  0.11316116  0.39466668  1.00244000  1
  H+  H164  1  0.79587904  0.62373253  0.33105159  1
  H+  H165  1  0.46617707  0.85324546  0.17944352  1
  H+  H166  1  0.72084070  0.36279375  0.17078887  1
  H+  H167  1  0.64640941  0.28053325  0.65099086  1
  H+  H168  1  0.16019175  0.08083670  0.27039476  1
  H+  H169  1  0.52600326  0.38400000  0.66151086  1
  H+  H170  1  0.64013478  0.55131280  0.49942404  1
  H+  H171  1  0.37975023  0.86035315  0.33109734  1
  H+  H172  1  0.48384412  0.60848996  0.98933618  1
  H+  H173  1  0.14080371  0.86488586  0.84114265  1
  H+  H174  1  0.11243895  0.97505948  0.00655520  1
  H+  H175  1  0.35664639  0.97314281  0.33986090  1
  H+  H176  1  0.38401778  0.10443263  0.50514710  1
  H+  H177  1  0.39187238  0.59996698  0.99615538  1
  H+  H178  1  0.26481092  0.38607693  0.34205486  1
  H+  H179  1  0.88805794  1.03522073  0.17147107  1
  H+  H180  1  0.61956107  0.75943392  0.66416759  1
  H+  H181  1  0.12365319  0.14045609  0.00989418  1
  H+  H182  1  0.51682072  0.87655801  0.34475544  1
  H+  H183  1  0.53961961  0.89357483  0.00838165  1
  H+  H184  1  0.72795734  0.61002256  0.83808277  1
  H+  H185  1  0.10351389  0.13520199  0.16469091  1
  H+  H186  1  0.64046740  0.12664536  0.49897786  1
  H+  H187  1  0.08796802  0.16880405  0.06723044  1
  H+  H188  1  0.37607135  0.85004369  0.17754288  1
  H+  H189  1  0.23424105  0.52667761  0.19542081  1
  H+  H190  1  0.33797790  0.82675730  0.98599559  1
  H+  H191  1  0.35870166  0.22212494  0.66652675  1
  H+  H192  1  0.70364325  0.87697246  0.50730974  1
  H+  H193  1  0.11091674  0.72381287  0.49648500  1
  H+  H194  1  0.95493151  0.28958017  0.29450512  1
  H+  H195  1  0.64380778  0.77236602  0.32419072  1
  H+  H196  1  0.73076030  0.87362630  0.17365806  1
  H+  H197  1  0.62745740  1.00801773  0.33593925  1
  H+  H198  1  0.85469849  0.39147933  0.16959386  1
  H+  H199  1  0.61911976  0.48296863  0.83514787  1
  H+  H200  1  0.12432024  0.23308227  0.16757627  1
  H+  H201  1  0.67376761  0.84379492  0.93436772  1
  H+  H202  1  0.01933185  0.63378357  0.67666052  1
  H+  H203  1  0.60580916  0.13089343  0.16918033  1
  H+  H204  1  0.85461660  0.62556293  0.00866987  1
  H+  H205  1  0.36060232  0.97210356  0.49198657  1
  H+  H206  1  0.60361196  -0.01295120  0.87553189  1
  H+  H207  1  0.73165238  0.63577639  0.49646301  1
  H+  H208  1  0.86517887  0.87595465  0.66398805  1
  H+  H209  1  0.61987562  0.64978531  0.83048832  1
  H+  H210  1  0.34547867  0.97827373  0.02453155  1
  H+  H211  1  0.86697221  0.47266797  0.48819964  1
  H+  H212  1  0.95922348  0.64920224  0.33820911  1
  H+  H213  1  0.16149736  0.62744024  0.98149703  1
  H+  H214  1  0.72286134  0.60895171  0.99011165  1
  H+  H215  1  0.60683901  0.60715605  0.64271947  1
  H+  H216  1  0.22517298  0.36382588  -0.00909902  1
  H+  H217  1  0.53564304  0.87944552  0.62314694  1
  H+  H218  1  0.98376203  0.37102975  0.99325646  1
  H+  H219  1  0.88226836  1.01366732  0.82909112  1
  H+  H220  1  0.12869843  0.09441992  0.66064716  1
  H+  H221  1  0.83396320  0.41789160  0.76802945  1
  H+  H222  1  0.88807103  0.36496934  0.50362510  1
  H+  H223  1  0.12988095  0.76949102  0.17685037  1
  H+  H224  1  0.08202687  0.64474295  0.34216652  1
  H+  H225  1  0.88169527  0.60296606  0.85537181  1
  H+  H226  1  0.88315296  0.84967400  0.50024495  1
  H+  H227  1  0.88080003  0.52215293  0.66456612  1
  H+  H228  1  0.88411742  0.36063878  0.83948604  1
  H+  H229  1  0.87625690  0.60857980  0.66025364  1
  H+  H230  1  0.88931441  0.27436674  0.84022554  1
  H+  H231  1  0.33528141  0.17146631  0.76273612  1
  H+  H232  1  0.25149574  0.88488426  1.01686254  1
  H+  H233  1  0.87580281  0.73485694  0.82874946  1
  H+  H234  1  0.42922836  0.32788058  0.46515959  1
  H+  H235  1  0.19101028  0.63304780  0.33792470  1
  H+  H236  1  0.77984408  0.88203414  1.00745485  1
  H+  H237  1  0.86139564  -0.02302313  0.33828327  1
  H+  H238  1  0.33144782  0.42472746  0.43451319  1
  H+  H239  1  0.23180658  0.11282148  0.99192885  1
  H+  H240  1  0.42010765  0.60928036  0.32419438  1
  H+  H241  1  0.30620432  0.63002929  0.35169437  1
  H+  H242  1  0.02276320  0.38577467  0.49352388  1
  H+  H243  1  0.60862293  0.47213878  0.15643133  1
  H+  H244  1  0.15759623  0.06873262  0.56337895  1
  H+  H245  1  0.47738489  0.36473376  0.17515218  1
  H+  H246  1  0.89585325  0.67775641  0.78498340  1
  H+  H247  1  0.37765606  0.11641636  1.01125299  1
  H+  H248  1  0.34998153  0.24902632  0.15901419  1
  H+  H249  1  0.99523842  0.08678036  0.98321647  1
  H+  H250  1  0.22601758  0.85513228  0.65673333  1
  H+  H251  1  0.36773356  0.47020487  -0.00217489  1
  H+  H252  1  0.53138733  0.65066395  0.82939561  1
  H+  H253  1  0.11063466  0.72618069  -0.00724197  1
  H+  H254  1  0.36775213  0.13980940  0.81820848  1
  H+  H255  1  0.07329774  0.66056469  -0.05959760  1
  H+  H256  1  0.76774461  0.04097036  0.71500328  1
  H+  H257  1  0.60402993  0.12099497  0.01501895  1
  H+  H258  1  0.13320997  0.86729297  -0.00374520  1
  H+  H259  1  0.11083024  0.98063495  0.34034915  1
  H+  H260  1  0.72594743  0.36474450  0.83165739  1
  H+  H261  1  0.22218955  0.11336131  0.32887511  1
  H+  H262  1  0.82419712  0.15359592  0.77244331  1
  H+  H263  1  0.85842454  0.63897436  0.15859518  1
  H+  H264  1  0.86142228  0.12962488  0.83003711  1
  H+  H265  1  0.36163087  0.88736999  0.81596605  1
  H+  H266  1  0.07766196  0.41339291  0.73338934  1
  H+  H267  1  0.35163455  0.97005124  0.16553943  1
  H+  H268  1  0.34286234  0.70092395  0.17710874  1
  H+  H269  1  0.37346807  0.64867932  0.67074253  1
  H+  H270  1  0.86013303  0.71756418  1.00343444  1
  H+  H271  1  0.27151841  0.39174725  0.49300271  1
  H+  H272  1  0.64536519  0.86654010  -0.00261182  1
  H+  H273  1  0.63052696  0.10010439  0.64354641  1
  H+  H274  1  0.02241190  0.89059358  0.33708020  1
  H+  H275  1  0.96940461  0.11530468  0.32860231  1
  H+  H276  1  0.36003737  0.13354709  0.34097849  1
  H+  H277  1  0.51116587  0.38309528  0.34818376  1
  H+  H278  1  0.57659907  0.15304446  0.43372268  1
  H+  H279  1  0.10778228  0.40719961  0.33936997  1
  H+  H280  1  0.86485307  0.89527118  0.16178309  1
  H+  H281  1  0.13508310  0.76690025  0.66162437  1
  H+  H282  1  0.63751631  0.77744993  0.83856393  1
  H+  H283  1  0.04683689  0.24904936  0.70503758  1
  H+  H284  1  0.13437559  0.27147338  0.49940011  1
  H+  H285  1  0.83748016  0.34408488  0.33434098  1
  H+  H286  1  0.17436635  0.84429311  0.93780124  1
  H+  H287  1  0.86534400  0.23530325  0.49165089  1
  H+  H288  1  0.07699749  0.16560282  0.39966761  1
  H+  H289  1  0.41220223  0.33235903  0.27085457  1
  H+  H290  1  0.42288363  0.54525774  0.67593545  1
  H+  H291  1  0.91918840  0.83169641  0.89958360  1
  H+  H292  1  0.82815145  0.66604004  0.09768637  1
  H+  H293  1  0.37398283  0.82086749  0.88756528  1
  H+  H294  1  0.53656102  0.89857097  0.45707168  1
  H+  H295  1  0.83483436  0.90335801  0.75858357  1
  H+  H296  1  0.35097579  0.37831758  0.34156466  1
  H+  H297  1  0.58222273  0.43146363  0.44252346  1
  H+  H298  1  0.77317414  0.38927796  0.67622629  1
  H+  H299  1  0.88348549  0.85033045  0.99473944  1
  H+  H300  1  0.16107470  0.83086119  0.23648343  1
  H+  H301  1  0.10733486  0.88122451  0.16118454  1
  H+  H302  1  0.89235620  0.77685328  0.32149864  1
  H+  H303  1  0.08662201  0.91303362  0.76769975  1
  H+  H304  1  0.62672866  0.87009609  0.55022370  1
  H+  H305  1  0.27704833  0.37776940  0.15463873  1
  H+  H306  1  0.18886698  0.32240096  0.58695328  1
  H+  H307  1  0.67020107  0.58449654  0.89898108  1
  H+  H308  1  0.91633995  0.08176493  0.55669281  1
  H+  H309  1  0.92134822  0.82631917  0.59523406  1
  H+  H310  1  0.91150208  0.08745834  0.26864257  1
  H+  H311  1  0.42156922  0.58963659  0.89403154  1
  H+  H312  1  0.19771918  0.60285183  0.92331275  1
  H+  H313  1  0.57795319  0.15886423  0.10753171  1
  H+  H314  1  0.31517590  0.63894682  0.11989413  1
  H+  H315  1  0.15943155  0.57975552  0.60215073  1
  H+  H316  1  0.38717028  0.11004163  0.17373031  1
  H+  H317  1  0.67204479  0.31428127  0.92806669  1
  H+  H318  1  0.32696015  0.15872801  0.40070673  1
  H+  H319  1  0.59142150  0.16382603  0.70984538  1
  H+  H320  1  0.26649922  0.22586829  0.12307343  1
  H+  H321  1  0.57767588  0.91369176  0.11122902  1
  H+  H322  1  0.42175246  0.56312005  0.22760950  1
  H+  H323  1  0.98103374  0.36841766  0.66273150  1
  H+  H324  1  0.91803867  0.33665202  0.56443668  1
  H+  H325  1  0.12571850  0.77761161  0.33070540  1
  H+  H326  1  0.41190308  0.32997381  0.59281093  1
  H+  H327  1  0.27733595  0.63809223  0.81825261  1
  H+  H328  1  0.33411936  0.91044482  0.72061912  1
  H+  H329  1  0.59345008  0.66900742  0.06086872  1
  H+  H330  1  0.81425955  0.19351545  0.08531824  1
  H+  H331  1  0.67731698  0.09465271  0.55910753  1
  H+  H332  1  0.16566560  0.82942082  0.56543047  1
  H+  H333  1  0.20324355  0.42657473  0.20607952  1
  H+  H334  1  0.16260149  0.33405723  0.27365879  1
  H+  H335  1  0.08069009  0.91456859  0.06624675  1
  H+  H336  1  0.65654260  0.07593743  0.24111552  1
  H+  H337  1  0.23809092  0.28124938  0.61881855  1
  H+  H338  1  0.42252261  0.33236325  0.89796663  1
  H+  H339  1  0.82980016  0.41859964  0.10643992  1
  H+  H340  1  0.41451113  0.07596743  0.56450555  1
  H+  H341  1  0.91006623  0.33751715  0.24346792  1
  H+  H342  1  0.90825285  0.56781665  0.91279950  1
  H+  H343  1  0.33009388  0.67049202  0.45220663  1
  H+  H344  1  0.06438319  0.67663941  0.40502489  1
  H+  H345  1  0.33574682  0.41209956  0.05820604  1
  H+  H346  1  0.91486827  0.83433981  0.22826241  1
  H+  H347  1  0.93452514  0.05366084  0.92450158  1
  H+  H348  1  0.83158308  0.17477733  0.43041032  1
  H+  H349  1  0.57073966  0.41393181  0.06130519  1
  H+  H350  1  0.13240713  1.00803509  0.66136450  1
  H+  H351  1  0.67375387  0.56936954  0.22786196  1
  H+  H352  1  0.39047313  0.06893685  0.95546776  1
  H+  H353  1  0.32979809  0.18229311  0.06517333  1
  H+  H354  1  0.14095662  0.51950478  0.83637832  1
  H+  H355  1  0.36303339  0.43311155  0.72992781  1
  H+  H356  1  0.15320523  0.33061935  0.89951596  1
  H+  H357  1  0.64108535  0.36768850  0.49750547  1
  H+  H358  1  0.44327141  0.07976619  0.86927445  1
  H+  H359  1  0.08003106  0.17023912  0.76804351  1
  H+  H360  1  0.17053474  0.08246374  0.93351847  1
  H+  H361  1  0.07835691  0.66264771  0.77257358  1
  H+  H362  1  0.48834659  0.62739163  0.59386893  1
  H+  H363  1  0.55361241  0.85628344  0.75317251  1
  H+  H364  1  0.83683053  0.92189015  0.10142773  1
  H+  H365  1  0.60588072  0.87730078  0.34489128  1
  H+  H366  1  0.67774083  0.07724739  0.95238888  1
  H+  H367  1  0.66822715  0.83546332  0.26727791  1
  H+  H368  1  0.63773838  0.86626816  0.17677956  1
  H+  H369  1  0.10755708  0.63141857  0.67644929  1
  H+  H370  1  0.31200581  0.91183356  0.08892920  1
  H+  H371  1  0.97011653  0.10349914  0.83232413  1
  H+  H372  1  0.70777286  0.49626224  0.29726907  1
  H+  H373  1  0.41499119  0.08073819  0.26968756  1
  H+  H374  1  0.85954956  0.14892843  0.17009107  1
  H+  H375  1  0.91261105  0.57790192  0.56732089  1
  H+  H376  1  0.08276840  0.91140022  0.43075947  1
  H+  H377  1  0.66072262  0.59955962  0.58937697  1
  H+  H378  1  0.59449498  0.89914064  0.75490251  1
  H+  H379  1  0.27369263  0.88949115  0.81932248  1
  H+  H380  1  0.71529456  0.83881757  0.67341543  1
  H+  H381  1  0.60145720  0.47302295  1.00203681  1
  H+  H382  1  0.69174118  0.16659774  0.88980858  1
  H+  H383  1  0.32749820  0.91330739  0.43178449  1
  O2-  O384  1  0.08413190  0.17403707  0.14819363  1
  O2-  O385  1  0.08218879  0.16630252  0.47713815  1
  O2-  O386  1  0.07465276  0.15793721  0.81211065  1
  O2-  O387  1  0.05491757  0.39432859  0.13742113  1
  O2-  O388  1  0.08375945  0.41569800  0.47912066  1
  O2-  O389  1  0.08408354  0.41942340  0.81151872  1
  O2-  O390  1  0.07187317  0.67029996  0.15084693  1
  O2-  O391  1  0.08052275  0.66394030  0.47998391  1
  O2-  O392  1  0.08135852  0.66439122  0.81818329  1
  O2-  O393  1  0.07947015  0.91276638  0.14408598  1
  O2-  O394  1  0.08108553  0.90995582  0.47639500  1
  O2-  O395  1  0.08991061  0.91669397  0.81308222  1
  O2-  O396  1  0.30105850  0.20020015  0.13518763  1
  O2-  O397  1  0.32213815  0.15125588  0.48066290  1
  O2-  O398  1  0.33809073  0.17219629  0.80830897  1
  O2-  O399  1  0.33685930  0.40985239  0.13572427  1
  O2-  O400  1  0.33343068  0.42385678  0.48004212  1
  O2-  O401  1  0.36104177  0.43257095  0.79802847  1
  O2-  O402  1  0.31361076  0.63973943  0.16487027  1
  O2-  O403  1  0.33217715  0.65678856  0.49542139  1
  O2-  O404  1  0.33748665  0.67004458  0.80245790  1
  O2-  O405  1  0.31896393  0.90967536  0.14954735  1
  O2-  O406  1  0.32942516  0.91115922  0.47734578  1
  O2-  O407  1  0.33173696  0.91845663  0.79986117  1
  O2-  O408  1  0.57381215  0.15939074  0.15297005  1
  O2-  O409  1  0.58092607  0.15780602  0.47907787  1
  O2-  O410  1  0.59170776  0.17411638  0.78909362  1
  O2-  O411  1  0.57374241  0.41102430  0.14245180  1
  O2-  O412  1  0.59358666  0.44382533  0.48725984  1
  O2-  O413  1  0.58707137  0.41950952  0.82204023  1
  O2-  O414  1  0.60660299  0.67905391  0.13157758  1
  O2-  O415  1  0.58439195  0.69387507  0.48572758  1
  O2-  O416  1  0.59410697  0.68506124  0.81934609  1
  O2-  O417  1  0.57337647  0.91200447  0.15631437  1
  O2-  O418  1  0.51839653  0.92253692  0.49047860  1
  O2-  O419  1  0.56915735  0.92750362  0.88974593  1
  O2-  O420  1  0.82333760  0.17519547  0.16081927  1
  O2-  O421  1  0.83153636  0.17399327  0.47655132  1
  O2-  O422  1  0.83245962  0.16303169  0.81686459  1
  O2-  O423  1  0.82520459  0.42188898  0.15160147  1
  O2-  O424  1  0.84023329  0.41240015  0.47354133  1
  O2-  O425  1  0.82913285  0.41181711  0.81383472  1
  O2-  O426  1  0.82849295  0.66956360  0.14321681  1
  O2-  O427  1  0.83543779  0.66333429  0.47417911  1
  O2-  O428  1  0.84996772  0.67455489  0.81054456  1
  O2-  O429  1  0.83637906  0.92727547  0.14678095  1
  O2-  O430  1  0.80033485  0.86363405  0.46726663  1
  O2-  O431  1  0.83790739  0.90686264  0.80422914  1
  O2-  O432  1  0.15333575  0.07347778  0.19270794  1
  O2-  O433  1  0.15904542  0.07218638  0.51831711  1
  O2-  O434  1  0.16943806  0.08496682  0.85271877  1
  O2-  O435  1  0.19329253  0.32253442  0.19943426  1
  O2-  O436  1  0.16689332  0.33179137  0.51564246  1
  O2-  O437  1  0.14846390  0.32896595  0.85441580  1
  O2-  O438  1  0.18628319  0.47143239  0.20898525  1
  O2-  O439  1  0.16147137  0.57877814  0.52494950  1
  O2-  O440  1  0.17443070  0.58183399  0.84959656  1
  O2-  O441  1  0.16324585  0.83149368  0.19056789  1
  O2-  O442  1  0.16456550  0.82970015  0.51999681  1
  O2-  O443  1  0.17287266  0.83691409  0.85787310  1
  O2-  O444  1  0.41221981  0.07562670  0.18715389  1
  O2-  O445  1  0.41605041  0.07550776  0.51880282  1
  O2-  O446  1  0.42525706  0.08072319  0.82773406  1
  O2-  O447  1  0.41704864  0.33824995  0.19195566  1
  O2-  O448  1  0.40710556  0.33277972  0.50457885  1
  O2-  O449  1  0.43096157  0.33706716  0.85222834  1
  O2-  O450  1  0.40829017  0.56216763  0.18415930  1
  O2-  O451  1  0.43169131  0.59853282  0.52189204  1
  O2-  O452  1  0.42609687  0.59352345  0.84884116  1
  O2-  O453  1  0.40512502  0.82008899  0.19383858  1
  O2-  O454  1  0.43293803  0.85051367  0.50543279  1
  O2-  O455  1  0.40378790  0.83415295  0.84687196  1
  O2-  O456  1  0.65688622  0.07937470  0.19568096  1
  O2-  O457  1  0.68027914  0.10321932  0.51281323  1
  O2-  O458  1  0.68066496  0.11691882  0.86503365  1
  O2-  O459  1  0.65997607  0.33395802  0.18622154  1
  O2-  O460  1  0.67365322  0.33754166  0.49356311  1
  O2-  O461  1  0.66324977  0.33429655  0.84385456  1
  O2-  O462  1  0.66582625  0.57528007  0.18391273  1
  O2-  O463  1  0.67130066  0.61385076  0.51084544  1
  O2-  O464  1  0.66831475  0.58074495  0.85250876  1
  O2-  O465  1  0.67111490  0.83853060  0.18996273  1
  O2-  O466  1  0.64116197  0.84691350  0.51339473  1
  O2-  O467  1  0.66903499  0.84368187  0.84749501  1
  O2-  O468  1  0.91563998  0.09464670  0.18861252  1
  O2-  O469  1  0.92133365  0.08792991  0.51197242  1
  O2-  O470  1  0.90871322  0.07284846  0.84631015  1
  O2-  O471  1  0.90143814  0.34030928  0.19644941  1
  O2-  O472  1  0.91784587  0.33336282  0.51925806  1
  O2-  O473  1  0.91751375  0.33418481  0.85557136  1
  O2-  O474  1  0.90614874  0.58673600  0.19142905  1
  O2-  O475  1  0.91633583  0.57832226  0.52205609  1
  O2-  O476  1  0.91270980  0.57276498  0.86679951  1
  O2-  O477  1  0.91521605  0.83593096  0.18290068  1
  O2-  O478  1  0.91789400  0.82524910  0.51717854  1
  O2-  O479  1  0.92265114  0.83178602  0.85385218  1
  O2-  O480  1  0.16083125  0.08395433  0.31582892  1
  O2-  O481  1  0.16179993  0.06912043  0.64498528  1
  O2-  O482  1  0.17066019  0.08007594  0.97890990  1
  O2-  O483  1  0.15997143  0.33897746  0.31907734  1
  O2-  O484  1  0.20593890  0.31030242  0.62812530  1
  O2-  O485  1  0.16339972  0.33582573  0.97924783  1
  O2-  O486  1  0.13383080  0.60096308  0.31886999  1
  O2-  O487  1  0.16078776  0.58069177  0.64782511  1
  O2-  O488  1  0.21337579  0.62844849  0.96538809  1
  O2-  O489  1  0.16282342  0.83621707  0.31219600  1
  O2-  O490  1  0.16392951  0.82660253  0.64476280  1
  O2-  O491  1  0.16903189  0.84049065  0.98331667  1
  O2-  O492  1  0.41390329  0.08134750  0.31477873  1
  O2-  O493  1  0.41549222  0.07907749  0.64086605  1
  O2-  O494  1  0.39971481  0.07486577  0.99923470  1
  O2-  O495  1  0.40850538  0.33024981  0.31634906  1
  O2-  O496  1  0.40871679  0.32524192  0.63725775  1
  O2-  O497  1  0.41393001  0.32624089  0.97233053  1
  O2-  O498  1  0.43782248  0.56859552  0.31163946  1
  O2-  O499  1  0.45242957  0.61012552  0.67825055  1
  O2-  O500  1  0.42323730  0.57654780  0.97342263  1
  O2-  O501  1  0.40681372  0.82556643  0.31896246  1
  O2-  O502  1  0.42290735  0.83749207  0.62956687  1
  O2-  O503  1  0.31516884  0.79704027  0.94765408  1
  O2-  O504  1  0.65501148  0.06870941  0.31963615  1
  O2-  O505  1  0.66695865  0.07564900  0.62785646  1
  O2-  O506  1  0.66780620  0.07685677  0.99619988  1
  O2-  O507  1  0.68709761  0.39423034  0.30222038  1
  O2-  O508  1  0.68181564  0.34337317  0.64838022  1
  O2-  O509  1  0.69137505  0.30559173  0.96785410  1
  O2-  O510  1  0.70040459  0.54804857  0.30328121  1
  O2-  O511  1  0.65115287  0.59143577  0.63415463  1
  O2-  O512  1  0.66434613  0.58127553  0.97125642  1
  O2-  O513  1  0.66827316  0.83416280  0.31297559  1
  O2-  O514  1  0.65350112  0.81845974  0.67931946  1
  O2-  O515  1  0.67388011  0.83663730  0.97867595  1
  O2-  O516  1  0.90846319  0.08411160  0.31403623  1
  O2-  O517  1  0.91521817  0.07401656  0.63919799  1
  O2-  O518  1  0.95187656  0.03487112  0.96139611  1
  O2-  O519  1  0.92434576  0.31872999  0.30805883  1
  O2-  O520  1  0.91961967  0.34087833  0.64488500  1
  O2-  O521  1  0.92013578  0.33913505  0.98222081  1
  O2-  O522  1  0.90030316  0.62219562  0.31800842  1
  O2-  O523  1  0.91132154  0.58271560  0.64815208  1
  O2-  O524  1  0.90435713  0.56944039  0.98706770  1
  O2-  O525  1  0.91879445  0.83706777  0.30752543  1
  O2-  O526  1  0.92120187  0.82696074  0.64082072  1
  O2-  O527  1  0.91455509  0.82202081  0.97629131  1
  O2-  O528  1  0.09056683  0.16890299  0.02189559  1
  O2-  O529  1  0.07530588  0.16822887  0.35417106  1
  O2-  O530  1  0.06487718  0.20781631  0.69385105  1
  O2-  O531  1  0.08273711  0.42619285  0.01359756  1
  O2-  O532  1  0.07480359  0.43255175  0.35709844  1
  O2-  O533  1  0.07387478  0.40900427  0.68796484  1
  O2-  O534  1  0.08105031  0.66330070  -0.01559084  1
  O2-  O535  1  0.05755027  0.68066833  0.36004444  1
  O2-  O536  1  0.07910640  0.66308625  0.69311799  1
  O2-  O537  1  0.08184395  0.91387465  0.02057242  1
  O2-  O538  1  0.08213913  0.91900708  0.35373626  1
  O2-  O539  1  0.08416106  0.90938560  0.68796640  1
  O2-  O540  1  0.33831791  0.17276044  0.02151432  1
  O2-  O541  1  0.32899391  0.16338222  0.35544487  1
  O2-  O542  1  0.33214782  0.16323388  0.68465995  1
  O2-  O543  1  0.33384292  0.40957861  0.01257569  1
  O2-  O544  1  0.32634798  0.41412463  0.35642980  1
  O2-  O545  1  0.36618524  0.43786778  0.68257943  1
  O2-  O546  1  0.33570555  0.64162609  0.03941485  1
  O2-  O547  1  0.30191981  0.67581970  0.37188570  1
  O2-  O548  1  0.33721187  0.67455946  0.67904214  1
  O2-  O549  1  0.31173626  0.91608203  0.03864151  1
  O2-  O550  1  0.32662461  0.91277532  0.35486749  1
  O2-  O551  1  0.33349694  0.91174941  0.67532889  1
  O2-  O552  1  0.57632508  0.15434142  0.02907304  1
  O2-  O553  1  0.58074864  0.15348293  0.35615280  1
  O2-  O554  1  0.58746387  0.15776533  0.66484764  1
  O2-  O555  1  0.56752762  0.41275390  0.01616931  1
  O2-  O556  1  0.56927414  0.41435039  0.36739719  1
  O2-  O557  1  0.58643160  0.41693655  0.67452194  1
  O2-  O558  1  0.58668255  0.66451458  0.01457241  1
  O2-  O559  1  0.60843425  0.66553003  0.34235284  1
  O2-  O560  1  0.52147675  0.63976852  0.63274736  1
  O2-  O561  1  0.59305886  0.91647527  0.03125696  1
  O2-  O562  1  0.57589592  0.90671177  0.36188007  1
  O2-  O563  1  0.59894740  0.90740528  0.61630115  1
  O2-  O564  1  0.79716536  0.20041335  0.04357601  1
  O2-  O565  1  0.82177345  0.16606236  0.35649152  1
  O2-  O566  1  0.79526666  0.09926362  0.69871922  1
  O2-  O567  1  0.83487848  0.41306006  0.02779700  1
  O2-  O568  1  0.79069545  0.34728680  0.35491169  1
  O2-  O569  1  0.83501474  0.42218442  0.69283614  1
  O2-  O570  1  0.82519097  0.65822240  0.02036417  1
  O2-  O571  1  0.85639481  0.66476516  0.34562402  1
  O2-  O572  1  0.81192053  0.66336547  0.68155169  1
  O2-  O573  1  0.83844283  0.90490512  0.02456255  1
  O2-  O574  1  0.83307176  0.91517583  0.35073250  1
  O2-  O575  1  0.83348694  0.90423938  0.68050991  1
