# generated using pymatgen
data_H2O
_symmetry_space_group_name_H-M   'P 1'
_cell_length_a   17.96667228
_cell_length_b   17.96114077
_cell_length_c   21.96959818
_cell_angle_alpha   89.97097365
_cell_angle_beta   89.97400737
_cell_angle_gamma   120.00050422
_symmetry_Int_Tables_number   1
_chemical_formula_structural   H2O
_chemical_formula_sum   'H384 O192'
_cell_volume   6139.76715190
_cell_formula_units_Z   192
loop_
 _symmetry_equiv_pos_site_id
 _symmetry_equiv_pos_as_xyz
  1  'x, y, z'
loop_
 _atom_type_symbol
 _atom_type_oxidation_number
  H+  1.0
  O2-  -2.0
loop_
 _atom_site_type_symbol
 _atom_site_label
 _atom_site_symmetry_multiplicity
 _atom_site_fract_x
 _atom_site_fract_y
 _atom_site_fract_z
 _atom_site_occupancy
  H+  H0  1  0.62700789  0.49182577  0.48643675  1
  H+  H1  1  0.60655928  0.72504813  0.49511003  1
  H+  H2  1  0.60976838  0.22452610  0.83362039  1
  H+  H3  1  0.20067764  0.94879250  0.79066623  1
  H+  H4  1  0.75918872  0.65950895  0.64750563  1
  H+  H5  1  0.85633062  0.97776871  0.48395566  1
  H+  H6  1  0.96862013  0.37565828  0.98126344  1
  H+  H7  1  0.83835737  0.70758658  0.33505053  1
  H+  H8  1  0.14224867  0.12056797  0.03485483  1
  H+  H9  1  0.34003440  0.99160634  0.81999928  1
  H+  H10  1  0.86767218  0.26885517  0.19787912  1
  H+  H11  1  0.63032917  0.73707260  0.66280263  1
  H+  H12  1  0.09856794  0.12842452  0.33285487  1
  H+  H13  1  0.47455569  0.82945951  0.18279296  1
  H+  H14  1  0.45232681  0.76786461  0.80612628  1
  H+  H15  1  0.61038331  0.13459513  0.01219118  1
  H+  H16  1  0.71608213  0.35510731  0.00360024  1
  H+  H17  1  0.11317818  0.38223758  0.50857390  1
  H+  H18  1  0.60641621  1.00000551  0.30856246  1
  H+  H19  1  0.81711597  0.87463553  0.33575203  1
  H+  H20  1  0.03413641  0.16812364  0.16544092  1
  H+  H21  1  0.40888474  0.78093069  -0.01733985  1
  H+  H22  1  0.42199917  0.35433175  0.93661322  1
  H+  H23  1  0.71973248  0.11096663  0.16918484  1
  H+  H24  1  0.35936323  0.88350272  0.49352808  1
  H+  H25  1  0.08961892  0.41193017  0.44736160  1
  H+  H26  1  0.59375292  0.42377342  0.39501354  1
  H+  H27  1  0.60016855  0.17738306  0.43230185  1
  H+  H28  1  0.15537400  0.13377790  0.80723745  1
  H+  H29  1  0.72530683  0.84128918  0.65630316  1
  H+  H30  1  0.40462367  0.11584027  0.33460973  1
  H+  H31  1  0.14787748  0.28364885  0.99785579  1
  H+  H32  1  0.47580503  0.61339520  0.33200668  1
  H+  H33  1  0.84562942  0.37947925  0.82698794  1
  H+  H34  1  0.63036071  0.24097576  0.49013804  1
  H+  H35  1  0.34219586  0.24340944  0.67366699  1
  H+  H36  1  0.39359089  0.89939995  0.01605696  1
  H+  H37  1  0.67933068  0.58299521  -0.07009812  1
  H+  H38  1  0.86817486  0.72306354  0.82046625  1
  H+  H39  1  0.64823457  0.62545794  0.16835758  1
  H+  H40  1  0.90043085  0.03999480  0.85812940  1
  H+  H41  1  0.89319557  0.06242162  0.59814090  1
  H+  H42  1  0.62888835  0.52067603  0.32330676  1
  H+  H43  1  0.60821497  0.96645460  0.51444341  1
  H+  H44  1  0.47726278  0.11697630  -0.00671536  1
  H+  H45  1  0.40526322  0.61158899  0.16883897  1
  H+  H46  1  0.64261813  0.02612381  1.00626868  1
  H+  H47  1  0.59592262  0.13210136  0.68337902  1
  H+  H48  1  0.64805374  0.77969790  0.98967392  1
  H+  H49  1  0.60546199  0.01175270  0.86018332  1
  H+  H50  1  0.64611543  0.61444473  -0.01335247  1
  H+  H51  1  0.86640694  0.47522240  0.34608114  1
  H+  H52  1  0.25039885  0.13930559  0.19769933  1
  H+  H53  1  -0.01881527  0.87439958  0.45184510  1
  H+  H54  1  0.47877475  0.37345179  -0.00322537  1
  H+  H55  1  0.08117284  0.45533216  0.82774306  1
  H+  H56  1  0.17064423  0.58976912  0.92743616  1
  H+  H57  1  0.41238128  0.62846105  0.83455246  1
  H+  H58  1  0.03377997  0.15042778  0.82668082  1
  H+  H59  1  0.85568983  0.25621862  0.83969236  1
  H+  H60  1  0.49016062  0.61124551  0.83739610  1
  H+  H61  1  0.11863699  0.87522112  0.32142341  1
  H+  H62  1  -0.00491782  0.10693841  0.67287646  1
  H+  H63  1  0.88269974  0.01260199  0.31720700  1
  H+  H64  1  0.86124992  0.64056038  0.48716631  1
  H+  H65  1  0.60082596  0.22341264  0.67882184  1
  H+  H66  1  1.00950270  0.34879690  0.11630894  1
  H+  H67  1  0.61104208  0.38664511  1.00823306  1
  H+  H68  1  0.15647704  0.00491560  0.79982043  1
  H+  H69  1  0.22922884  0.37802749  0.65241079  1
  H+  H70  1  0.38999588  0.02893424  0.49427408  1
  H+  H71  1  0.12345252  0.60941446  0.83276128  1
  H+  H72  1  0.38621163  0.48278246  0.15968585  1
  H+  H73  1  0.37723218  0.60757205  0.52393606  1
  H+  H74  1  0.35955313  0.38903229  0.66174679  1
  H+  H75  1  0.47446243  0.11453020  0.83915983  1
  H+  H76  1  0.27055607  0.88460733  0.49223789  1
  H+  H77  1  0.34522876  0.21859515  0.18979604  1
  H+  H78  1  0.97696176  0.61192629  0.82855745  1
  H+  H79  1  0.74688750  0.39773906  0.51427437  1
  H+  H80  1  0.86687945  0.63450917  0.81262664  1
  H+  H81  1  0.85941302  0.89287933  0.46423228  1
  H+  H82  1  0.02716840  0.50194228  0.21656805  1
  H+  H83  1  0.12236098  0.64710976  0.67491646  1
  H+  H84  1  0.85771645  0.24062396  1.01149844  1
  H+  H85  1  0.15151089  0.06672756  0.58739006  1
  H+  H86  1  0.11411258  0.89385943  0.02114661  1
  H+  H87  1  0.89566285  0.13758254  1.00300787  1
  H+  H88  1  0.39464842  0.52956693  0.99098229  1
  H+  H89  1  0.75394115  0.11645412  0.83767312  1
  H+  H90  1  0.49792367  0.86621634  0.99535232  1
  H+  H91  1  0.13992097  0.78567354  0.00099452  1
  H+  H92  1  0.49378171  0.35175157  0.67837523  1
  H+  H93  1  0.38602909  0.11286034  -0.01221717  1
  H+  H94  1  0.37894323  0.64697331  0.65421993  1
  H+  H95  1  0.97507804  0.11245921  0.50141885  1
  H+  H96  1  0.85551810  0.47431927  0.82710782  1
  H+  H97  1  0.20319040  0.06708520  0.34497214  1
  H+  H98  1  0.22840573  0.67003586  0.23651107  1
  H+  H99  1  0.11561933  1.00191986  0.64513376  1
  H+  H100  1  -0.00839464  0.62566828  -0.01269046  1
  H+  H101  1  0.06937932  0.39133257  0.73312963  1
  H+  H102  1  0.83540561  -0.05915041  1.06901004  1
  H+  H103  1  0.37037078  0.63871634  -0.00345693  1
  H+  H104  1  0.02442713  0.89126947  0.01604730  1
  H+  H105  1  0.64081617  0.36330243  0.32626914  1
  H+  H106  1  0.02141150  0.36568709  0.35964462  1
  H+  H107  1  0.61896260  0.35151820  0.66036726  1
  H+  H108  1  0.53060787  0.63930929  0.99732930  1
  H+  H109  1  0.27241926  0.88407003  0.34118731  1
  H+  H110  1  0.28075600  0.39716349  0.01133438  1
  H+  H111  1  0.23157380  0.11783087  0.49717769  1
  H+  H112  1  0.06357638  0.91301747  0.11637577  1
  H+  H113  1  0.85435781  0.89701125  0.17085974  1
  H+  H114  1  0.40696782  0.83443269  0.56737291  1
  H+  H115  1  0.37006606  0.39686220  0.00907095  1
  H+  H116  1  0.97039429  -0.01464482  0.76562219  1
  H+  H117  1  0.62456953  0.63242501  0.82692901  1
  H+  H118  1  -0.02450573  0.04170258  0.28893218  1
  H+  H119  1  0.02351209  0.85148300  0.33093213  1
  H+  H120  1  0.26299122  0.88439152  0.66736546  1
  H+  H121  1  0.53060149  0.13341055  0.34043764  1
  H+  H122  1  0.15922568  0.82935588  0.56029634  1
  H+  H123  1  0.52666599  0.39459798  0.83005280  1
  H+  H124  1  0.39250175  0.98670657  0.01454836  1
  H+  H125  1  0.57944712  0.16642793  0.77316574  1
  H+  H126  1  0.13195244  0.35956648  0.65742261  1
  H+  H127  1  0.61299504  0.01694625  0.67784519  1
  H+  H128  1  0.16142492  0.84322664  0.94365622  1
  H+  H129  1  0.16224203  0.27491543  0.83421630  1
  H+  H130  1  0.12641499  0.85521586  0.65046633  1
  H+  H131  1  0.39279823  0.29008918  0.85646027  1
  H+  H132  1  0.36220329  0.47295337  0.50223497  1
  H+  H133  1  0.81974107  0.47559484  0.03740527  1
  H+  H134  1  0.61346734  0.71704196  0.83014296  1
  H+  H135  1  0.50743034  0.88983709  0.67865286  1
  H+  H136  1  0.63795768  0.61906603  0.50150440  1
  H+  H137  1  0.22169193  0.35402508  0.50931900  1
  H+  H138  1  0.61932506  0.22437770  0.33475804  1
  H+  H139  1  0.88303417  0.52145162  0.17859889  1
  H+  H140  1  0.10771209  0.72153653  0.82599670  1
  H+  H141  1  0.61662915  0.48473175  0.15702733  1
  H+  H142  1  0.49787479  0.88066484  0.31716531  1
  H+  H143  1  0.88300628  0.37134047  0.66243550  1
  H+  H144  1  0.34941691  0.42203822  0.09917261  1
  H+  H145  1  0.39210439  0.01995835  0.33497357  1
  H+  H146  1  0.27070750  0.63102277  0.50260984  1
  H+  H147  1  0.76205787  0.38753563  0.67508951  1
  H+  H148  1  0.12799661  0.50244512  0.35149420  1
  H+  H149  1  0.64460803  0.52145788  0.83620163  1
  H+  H150  1  0.53107845  0.39108926  0.33622079  1
  H+  H151  1  0.70023055  0.86400700  0.31946583  1
  H+  H152  1  0.38883920  0.52498975  0.62115689  1
  H+  H153  1  0.85675992  0.07744770  0.66168642  1
  H+  H154  1  0.62876554  0.36003501  0.17214019  1
  H+  H155  1  0.38142633  0.76998094  0.51073940  1
  H+  H156  1  0.10679302  0.62339248  0.35073495  1
  H+  H157  1  0.62389594  0.09798446  0.16635932  1
  H+  H158  1  0.96464392  0.87362425  0.18673941  1
  H+  H159  1  0.47964757  0.11773675  0.49587996  1
  H+  H160  1  0.41739442  0.08003234  0.89954509  1
  H+  H161  1  0.76121600  0.38268702  0.16975340  1
  H+  H162  1  0.33315275  0.65577336  0.44503676  1
  H+  H163  1  0.36605663  0.70266979  0.16148195  1
  H+  H164  1  0.63737242  0.76481045  0.14756785  1
  H+  H165  1  -0.02936384  0.86248763  0.82996637  1
  H+  H166  1  0.21903072  0.04913040  0.32023194  1
  H+  H167  1  0.24007272  0.86201791  0.16559845  1
  H+  H168  1  0.57777106  0.66889709  0.40009474  1
  H+  H169  1  0.62933586  0.88987629  1.01132528  1
  H+  H170  1  0.83825343  0.43809180  0.41155028  1
  H+  H171  1  0.84850183  0.95117985  0.66568515  1
  H+  H172  1  0.03219241  0.15634670  0.01650756  1
  H+  H173  1  0.24027174  0.63303873  0.66224258  1
  H+  H174  1  0.62415845  0.95419639  0.17303731  1
  H+  H175  1  0.29414172  0.39233179  0.81461174  1
  H+  H176  1  0.62895462  0.10862230  0.31799090  1
  H+  H177  1  0.15035692  0.28990244  0.17864880  1
  H+  H178  1  0.51971687  0.87881561  0.50779300  1
  H+  H179  1  0.12552654  0.85252177  0.84489100  1
  H+  H180  1  0.36958940  0.75876753  0.33392008  1
  H+  H181  1  0.87313452  0.22766998  0.40219299  1
  H+  H182  1  -0.01448673  0.39121529  0.50817768  1
  H+  H183  1  0.71956651  0.85647328  0.50502228  1
  H+  H184  1  0.14007836  0.11416666  0.49721234  1
  H+  H185  1  0.09026145  0.98102935  0.16894823  1
  H+  H186  1  0.60783855  0.63858884  0.34044102  1
  H+  H187  1  0.90126779  0.83721652  0.35767807  1
  H+  H188  1  0.73026121  0.61554905  0.17377840  1
  H+  H189  1  0.40456641  0.80351101  0.23493701  1
  H+  H190  1  0.03834645  0.33011795  0.12125087  1
  H+  H191  1  0.71922163  0.36285116  0.84453890  1
  H+  H192  1  0.91068515  0.53406054  0.97779154  1
  H+  H193  1  0.40379481  0.28623719  0.32148511  1
  H+  H194  1  0.10317099  0.72132880  0.49687737  1
  H+  H195  1  0.98031266  0.99020742  0.79902306  1
  H+  H196  1  0.09161727  0.19279874  0.07641913  1
  H+  H197  1  0.01189650  0.86797292  0.68142484  1
  H+  H198  1  0.36824388  0.84867621  0.32890215  1
  H+  H199  1  0.84985077  0.13016299  0.83940277  1
  H+  H200  1  0.37375851  0.86458706  0.65979051  1
  H+  H201  1  0.61082059  0.38574732  0.82834169  1
  H+  H202  1  0.31909930  0.93027265  0.09684530  1
  H+  H203  1  0.89092431  0.11777686  0.49114171  1
  H+  H204  1  0.63528585  0.63859103  0.66986201  1
  H+  H205  1  0.02358073  0.14345298  0.34249157  1
  H+  H206  1  1.02134980  0.63026527  0.34432813  1
  H+  H207  1  0.01606282  0.37445616  0.67221468  1
  H+  H208  1  0.12103953  0.98123311  0.47587371  1
  H+  H209  1  0.89255165  0.78493994  0.45503638  1
  H+  H210  1  0.72814731  0.36111684  0.32837854  1
  H+  H211  1  0.32716833  0.17211515  0.91375119  1
  H+  H212  1  0.19711703  0.58523867  0.82465397  1
  H+  H213  1  0.61648821  0.76991604  0.31931275  1
  H+  H214  1  0.40061821  0.38177247  0.16931508  1
  H+  H215  1  0.39546115  0.37219480  0.32485565  1
  H+  H216  1  0.31260966  0.15770388  0.33517665  1
  H+  H217  1  0.09526275  0.47276889  0.19975613  1
  H+  H218  1  0.58999129  0.88233955  0.31432509  1
  H+  H219  1  0.20477077  0.64212100  0.20971849  1
  H+  H220  1  0.54024953  0.40068087  0.48686696  1
  H+  H221  1  0.11255779  0.22379259  0.49710780  1
  H+  H222  1  0.60541579  0.83633421  0.84258967  1
  H+  H223  1  0.23656731  0.11583341  0.66921067  1
  H+  H224  1  0.10367080  0.62827898  0.14930867  1
  H+  H225  1  0.86216384  0.63993842  0.16763935  1
  H+  H226  1  0.51893374  0.63499086  0.49967143  1
  H+  H227  1  0.75768304  0.78402779  0.78661419  1
  H+  H228  1  0.11520828  0.37366273  0.35057226  1
  H+  H229  1  0.18731268  0.43327359  0.17605942  1
  H+  H230  1  0.83478081  0.66857865  0.10700565  1
  H+  H231  1  0.88505668  0.35469889  0.36117354  1
  H+  H232  1  0.36896536  0.14995185  0.85805554  1
  H+  H233  1  0.84610633  0.37751313  0.18182301  1
  H+  H234  1  0.26583605  0.62055985  0.35156340  1
  H+  H235  1  0.89472681  0.77339654  0.99538935  1
  H+  H236  1  0.12579108  0.72328995  0.15968864  1
  H+  H237  1  0.45571022  0.11266811  0.67831841  1
  H+  H238  1  0.87461525  0.84315061  0.83166449  1
  H+  H239  1  0.36328141  0.10591800  0.68093850  1
  H+  H240  1  0.59800095  0.21412873  0.16305747  1
  H+  H241  1  0.75942636  0.21333033  0.44822211  1
  H+  H242  1  0.37690987  0.48668848  0.81552061  1
  H+  H243  1  0.85861332  0.14753494  0.16624387  1
  H+  H244  1  0.49625012  0.61700744  0.17808693  1
  H+  H245  1  0.12103797  0.64254267  0.00169081  1
  H+  H246  1  0.23461697  0.61834820  0.98586095  1
  H+  H247  1  0.77182242  0.91010670  0.16656337  1
  H+  H248  1  0.14675816  0.37006390  0.98243394  1
  H+  H249  1  0.11556613  0.48589715  -0.00979249  1
  H+  H250  1  0.77814520  0.63301657  0.00848309  1
  H+  H251  1  0.27168035  0.14073697  1.01255804  1
  H+  H252  1  0.21249684  0.85771900  0.84437710  1
  H+  H253  1  0.13411089  0.86047179  0.49823171  1
  H+  H254  1  0.24808268  0.78429827  0.19766653  1
  H+  H255  1  0.13874931  0.02879217  1.03849692  1
  H+  H256  1  0.63014533  0.85652260  0.51474765  1
  H+  H257  1  0.13996347  0.76326388  0.32674563  1
  H+  H258  1  0.73061694  0.62491758  0.49748185  1
  H+  H259  1  0.14592504  0.27278615  0.33133448  1
  H+  H260  1  0.35011843  0.97642261  0.67513238  1
  H+  H261  1  0.37627939  0.23533844  0.49376008  1
  H+  H262  1  0.97268505  0.61172244  0.17322002  1
  H+  H263  1  0.88160358  0.37697913  0.99452449  1
  H+  H264  1  0.16513122  0.32909992  0.57167043  1
  H+  H265  1  0.37063884  0.11411221  0.19553255  1
  H+  H266  1  0.13403525  0.61014516  0.50947832  1
  H+  H267  1  0.07773476  -0.00702555  0.29391367  1
  H+  H268  1  0.88521159  0.32266824  0.50104268  1
  H+  H269  1  0.38315153  0.77906383  0.65639336  1
  H+  H270  1  0.62825956  0.11093964  0.51757326  1
  H+  H271  1  0.71675532  0.11652484  0.52314804  1
  H+  H272  1  0.13192579  0.76923919  0.65401071  1
  H+  H273  1  0.40119768  0.37778768  0.50868350  1
  H+  H274  1  0.78218320  0.91108827  1.00716157  1
  H+  H275  1  0.73541575  0.61062012  0.83257734  1
  H+  H276  1  0.89179204  0.04430637  0.16735014  1
  H+  H277  1  0.50689374  0.12758638  0.16353127  1
  H+  H278  1  0.35803890  0.62770746  0.34594170  1
  H+  H279  1  0.91823656  0.57723491  0.60498792  1
  H+  H280  1  0.32854222  0.98649163  0.15542718  1
  H+  H281  1  0.36940879  0.47637406  0.34351953  1
  H+  H282  1  0.45977492  0.37645631  0.56272413  1
  H+  H283  1  0.64109918  0.84744204  0.22684549  1
  H+  H284  1  0.35878495  0.23077740  -0.00349214  1
  H+  H285  1  0.75699230  0.61613823  0.33538465  1
  H+  H286  1  0.24412419  0.13936248  0.83223606  1
  H+  H287  1  0.28213654  0.38529752  0.34572370  1
  H+  H288  1  0.85810565  0.70415813  0.72360320  1
  H+  H289  1  0.43269295  0.35199100  0.23659400  1
  H+  H290  1  0.92554018  0.82999344  0.93567346  1
  H+  H291  1  0.16387537  0.09399455  0.13256072  1
  H+  H292  1  0.81315963  0.13016630  0.73859204  1
  H+  H293  1  0.65965673  0.33116928  0.90445279  1
  H+  H294  1  0.70365159  0.74731670  0.11511735  1
  H+  H295  1  0.86892463  0.63681792  1.00972668  1
  H+  H296  1  0.34235952  0.41930277  0.43954653  1
  H+  H297  1  0.10009193  0.92180003  0.41607122  1
  H+  H298  1  0.18128035  0.33855029  0.27469612  1
  H+  H299  1  0.61917067  0.48039137  0.00400395  1
  H+  H300  1  0.99502010  0.36730141  0.82514382  1
  H+  H301  1  0.59779167  0.90717160  0.07510870  1
  H+  H302  1  0.34961902  0.71143826  0.81610365  1
  H+  H303  1  0.69156963  0.99885477  0.42051470  1
  H+  H304  1  0.69087118  0.60694104  0.59541250  1
  H+  H305  1  0.94658185  0.36118325  0.22032232  1
  H+  H306  1  0.62449817  0.10727948  0.84976767  1
  H+  H307  1  0.74969163  0.10497015  0.68262097  1
  H+  H308  1  0.42002726  0.58162135  0.27148750  1
  H+  H309  1  0.96879579  0.60135662  0.50250821  1
  H+  H310  1  0.88828029  0.52185503  0.66510850  1
  H+  H311  1  0.10334247  0.06231755  0.23972160  1
  H+  H312  1  0.66191618  0.33224842  0.60287761  1
  H+  H313  1  0.25880566  0.13947096  0.73780259  1
  H+  H314  1  0.65524259  0.07792034  0.25208048  1
  H+  H315  1  0.70124033  0.84521707  0.83525622  1
  H+  H316  1  0.59659089  0.67620677  0.05386739  1
  H+  H317  1  0.37261020  0.14426707  0.48649301  1
  H+  H318  1  0.41179274  0.07445323  0.23766419  1
  H+  H319  1  0.80154556  0.87317440  0.75476073  1
  H+  H320  1  0.33067186  0.91215946  0.40215348  1
  H+  H321  1  0.92096833  0.09336259  0.22919091  1
  H+  H322  1  0.82560811  0.41361079  0.08454251  1
  H+  H323  1  0.91837786  0.35882811  0.60069101  1
  H+  H324  1  0.89078801  0.83187821  0.28099590  1
  H+  H325  1  0.49651015  0.38039483  0.17102867  1
  H+  H326  1  0.89839878  0.45655079  0.50512552  1
  H+  H327  1  0.65814932  0.58380621  0.26513816  1
  H+  H328  1  0.55488301  0.90100053  0.74183534  1
  H+  H329  1  0.09837067  0.91766267  0.72166034  1
  H+  H330  1  0.19704781  0.33077784  0.89519942  1
  H+  H331  1  0.17622324  0.59938141  0.60623145  1
  H+  H332  1  0.56412501  0.39788758  0.73009322  1
  H+  H333  1  0.77310349  0.14747639  0.01430242  1
  H+  H334  1  0.08779391  0.03711633  0.91909327  1
  H+  H335  1  0.37012571  0.28399889  0.60858511  1
  H+  H336  1  0.39748215  0.37950796  0.83579939  1
  H+  H337  1  0.02644860  0.63598849  0.67402774  1
  H+  H338  1  0.57338635  0.16005195  0.07001634  1
  H+  H339  1  0.66176621  0.08118208  0.94505039  1
  H+  H340  1  0.08573314  0.11207606  0.66855238  1
  H+  H341  1  0.66087850  0.80932493  0.59645192  1
  H+  H342  1  0.59712761  0.66277053  0.73062291  1
  H+  H343  1  0.35075687  0.44115723  0.71557237  1
  H+  H344  1  0.35896034  0.18812842  0.39975295  1
  H+  H345  1  0.07620267  0.66094017  0.43845089  1
  H+  H346  1  0.24946502  0.36725054  0.18119753  1
  H+  H347  1  0.72498968  1.03212328  0.39988926  1
  H+  H348  1  0.37214263  0.68102184  0.72095137  1
  H+  H349  1  0.13939201  0.54755609  0.28980781  1
  H+  H350  1  0.89265835  0.30397614  0.30639380  1
  H+  H351  1  0.58463370  0.42310558  0.09713151  1
  H+  H352  1  0.07735718  0.07266307  0.91741672  1
  H+  H353  1  0.28876892  0.60240879  0.15409275  1
  H+  H354  1  0.18125099  0.81572399  0.26461677  1
  H+  H355  1  0.08511291  0.16773234  0.43532262  1
  H+  H356  1  0.48825800  0.87059949  0.89421744  1
  H+  H357  1  0.91783863  0.57969199  0.27104846  1
  H+  H358  1  0.30764706  0.92777620  0.76097548  1
  H+  H359  1  0.13773683  0.52260391  0.51424392  1
  H+  H360  1  0.08352266  0.66851089  0.76168414  1
  H+  H361  1  0.65767754  0.32905683  0.23206289  1
  H+  H362  1  0.80230141  0.92065331  0.39215013  1
  H+  H363  1  0.64675869  0.07627863  0.61772095  1
  H+  H364  1  0.82638307  0.65650489  0.42469620  1
  H+  H365  1  0.08529520  0.66761373  0.06124691  1
  H+  H366  1  0.88795902  0.32215700  0.89618617  1
  H+  H367  1  0.92106970  0.59270673  0.88882721  1
  H+  H368  1  0.34141848  0.66574588  0.05652197  1
  H+  H369  1  0.07127805  0.41424019  0.04211979  1
  H+  H370  1  0.07302786  0.16297916  0.75910974  1
  H+  H371  1  0.89276372  0.04693288  1.00315165  1
  H+  H372  1  0.66921242  0.83939145  0.93245052  1
  H+  H373  1  0.92686807  0.10462513  0.91363405  1
  H+  H374  1  0.88218455  0.60482995  0.32890811  1
  H+  H375  1  0.17645119  0.48119265  0.11927993  1
  H+  H376  1  0.12193679  0.15682278  0.16544197  1
  H+  H377  1  0.42539104  0.58592266  0.92868794  1
  H+  H378  1  0.62726546  0.26668106  1.00067389  1
  H+  H379  1  0.83063041  0.18363064  0.10942528  1
  H+  H380  1  0.85343857  0.86129981  0.68019103  1
  H+  H381  1  0.81898788  0.41566950  0.73549433  1
  H+  H382  1  0.65390067  0.38244071  0.50241748  1
  H+  H383  1  0.87689349  0.78327966  0.18533104  1
  O2-  O384  1  0.09542794  0.19883159  0.15299858  1
  O2-  O385  1  0.08239993  0.16302638  0.48052414  1
  O2-  O386  1  0.08844985  0.17455542  0.80416010  1
  O2-  O387  1  0.18593158  0.48743954  0.16308017  1
  O2-  O388  1  0.08727501  0.41685456  0.49246207  1
  O2-  O389  1  0.05685735  0.39540854  0.81465861  1
  O2-  O390  1  0.07988634  0.66570217  0.14160116  1
  O2-  O391  1  0.07184427  0.65915423  0.48386761  1
  O2-  O392  1  0.07948092  0.66230003  0.80819388  1
  O2-  O393  1  0.05805564  0.91830338  0.16131256  1
  O2-  O394  1  0.09084349  0.92032759  0.46071227  1
  O2-  O395  1  0.14257325  0.94392195  0.79240624  1
  O2-  O396  1  0.31361066  0.16399267  0.21120841  1
  O2-  O397  1  0.34397186  0.17901830  0.47350566  1
  O2-  O398  1  0.33782017  0.18174833  0.86876856  1
  O2-  O399  1  0.35552804  0.42130260  0.14561069  1
  O2-  O400  1  0.33977154  0.41439933  0.48488286  1
  O2-  O401  1  0.35319547  0.42939617  0.79583009  1
  O2-  O402  1  0.34645561  0.64556703  0.13978061  1
  O2-  O403  1  0.33309763  0.65760082  0.49041673  1
  O2-  O404  1  0.39685133  0.70666416  0.79863607  1
  O2-  O405  1  0.28588549  0.93594948  0.13167394  1
  O2-  O406  1  0.33090962  0.91516798  0.47664594  1
  O2-  O407  1  0.29075836  0.93877131  0.80214983  1
  O2-  O408  1  0.56778981  0.15361948  0.14857412  1
  O2-  O409  1  0.60090702  0.17967214  0.47760324  1
  O2-  O410  1  0.58045413  0.16367069  0.81914049  1
  O2-  O411  1  0.58406048  0.42295797  0.14350076  1
  O2-  O412  1  0.59983750  0.43085964  0.47052351  1
  O2-  O413  1  0.58556282  0.42008403  0.81162990  1
  O2-  O414  1  0.64405231  0.71743605  0.12928383  1
  O2-  O415  1  0.57534434  0.66415682  0.47881714  1
  O2-  O416  1  0.59258718  0.66015055  0.80945314  1
  O2-  O417  1  0.59467684  0.89174158  0.16154557  1
  O2-  O418  1  0.58251461  0.90686913  0.49924385  1
  O2-  O419  1  0.53226081  0.84890714  0.81639799  1
  O2-  O420  1  0.82491005  0.17659611  0.15475421  1
  O2-  O421  1  0.80301130  0.21157529  0.47439402  1
  O2-  O422  1  0.81326054  0.15131424  0.82103564  1
  O2-  O423  1  0.82440331  0.41186524  0.15960323  1
  O2-  O424  1  0.86283081  0.48341372  0.49192773  1
  O2-  O425  1  0.81736276  0.41338574  0.81456371  1
  O2-  O426  1  0.83097653  0.66915980  0.15254791  1
  O2-  O427  1  0.83422475  0.67181808  0.46911443  1
  O2-  O428  1  0.83679401  0.66623996  0.79958157  1
  O2-  O429  1  0.83095652  0.93178076  0.15177160  1
  O2-  O430  1  0.82129439  0.91832142  0.46704031  1
  O2-  O431  1  0.78887152  0.84520779  0.79665613  1
  O2-  O432  1  0.15511945  0.10309051  0.17584597  1
  O2-  O433  1  0.16990664  0.08129494  0.50822597  1
  O2-  O434  1  0.19552298  0.11045491  0.80256457  1
  O2-  O435  1  0.19134060  0.35035898  0.19672932  1
  O2-  O436  1  0.16157124  0.32400435  0.52368547  1
  O2-  O437  1  0.20991296  0.32830255  0.85197489  1
  O2-  O438  1  0.04773525  0.46309287  0.22829942  1
  O2-  O439  1  0.16904495  0.58529217  0.52476133  1
  O2-  O440  1  0.14949243  0.57532284  0.85106542  1
  O2-  O441  1  0.20559755  0.80250211  0.19222419  1
  O2-  O442  1  0.16105686  0.82767717  0.51427316  1
  O2-  O443  1  0.15301933  0.82079015  0.86119882  1
  O2-  O444  1  0.40424720  0.08289213  0.19384697  1
  O2-  O445  1  0.41734810  0.09143087  0.50269204  1
  O2-  O446  1  0.41364637  0.08643952  0.85436578  1
  O2-  O447  1  0.43422414  0.35244927  0.18895248  1
  O2-  O448  1  0.43741653  0.35189931  0.52264209  1
  O2-  O449  1  0.42707038  0.35428045  0.86019154  1
  O2-  O450  1  0.43562596  0.58259887  0.18890114  1
  O2-  O451  1  0.40869557  0.57578060  0.53716403  1
  O2-  O452  1  0.42973976  0.58819284  0.85233025  1
  O2-  O453  1  0.41228305  0.79716447  0.19063914  1
  O2-  O454  1  0.40926508  0.83194279  0.52146533  1
  O2-  O455  1  0.51416593  0.90432406  0.85608458  1
  O2-  O456  1  0.65799626  0.07164003  0.18163292  1
  O2-  O457  1  0.65663663  0.08108399  0.53641216  1
  O2-  O458  1  0.64916593  0.07293972  0.86807872  1
  O2-  O459  1  0.65614029  0.32685757  0.18649956  1
  O2-  O460  1  0.68551361  0.35414748  0.51880281  1
  O2-  O461  1  0.65792758  0.33034539  0.85925961  1
  O2-  O462  1  0.66688344  0.58636970  0.18502456  1
  O2-  O463  1  0.67114149  0.59076081  0.51449002  1
  O2-  O464  1  0.67732649  0.58225224  0.85234514  1
  O2-  O465  1  0.65257543  0.86048777  0.18149485  1
  O2-  O466  1  0.66115934  0.82249311  0.52314581  1
  O2-  O467  1  0.64715440  0.81742797  0.85907731  1
  O2-  O468  1  0.91878177  0.10354896  0.18442217  1
  O2-  O469  1  0.91204862  0.08287972  0.51100073  1
  O2-  O470  1  0.92451930  0.10075674  0.86741489  1
  O2-  O471  1  0.88385352  0.32122029  0.22333956  1
  O2-  O472  1  0.92594933  0.38123595  0.51539587  1
  O2-  O473  1  0.88534380  0.31875940  0.85118564  1
  O2-  O474  1  0.91450192  0.58293485  0.19203648  1
  O2-  O475  1  0.90611311  0.57162876  0.51718339  1
  O2-  O476  1  0.91593635  0.58374243  0.84419701  1
  O2-  O477  1  0.90222985  0.84171195  0.20281575  1
  O2-  O478  1  0.91957763  0.84462392  0.43854710  1
  O2-  O479  1  0.91536589  0.82654393  0.84985915  1
  O2-  O480  1  0.07198048  0.04207852  0.27995793  1
  O2-  O481  1  0.14418442  0.06376715  0.63235379  1
  O2-  O482  1  0.17568742  0.09225467  1.04622648  1
  O2-  O483  1  0.17812877  0.33533445  0.32022935  1
  O2-  O484  1  0.17038857  0.33960688  0.63777723  1
  O2-  O485  1  0.18267249  0.34291031  0.97950080  1
  O2-  O486  1  0.15491145  0.56175408  0.33275835  1
  O2-  O487  1  0.17951047  0.60947053  0.65066991  1
  O2-  O488  1  0.17258069  0.58929654  0.97307998  1
  O2-  O489  1  0.17124411  0.82235316  0.30879521  1
  O2-  O490  1  0.16055605  0.82833552  0.63529513  1
  O2-  O491  1  0.16423965  0.84616892  0.98856436  1
  O2-  O492  1  0.42844901  0.08007470  0.31896856  1
  O2-  O493  1  0.39512349  0.07886569  0.66443918  1
  O2-  O494  1  0.41808817  0.08298395  0.97614429  1
  O2-  O495  1  0.42865164  0.34664371  0.30502555  1
  O2-  O496  1  0.37847376  0.30062722  0.65138907  1
  O2-  O497  1  0.41824693  0.34723704  0.98226388  1
  O2-  O498  1  0.41485378  0.57959315  0.31645424  1
  O2-  O499  1  0.41473546  0.58514839  0.60394418  1
  O2-  O500  1  0.42604939  0.58947590  0.97455703  1
  O2-  O501  1  0.39420680  0.81486665  0.31180873  1
  O2-  O502  1  0.40804242  0.83957392  0.64192949  1
  O2-  O503  1  0.44527264  0.84142102  0.96949632  1
  O2-  O504  1  0.64998057  0.07091786  0.29857951  1
  O2-  O505  1  0.64555467  0.07886863  0.66273949  1
  O2-  O506  1  0.66766451  0.08614055  0.99063612  1
  O2-  O507  1  0.66953205  0.33142489  0.31051802  1
  O2-  O508  1  0.65674172  0.32718394  0.64768546  1
  O2-  O509  1  0.65773175  0.32836662  0.98606316  1
  O2-  O510  1  0.65618890  0.58262302  0.31048911  1
  O2-  O511  1  0.69890275  0.61494482  0.64006547  1
  O2-  O512  1  0.67667491  0.58262634  0.97569559  1
  O2-  O513  1  0.64131127  0.82835104  0.30064081  1
  O2-  O514  1  0.66230564  0.80644328  0.64246988  1
  O2-  O515  1  0.67586329  0.84141294  0.97802296  1
  O2-  O516  1  0.93465110  0.06258351  0.29893396  1
  O2-  O517  1  0.89014067  0.05114002  0.64221984  1
  O2-  O518  1  0.92750014  0.10903815  0.98798161  1
  O2-  O519  1  0.90693664  0.31505879  0.35033579  1
  O2-  O520  1  0.91430782  0.34438312  0.64411150  1
  O2-  O521  1  0.90493757  0.34292229  0.97613831  1
  O2-  O522  1  0.91687948  0.57764433  0.31646908  1
  O2-  O523  1  0.92649085  0.58126547  0.64927590  1
  O2-  O524  1  0.93003453  0.59480763  0.97153910  1
  O2-  O525  1  0.86286265  0.81164245  0.32188352  1
  O2-  O526  1  0.90921745  0.82156400  0.69388423  1
  O2-  O527  1  0.92863028  0.83290799  0.98038922  1
  O2-  O528  1  0.09317111  0.18655237  0.03087724  1
  O2-  O529  1  0.08477766  0.16858735  0.35500607  1
  O2-  O530  1  0.05448969  0.13700994  0.68927614  1
  O2-  O531  1  0.07870395  0.42188703  -0.00184459  1
  O2-  O532  1  0.08356359  0.40019981  0.37006793  1
  O2-  O533  1  0.07487099  0.39387104  0.68815697  1
  O2-  O534  1  0.08673737  0.66912312  0.01599151  1
  O2-  O535  1  0.08174354  0.66076836  0.36006511  1
  O2-  O536  1  0.08677894  0.67328984  0.69002211  1
  O2-  O537  1  0.08066701  0.92028483  0.03836274  1
  O2-  O538  1  0.08163363  0.90011441  0.33431282  1
  O2-  O539  1  0.07712299  0.90416699  0.67861502  1
  O2-  O540  1  0.32869569  0.16763865  -0.00942400  1
  O2-  O541  1  0.36939271  0.19063665  0.35397670  1
  O2-  O542  1  0.28734883  0.14758505  0.69731999  1
  O2-  O543  1  0.34163762  0.42838343  0.02716145  1
  O2-  O544  1  0.34393103  0.41591272  0.35910515  1
  O2-  O545  1  0.34821593  0.43682506  0.67011527  1
  O2-  O546  1  0.33913287  0.66852350  0.01155984  1
  O2-  O547  1  0.32713672  0.65557856  0.36420590  1
  O2-  O548  1  0.35368799  0.67576237  0.67762686  1
  O2-  O549  1  0.38810885  0.94089471  0.04210106  1
  O2-  O550  1  0.33311912  0.91392574  0.35603259  1
  O2-  O551  1  0.32107026  0.91314813  0.68678653  1
  O2-  O552  1  0.57959845  0.16589835  0.02471870  1
  O2-  O553  1  0.59362815  0.16474198  0.35155451  1
  O2-  O554  1  0.56818014  0.16553852  0.69838929  1
  O2-  O555  1  0.58520426  0.42173168  0.02299325  1
  O2-  O556  1  0.59246732  0.42022096  0.34911772  1
  O2-  O557  1  0.55612341  0.38642126  0.68570651  1
  O2-  O558  1  0.59301767  0.66877610  0.00925697  1
  O2-  O559  1  0.57753561  0.66947158  0.35441101  1
  O2-  O560  1  0.59771125  0.66310580  0.68513595  1
  O2-  O561  1  0.59885200  0.91807320  0.03104681  1
  O2-  O562  1  0.56217391  0.91819375  0.31942519  1
  O2-  O563  1  0.56474274  0.91912278  0.69860936  1
  O2-  O564  1  0.83315897  0.18269157  0.03043847  1
  O2-  O565  1  0.84591287  0.17995970  0.43299529  1
  O2-  O566  1  0.80840216  0.11781451  0.69455296  1
  O2-  O567  1  0.82305331  0.42301722  0.03916718  1
  O2-  O568  1  0.83541135  0.41943623  0.36884261  1
  O2-  O569  1  0.82254162  0.41905341  0.69024099  1
  O2-  O570  1  0.83583635  0.66136308  0.02865733  1
  O2-  O571  1  0.81887363  0.64732627  0.34843230  1
  O2-  O572  1  0.86566740  0.72871805  0.68172633  1
  O2-  O573  1  0.83942152  0.95065008  0.02463617  1
  O2-  O574  1  0.79807552  0.91673200  0.34630487  1
  O2-  O575  1  0.81593797  0.89044226  0.68190838  1
