# generated using pymatgen
data_H2O
_symmetry_space_group_name_H-M   'P 1'
_cell_length_a   17.98312095
_cell_length_b   17.98705983
_cell_length_c   21.98564605
_cell_angle_alpha   90.01726299
_cell_angle_beta   89.98752794
_cell_angle_gamma   120.00638612
_symmetry_Int_Tables_number   1
_chemical_formula_structural   H2O
_chemical_formula_sum   'H384 O192'
_cell_volume   6158.38925668
_cell_formula_units_Z   192
loop_
 _symmetry_equiv_pos_site_id
 _symmetry_equiv_pos_as_xyz
  1  'x, y, z'
loop_
 _atom_type_symbol
 _atom_type_oxidation_number
  H+  1.0
  O2-  -2.0
loop_
 _atom_site_type_symbol
 _atom_site_label
 _atom_site_symmetry_multiplicity
 _atom_site_fract_x
 _atom_site_fract_y
 _atom_site_fract_z
 _atom_site_occupancy
  H+  H0  1  0.38976736  0.59618880  0.33569293  1
  H+  H1  1  0.48247473  0.60572129  0.33489870  1
  H+  H2  1  0.10745283  0.46535196  0.15366187  1
  H+  H3  1  0.11835535  0.97701074  0.68796910  1
  H+  H4  1  0.10805072  0.89187907  0.34048743  1
  H+  H5  1  0.25622706  0.83217704  0.31761623  1
  H+  H6  1  0.84393648  0.20154586  0.16613938  1
  H+  H7  1  0.72222570  0.36585136  0.66066759  1
  H+  H8  1  0.57797570  0.45105433  0.14594344  1
  H+  H9  1  0.12944501  0.26527926  0.66191180  1
  H+  H10  1  0.11146170  0.12267373  0.82941600  1
  H+  H11  1  0.10186785  0.48033725  0.53255554  1
  H+  H12  1  0.14444506  0.89314550  0.02126441  1
  H+  H13  1  0.69602852  0.58716716  0.98019218  1
  H+  H14  1  0.32801529  0.40840245  0.05922129  1
  H+  H15  1  0.67055904  0.28486527  0.50053760  1
  H+  H16  1  0.65783093  0.79170272  0.98976951  1
  H+  H17  1  0.84018467  0.77269640  0.00001049  1
  H+  H18  1  0.29326617  0.18261670  0.17243684  1
  H+  H19  1  0.97067091  0.61014314  0.32714524  1
  H+  H20  1  0.39128307  0.88924442  0.73747093  1
  H+  H21  1  -0.02670537  0.37271909  0.66602884  1
  H+  H22  1  0.16273147  0.31971003  0.89194660  1
  H+  H23  1  0.36975640  0.16510067  0.47956238  1
  H+  H24  1  0.90698082  0.78688684  0.51809138  1
  H+  H25  1  0.73768535  0.10821067  0.31607899  1
  H+  H26  1  1.02270023  0.38362451  1.00502827  1
  H+  H27  1  0.12125959  0.72237531  -0.00217219  1
  H+  H28  1  0.18477339  0.81225531  1.04289750  1
  H+  H29  1  0.36429405  0.30835204  0.33892687  1
  H+  H30  1  0.37888503  0.79526820  0.33585232  1
  H+  H31  1  0.86393574  0.73052877  0.68991362  1
  H+  H32  1  0.46435583  0.60555523  0.50053405  1
  H+  H33  1  0.25154412  0.93993128  0.70910968  1
  H+  H34  1  0.14942006  0.12876110  0.17751682  1
  H+  H35  1  0.65028831  0.26467884  0.83748541  1
  H+  H36  1  0.25680043  0.88321405  0.85253828  1
  H+  H37  1  0.38776646  0.98744718  0.01807586  1
  H+  H38  1  0.17838701  0.58957101  0.78723365  1
  H+  H39  1  0.63085319  0.01794167  0.23315291  1
  H+  H40  1  0.10282397  0.87712602  0.85064009  1
  H+  H41  1  0.99468669  0.12508586  0.16660486  1
  H+  H42  1  0.78984492  0.76006864  0.18221550  1
  H+  H43  1  0.37156334  0.21896617  1.00108041  1
  H+  H44  1  0.63575564  0.47681104  0.33798988  1
  H+  H45  1  0.40479331  0.87147793  1.01228011  1
  H+  H46  1  0.55441939  0.15613554  0.48025375  1
  H+  H47  1  0.78762841  0.90329454  0.15891059  1
  H+  H48  1  0.53477008  0.90395747  1.04141780  1
  H+  H49  1  0.03714452  0.78344708  0.28080692  1
  H+  H50  1  0.58855772  0.46213215  -0.01143478  1
  H+  H51  1  0.95872452  0.84610296  0.85629795  1
  H+  H52  1  0.64806344  0.10564689  0.31770955  1
  H+  H53  1  0.11909093  0.46578857  0.82505417  1
  H+  H54  1  0.87324329  0.37588133  1.01485998  1
  H+  H55  1  0.60783379  0.34369986  0.97779046  1
  H+  H56  1  0.40438520  0.95196385  0.50400569  1
  H+  H57  1  0.22692934  0.61085032  0.16064253  1
  H+  H58  1  0.37272010  0.64810433  0.16831483  1
  H+  H59  1  0.53154098  0.87759900  0.48939245  1
  H+  H60  1  0.87345711  0.46907518  0.16719440  1
  H+  H61  1  -0.01477057  0.36224286  0.32528639  1
  H+  H62  1  0.63427640  0.98135327  0.34249700  1
  H+  H63  1  0.73023560  0.62684000  0.67142769  1
  H+  H64  1  0.14936512  0.03633596  0.32795253  1
  H+  H65  1  0.36917623  0.90383544  0.16977942  1
  H+  H66  1  0.78549743  0.37503288  0.83973514  1
  H+  H67  1  0.84397159  0.89553099  0.66986213  1
  H+  H68  1  0.36157848  0.12881667  0.33341193  1
  H+  H69  1  0.74747196  0.61631368  0.83213988  1
  H+  H70  1  0.45769658  0.30622811  0.82894407  1
  H+  H71  1  0.37384847  0.72609815  0.67263321  1
  H+  H72  1  0.40385147  0.78188477  1.01223910  1
  H+  H73  1  0.01646583  0.12290450  0.35677056  1
  H+  H74  1  0.91240102  0.52761201  0.51505134  1
  H+  H75  1  0.63870425  0.86047002  0.50610126  1
  H+  H76  1  0.12918632  0.48154460  0.50631973  1
  H+  H77  1  0.34511269  0.16552462  0.82077426  1
  H+  H78  1  0.37743921  0.43247996  0.82253050  1
  H+  H79  1  0.09863757  0.63353736  0.34227412  1
  H+  H80  1  0.67400566  0.39752223  0.80938104  1
  H+  H81  1  0.07656213  0.32303070  0.48325948  1
  H+  H82  1  0.04063967  0.64030311  0.50757751  1
  H+  H83  1  0.89745307  0.35805238  0.84187144  1
  H+  H84  1  0.70880973  0.61704535  0.51258233  1
  H+  H85  1  0.23304875  0.35807381  0.31839607  1
  H+  H86  1  0.22173342  0.35597217  0.16801374  1
  H+  H87  1  0.35255765  0.47075361  0.48832026  1
  H+  H88  1  0.13507644  0.11161896  0.66517792  1
  H+  H89  1  0.86043243  -0.01424080  0.81960526  1
  H+  H90  1  0.38478220  0.28538638  0.50338582  1
  H+  H91  1  0.53620379  0.89404385  0.83526832  1
  H+  H92  1  0.52810490  0.63285418  0.82736709  1
  H+  H93  1  0.07731168  0.40235812  0.09811370  1
  H+  H94  1  0.38072257  0.37654422  0.50180854  1
  H+  H95  1  1.01109278  0.91028564  0.18031409  1
  H+  H96  1  0.59107666  0.37212910  0.14645057  1
  H+  H97  1  0.70877235  0.58340186  0.16031317  1
  H+  H98  1  0.63966623  0.86064370  0.83336000  1
  H+  H99  1  0.80023491  0.74902803  0.47049861  1
  H+  H100  1  0.39095725  0.13509077  0.18210795  1
  H+  H101  1  0.27692877  0.36167390  0.82438839  1
  H+  H102  1  0.37060240  0.14273253  0.66052803  1
  H+  H103  1  0.51934777  0.44762699  0.85451195  1
  H+  H104  1  0.14459832  0.87374905  0.17005001  1
  H+  H105  1  0.64417541  0.27083702  0.65500458  1
  H+  H106  1  0.89227308  0.02333338  0.16466220  1
  H+  H107  1  0.83894759  0.93448571  0.09380369  1
  H+  H108  1  0.38269838  0.52056999  0.65670684  1
  H+  H109  1  0.64245523  0.77266689  0.83487122  1
  H+  H110  1  0.80113409  0.77182822  0.14924077  1
  H+  H111  1  0.25279436  0.60897107  0.48084565  1
  H+  H112  1  0.89323774  0.11703335  0.84183793  1
  H+  H113  1  0.08667557  0.17236830  0.40955750  1
  H+  H114  1  0.64597075  0.10993677  0.83963768  1
  H+  H115  1  0.86728029  0.22238303  0.82889821  1
  H+  H116  1  0.85759712  0.89420466  1.00855895  1
  H+  H117  1  0.60075118  0.71907852  0.49812323  1
  H+  H118  1  0.88611006  0.02468403  0.99722103  1
  H+  H119  1  0.92036296  0.08202867  0.27549581  1
  H+  H120  1  0.24820216  0.84958316  0.34642469  1
  H+  H121  1  0.16882133  0.66480340  0.51683519  1
  H+  H122  1  0.29339445  0.89800835  1.01485590  1
  H+  H123  1  0.47162797  0.61008588  0.65671262  1
  H+  H124  1  0.23567599  0.62001288  0.67171824  1
  H+  H125  1  0.62899517  0.96965670  0.11323263  1
  H+  H126  1  0.99656041  0.15043004  0.51518671  1
  H+  H127  1  0.53288305  0.40437043  0.67601272  1
  H+  H128  1  0.74968321  0.64048242  0.32215866  1
  H+  H129  1  0.12392571  0.73990656  0.68578061  1
  H+  H130  1  0.60330460  0.19889424  0.33184537  1
  H+  H131  1  0.81816317  0.92985784  0.72937967  1
  H+  H132  1  0.35150103  0.37922564  -0.00205159  1
  H+  H133  1  0.61405001  0.72870252  0.16060120  1
  H+  H134  1  0.77794090  0.41696369  0.47937596  1
  H+  H135  1  0.21433936  0.32903443  0.49503424  1
  H+  H136  1  0.63904599  0.01818292  0.50872322  1
  H+  H137  1  0.96965819  0.34158917  0.17108010  1
  H+  H138  1  0.43038240  0.11987685  0.41183889  1
  H+  H139  1  0.85007376  0.66381329  -0.01677198  1
  H+  H140  1  0.33367364  0.40845363  0.42950920  1
  H+  H141  1  0.28352340  0.64313502  0.01631259  1
  H+  H142  1  0.62935135  0.34664329  0.31934242  1
  H+  H143  1  0.48396434  0.86377689  0.65662689  1
  H+  H144  1  0.87923174  0.02952438  0.66022193  1
  H+  H145  1  0.22592322  0.11441111  0.66070030  1
  H+  H146  1  0.14670657  0.40498897  0.34002413  1
  H+  H147  1  0.85055290  0.49803566  0.69353024  1
  H+  H148  1  0.38301510  0.36603200  0.65010207  1
  H+  H149  1  0.13478470  0.86694433  0.66765945  1
  H+  H150  1  0.85973700  0.23065877  0.67799727  1
  H+  H151  1  0.14450987  0.17814112  0.50929425  1
  H+  H152  1  0.38023640  0.04112230  0.18179794  1
  H+  H153  1  0.52793119  0.13236645  0.67718986  1
  H+  H154  1  0.92085310  0.08495204  0.93722855  1
  H+  H155  1  0.11038782  0.38777379  0.66699011  1
  H+  H156  1  0.62085272  0.86203359  0.66079211  1
  H+  H157  1  0.86399871  0.63473239  0.82798356  1
  H+  H158  1  0.14288159  0.61006773  0.98949665  1
  H+  H159  1  0.89495165  0.51351036  0.85284607  1
  H+  H160  1  0.29363743  0.66860604  0.82965086  1
  H+  H161  1  0.10704249  0.34395727  0.98267979  1
  H+  H162  1  0.89023854  0.11474184  0.17044560  1
  H+  H163  1  0.39016359  0.28003448  0.64378279  1
  H+  H164  1  0.39531006  0.08664204  0.85937392  1
  H+  H165  1  0.61482158  0.36416316  0.48224749  1
  H+  H166  1  0.93928169  0.57483159  0.58005638  1
  H+  H167  1  0.14492952  0.78805520  0.50911851  1
  H+  H168  1  -0.01825019  0.61498958  0.16526952  1
  H+  H169  1  0.61153689  0.64482008  0.67351678  1
  H+  H170  1  0.11769700  0.00512279  0.85353809  1
  H+  H171  1  0.29226582  0.12606632  0.00584649  1
  H+  H172  1  0.57631321  0.91826850  0.73524784  1
  H+  H173  1  0.37249380  0.46384414  0.33878821  1
  H+  H174  1  0.87000158  0.22396982  0.34353930  1
  H+  H175  1  0.14428716  0.99821927  0.16267596  1
  H+  H176  1  0.73033784  0.10636314  0.50828081  1
  H+  H177  1  0.39374736  0.09349661  0.27913539  1
  H+  H178  1  0.26687876  0.73647416  0.38813595  1
  H+  H179  1  0.14654793  0.04517791  0.50863496  1
  H+  H180  1  0.37231313  0.31030395  0.82124707  1
  H+  H181  1  0.86677185  0.14104730  0.49594684  1
  H+  H182  1  0.88764096  0.58487382  1.01363041  1
  H+  H183  1  0.64919023  0.60166280  0.82675552  1
  H+  H184  1  0.08372238  0.67897801  0.78403360  1
  H+  H185  1  0.02233289  0.63381340  0.84246250  1
  H+  H186  1  0.88310627  0.34435157  0.17885490  1
  H+  H187  1  0.66502804  0.88566755  0.17650055  1
  H+  H188  1  0.89536197  0.50106690  0.00827110  1
  H+  H189  1  0.48877698  0.88334595  0.19022596  1
  H+  H190  1  0.23574176  0.87293341  0.50534891  1
  H+  H191  1  0.63252738  0.13816117  0.49388768  1
  H+  H192  1  0.40614819  1.01405533  0.34480156  1
  H+  H193  1  0.66335739  0.31990337  0.89825040  1
  H+  H194  1  0.04625113  0.26104634  0.94567623  1
  H+  H195  1  0.52423067  0.14295535  0.16268449  1
  H+  H196  1  0.52068363  0.44854743  0.82033651  1
  H+  H197  1  0.83271258  0.16727519  0.73541402  1
  H+  H198  1  0.04009990  0.90535226  0.49852877  1
  H+  H199  1  0.75778153  0.84859793  0.49370838  1
  H+  H200  1  0.37909321  0.52008339  -0.00271931  1
  H+  H201  1  0.35771006  0.95412640  0.85177915  1
  H+  H202  1  -0.02097818  0.62320169  0.67651069  1
  H+  H203  1  0.85979181  0.61465567  0.15030182  1
  H+  H204  1  0.84863638  0.21938295  0.49667004  1
  H+  H205  1  0.20882608  0.62779984  0.32015056  1
  H+  H206  1  0.41970807  0.12900984  0.00326737  1
  H+  H207  1  0.71131345  0.12176567  -0.00302852  1
  H+  H208  1  0.13737853  0.62204279  0.83516473  1
  H+  H209  1  0.30368582  0.95202895  0.77153073  1
  H+  H210  1  0.86593563  0.38486026  0.32413383  1
  H+  H211  1  0.63898596  0.77130405  0.32896268  1
  H+  H212  1  0.13217344  0.35746220  0.16798581  1
  H+  H213  1  0.11438556  0.73106650  0.15212784  1
  H+  H214  1  0.89203212  0.62698059  0.67164864  1
  H+  H215  1  0.21168447  0.08381905  0.84980489  1
  H+  H216  1  0.12956330  0.77136076  0.86811043  1
  H+  H217  1  0.45087259  0.32693025  0.16257293  1
  H+  H218  1  0.87384116  0.75520502  0.84926762  1
  H+  H219  1  0.92329669  0.58841137  0.22638107  1
  H+  H220  1  0.41672168  0.57636074  0.23403637  1
  H+  H221  1  0.77781699  0.13246319  0.83062638  1
  H+  H222  1  0.30470379  0.67472299  0.40130410  1
  H+  H223  1  0.76529255  0.10110263  0.15783855  1
  H+  H224  1  0.73149168  0.85745970  0.32826080  1
  H+  H225  1  0.02000939  0.12404450  0.01260188  1
  H+  H226  1  0.85743949  0.13002086  0.00567111  1
  H+  H227  1  0.14964426  0.35558724  0.82979923  1
  H+  H228  1  0.13498185  0.11589192  0.33350666  1
  H+  H229  1  0.91964296  0.57116287  0.91231396  1
  H+  H230  1  0.60038724  0.72772760  0.67297095  1
  H+  H231  1  0.72828191  0.11160160  0.66200931  1
  H+  H232  1  0.18219116  0.10528224  0.23774588  1
  H+  H233  1  0.39268423  0.63395225  0.84362720  1
  H+  H234  1  0.87926155  0.73886296  0.33888299  1
  H+  H235  1  0.62636117  -0.02163486  0.82571152  1
  H+  H236  1  0.13403011  0.53219236  0.32497926  1
  H+  H237  1  0.13828692  0.60899598  0.15389634  1
  H+  H238  1  0.77998659  0.38832488  0.16848976  1
  H+  H239  1  0.36011330  0.46550763  0.16198238  1
  H+  H240  1  0.83262249  0.16267830  0.40218714  1
  H+  H241  1  0.12166527  0.65025488  0.68789247  1
  H+  H242  1  0.59595347  0.24949473  -0.01941189  1
  H+  H243  1  0.88443186  0.37176074  0.66925617  1
  H+  H244  1  0.41192085  0.79934059  0.85765975  1
  H+  H245  1  0.08841656  0.71774379  0.33900977  1
  H+  H246  1  0.10800006  0.22933223  0.16149298  1
  H+  H247  1  0.43115503  0.90395558  0.32956515  1
  H+  H248  1  0.89059454  0.12296823  0.66399414  1
  H+  H249  1  0.26744789  0.16333354  0.33997698  1
  H+  H250  1  0.15644091  0.31502995  0.59916007  1
  H+  H251  1  0.33078521  0.59438025  0.46907659  1
  H+  H252  1  0.88563703  0.11038291  0.33299651  1
  H+  H253  1  0.98431985  0.35271757  0.83942669  1
  H+  H254  1  -0.04865230  0.33395693  0.50554778  1
  H+  H255  1  0.02817157  0.89371898  0.68605251  1
  H+  H256  1  1.02097141  0.13362081  0.67561563  1
  H+  H257  1  0.35034786  0.84667845  0.73514085  1
  H+  H258  1  0.61708805  0.64187600  -0.00124422  1
  H+  H259  1  0.70001494  0.43768017  0.20795964  1
  H+  H260  1  0.61306884  -0.00284972  1.02606629  1
  H+  H261  1  -0.01336514  0.87924146  0.33423548  1
  H+  H262  1  0.59917095  0.62880512  0.50169147  1
  H+  H263  1  0.89719220  0.86578266  0.51064220  1
  H+  H264  1  0.17015941  0.33889566  0.26207374  1
  H+  H265  1  0.88214021  0.52316365  0.31418023  1
  H+  H266  1  0.46032227  0.35043204  0.97886852  1
  H+  H267  1  0.47366670  0.61034965  0.17424331  1
  H+  H268  1  0.68252039  0.49102935  0.80467091  1
  H+  H269  1  0.40413355  0.78562958  0.18061905  1
  H+  H270  1  0.63535715  0.54334546  0.67279326  1
  H+  H271  1  0.37113988  0.03658380  0.69099663  1
  H+  H272  1  0.35219458  0.37233977  0.16024436  1
  H+  H273  1  0.60818351  -0.02146874  0.67475048  1
  H+  H274  1  0.13001726  0.90828777  0.49815990  1
  H+  H275  1  0.53409475  0.12630982  0.83232520  1
  H+  H276  1  0.39058626  0.83378330  0.49426868  1
  H+  H277  1  0.86810187  0.88705956  0.34077995  1
  H+  H278  1  0.14822292  0.10974850  1.00325688  1
  H+  H279  1  -0.01942155  0.11252116  0.84167945  1
  H+  H280  1  0.88728864  0.26288178  -0.00489403  1
  H+  H281  1  0.77273870  0.89476811  0.81788972  1
  H+  H282  1  0.35721527  0.53657963  0.85503711  1
  H+  H283  1  0.61636511  0.13133538  0.67273892  1
  H+  H284  1  0.71326368  0.33954513  0.31362074  1
  H+  H285  1  0.60823387  0.63697267  0.15783731  1
  H+  H286  1  0.96726292  0.94962439  0.64137697  1
  H+  H287  1  0.12024766  0.21588992  0.82502667  1
  H+  H288  1  0.34989011  0.18566295  0.71472251  1
  H+  H289  1  0.71016831  0.67745554  0.27673656  1
  H+  H290  1  0.08265310  0.15929169  0.73452144  1
  H+  H291  1  0.40434238  0.04676431  0.62190324  1
  H+  H292  1  0.17131480  0.47506219  0.39279150  1
  H+  H293  1  0.22912185  0.86647208  0.17586513  1
  H+  H294  1  0.16456644  0.83003464  0.92860877  1
  H+  H295  1  0.67872359  0.83806778  0.23253354  1
  H+  H296  1  0.41758278  0.59070731  0.94501373  1
  H+  H297  1  0.26584993  0.37765117  0.66658245  1
  H+  H298  1  0.84065026  0.41934094  0.78096383  1
  H+  H299  1  0.92657451  0.32348885  0.26602902  1
  H+  H300  1  0.71121886  0.86569860  0.66058516  1
  H+  H301  1  0.90200007  0.32648125  0.56718729  1
  H+  H302  1  0.02969382  0.63082195  0.00177114  1
  H+  H303  1  0.40204702  0.57580766  0.55798197  1
  H+  H304  1  0.11553761  0.47092911  0.00456950  1
  H+  H305  1  0.17916235  0.84895180  0.61083075  1
  H+  H306  1  0.09057462  0.41229749  0.76327480  1
  H+  H307  1  0.89027308  0.82330676  0.94049559  1
  H+  H308  1  0.84602040  0.40504117  0.07640128  1
  H+  H309  1  0.08553705  0.67550139  0.44167984  1
  H+  H310  1  0.35377202  0.69076547  0.77175260  1
  H+  H311  1  0.11039117  0.93383450  0.10354566  1
  H+  H312  1  0.65196191  0.56390000  0.91599220  1
  H+  H313  1  0.60434629  0.43323602  0.72905223  1
  H+  H314  1  0.32798094  0.40000996  0.72432316  1
  H+  H315  1  0.30584903  0.07121604  0.78655386  1
  H+  H316  1  0.80696273  0.50442125  0.44639976  1
  H+  H317  1  0.55759317  0.40036574  0.04838108  1
  H+  H318  1  0.07821728  0.16367683  0.10220843  1
  H+  H319  1  0.49912251  1.03836112  0.35994715  1
  H+  H320  1  0.05668362  0.36384332  0.42699776  1
  H+  H321  1  0.59897940  0.92067265  0.43399535  1
  H+  H322  1  0.32466467  0.19915519  0.40023730  1
  H+  H323  1  0.93665768  0.86684188  0.60216070  1
  H+  H324  1  0.42363665  0.81514225  0.55638019  1
  H+  H325  1  0.83134369  0.42081284  0.37685163  1
  H+  H326  1  0.66236681  0.34350486  0.23021057  1
  H+  H327  1  0.39140123  0.85189835  0.64665387  1
  H+  H328  1  0.39621097  0.05811347  0.46674160  1
  H+  H329  1  0.44978163  0.85107604  0.91938249  1
  H+  H330  1  0.39352109  0.94527858  0.43179352  1
  H+  H331  1  0.57864596  0.66261867  0.76496518  1
  H+  H332  1  0.12950938  0.81757688  0.25436055  1
  H+  H333  1  0.68329871  0.84667038  0.92939115  1
  H+  H334  1  0.62851397  0.89036787  0.34425135  1
  H+  H335  1  0.55583188  0.15538495  0.09538355  1
  H+  H336  1  0.13821709  0.97906175  0.01536264  1
  H+  H337  1  0.16859426  0.07830196  0.94128690  1
  H+  H338  1  0.58779817  0.15698089  0.76887446  1
  H+  H339  1  0.11787516  0.48081395  0.67202333  1
  H+  H340  1  0.65703181  0.56472579  0.22182027  1
  H+  H341  1  0.93721017  0.86042561  0.27065756  1
  H+  H342  1  0.10414388  0.21280498  0.00904698  1
  H+  H343  1  0.81813501  0.88054197  0.43330907  1
  H+  H344  1  0.83600705  0.66745335  0.75144587  1
  H+  H345  1  0.65799139  0.82752227  0.56848728  1
  H+  H346  1  0.41609802  0.34760436  0.56800380  1
  H+  H347  1  0.59763731  0.67677202  0.05988351  1
  H+  H348  1  0.09734920  0.93237129  0.40367313  1
  H+  H349  1  0.82490274  0.68753282  0.43599525  1
  H+  H350  1  0.36908808  0.63723994  0.01622252  1
  H+  H351  1  0.26562501  0.71005661  0.54095505  1
  H+  H352  1  0.65893616  0.59044879  0.57492809  1
  H+  H353  1  0.58874209  0.40355628  0.38735279  1
  H+  H354  1  0.82695176  0.15673281  0.06538521  1
  H+  H355  1  0.54405595  0.39238225  0.48425169  1
  H+  H356  1  0.36718596  0.63458886  0.67701089  1
  H+  H357  1  0.86127533  0.97220598  0.34580629  1
  H+  H358  1  0.66881260  0.08060030  0.90166060  1
  H+  H359  1  0.61695141  0.11250434  0.99112471  1
  H+  H360  1  0.76523070  0.45219945  0.73520432  1
  H+  H361  1  0.57968637  0.66249756  0.40715729  1
  H+  H362  1  0.61647222  0.63968072  0.34701469  1
  H+  H363  1  0.18153014  0.58178086  0.93504294  1
  H+  H364  1  0.27787560  0.15647195  0.50086498  1
  H+  H365  1  0.92040135  0.90870209  0.17728662  1
  H+  H366  1  0.91947100  0.32291328  0.93508096  1
  H+  H367  1  0.60910613  0.16166547  0.39621711  1
  H+  H368  1  0.87080642  0.64487437  0.33866471  1
  H+  H369  1  0.39547924  0.30305186  0.92362078  1
  H+  H370  1  0.67030396  0.07980386  0.60113230  1
  H+  H371  1  0.34970322  0.68281376  0.10882061  1
  H+  H372  1  0.34244631  0.93010006  0.10826545  1
  H+  H373  1  0.77210632  0.90182339  0.00538563  1
  H+  H374  1  0.44875703  0.08256971  0.91581350  1
  H+  H375  1  0.81732987  0.64342552  0.05377005  1
  H+  H376  1  0.68634284  0.33992771  0.56111020  1
  H+  H377  1  0.17146783  0.09352165  0.57246935  1
  H+  H378  1  0.42256463  0.84311178  0.26465764  1
  H+  H379  1  0.08626573  0.67038435  0.09249644  1
  H+  H380  1  0.18014538  0.60705096  0.61321042  1
  H+  H381  1  0.84348463  0.69361413  0.14564211  1
  H+  H382  1  0.93158271  0.10559897  0.56951985  1
  H+  H383  1  0.07890387  0.90422053  0.78670055  1
  O2-  O384  1  0.07485182  0.16583967  0.14845247  1
  O2-  O385  1  0.11611799  0.20881795  0.49059208  1
  O2-  O386  1  0.08500511  0.15545330  0.81103647  1
  O2-  O387  1  0.07537058  0.40216674  0.14355426  1
  O2-  O388  1  0.03026919  0.32742097  0.46292347  1
  O2-  O389  1  0.09286410  0.40686116  0.80874366  1
  O2-  O390  1  0.08225530  0.67014324  0.13782995  1
  O2-  O391  1  0.09614465  0.68441787  0.48634472  1
  O2-  O392  1  0.08428817  0.67095381  0.82895474  1
  O2-  O393  1  0.10833010  0.93715095  0.15083340  1
  O2-  O394  1  0.10018933  0.93872721  0.48269626  1
  O2-  O395  1  0.07303822  0.90563260  0.83136570  1
  O2-  O396  1  0.35412281  0.21204504  0.15667326  1
  O2-  O397  1  0.33557139  0.19476002  0.48146160  1
  O2-  O398  1  0.31121692  0.10206323  0.82495536  1
  O2-  O399  1  0.32586981  0.40607651  0.14575035  1
  O2-  O400  1  0.32610431  0.40869381  0.47485324  1
  O2-  O401  1  0.33391771  0.37915779  0.80374629  1
  O2-  O402  1  0.35077677  0.68646013  0.15460237  1
  O2-  O403  1  0.28382971  0.59799148  0.44770029  1
  O2-  O404  1  0.35443919  0.69527058  0.81719464  1
  O2-  O405  1  0.33560471  0.92927771  0.15407479  1
  O2-  O406  1  0.36213327  0.92426334  0.47164911  1
  O2-  O407  1  0.31040486  0.90917778  0.82752637  1
  O2-  O408  1  0.57637736  0.16448469  0.13794832  1
  O2-  O409  1  0.61575813  0.17770026  0.47282068  1
  O2-  O410  1  0.59303036  0.15805355  0.81412871  1
  O2-  O411  1  0.55170137  0.39136059  0.13058034  1
  O2-  O412  1  0.56960046  0.36749705  0.45807651  1
  O2-  O413  1  0.68178315  0.44356972  0.78004430  1
  O2-  O414  1  0.57778867  0.66814688  0.14720791  1
  O2-  O415  1  0.56971760  0.65880095  0.48197273  1
  O2-  O416  1  0.58632976  0.66185472  0.81004282  1
  O2-  O417  1  0.66373284  0.98626273  0.15669191  1
  O2-  O418  1  0.59324781  0.91664481  0.48043014  1
  O2-  O419  1  0.59080358  0.91863070  0.80968909  1
  O2-  O420  1  0.82557253  0.14408943  0.14764054  1
  O2-  O421  1  0.82610343  0.15946489  0.47966445  1
  O2-  O422  1  0.83725228  0.16248956  0.81235409  1
  O2-  O423  1  0.84044229  0.40669601  0.15722454  1
  O2-  O424  1  0.82630324  0.46357411  0.45467835  1
  O2-  O425  1  0.84711889  0.40939401  0.82498877  1
  O2-  O426  1  0.82073665  0.63450430  0.13189712  1
  O2-  O427  1  0.81279820  0.70144492  0.47709670  1
  O2-  O428  1  0.83399190  0.66396116  0.81298337  1
  O2-  O429  1  0.84612623  0.93949233  0.14080497  1
  O2-  O430  1  0.81031688  0.85321919  0.47408254  1
  O2-  O431  1  0.82775805  0.93210077  0.79592996  1
  O2-  O432  1  0.18958699  0.11035824  0.19221779  1
  O2-  O433  1  0.17713757  0.10380644  0.52742393  1
  O2-  O434  1  0.15300310  0.06842894  0.86380215  1
  O2-  O435  1  0.16075843  0.32503106  0.18322298  1
  O2-  O436  1  0.15755144  0.29587158  0.51622925  1
  O2-  O437  1  0.17839438  0.32535692  0.84776335  1
  O2-  O438  1  0.16447664  0.57225329  0.15707227  1
  O2-  O439  1  0.21339255  0.65422564  0.53707722  1
  O2-  O440  1  0.17296459  0.59190382  0.83130329  1
  O2-  O441  1  0.16593269  0.83402641  0.18451989  1
  O2-  O442  1  0.17869365  0.84925498  0.52390317  1
  O2-  O443  1  0.15662322  0.83129130  0.88350613  1
  O2-  O444  1  0.41008878  0.09817346  0.20194628  1
  O2-  O445  1  0.43188976  0.11920451  0.45673569  1
  O2-  O446  1  0.43858541  0.07061127  0.87093718  1
  O2-  O447  1  0.39298224  0.29890719  0.18293236  1
  O2-  O448  1  0.41501726  0.34844892  0.51893671  1
  O2-  O449  1  0.39615394  0.27435756  0.83703976  1
  O2-  O450  1  0.41298667  0.57781914  0.18921097  1
  O2-  O451  1  0.40191940  0.57172748  0.51277251  1
  O2-  O452  1  0.41031485  0.59148652  0.85733520  1
  O2-  O453  1  0.42749198  0.84454523  0.20037534  1
  O2-  O454  1  0.41859518  0.80385482  0.51175675  1
  O2-  O455  1  0.45076760  0.85678132  0.87433249  1
  O2-  O456  1  0.59659055  -0.01784883  0.19771066  1
  O2-  O457  1  0.66913293  0.07873513  0.52433952  1
  O2-  O458  1  0.67716112  0.08116013  0.85667329  1
  O2-  O459  1  0.68068742  0.38020185  0.19215716  1
  O2-  O460  1  0.69037754  0.34411280  0.51527901  1
  O2-  O461  1  0.68202227  0.32455807  0.85350774  1
  O2-  O462  1  0.65000237  0.55984318  0.17722762  1
  O2-  O463  1  0.65040942  0.58416199  0.52991969  1
  O2-  O464  1  0.68077632  0.57452207  0.84355668  1
  O2-  O465  1  0.68203143  0.84254687  0.18705785  1
  O2-  O466  1  0.66115351  0.82359399  0.52312887  1
  O2-  O467  1  0.67316331  0.83368439  0.84832229  1
  O2-  O468  1  0.92595695  0.08746701  0.18367175  1
  O2-  O469  1  0.93558950  0.11160489  0.52455056  1
  O2-  O470  1  0.92188089  0.08636358  0.85951743  1
  O2-  O471  1  0.91107973  0.30997026  0.19001099  1
  O2-  O472  1  0.89448549  0.31917567  0.52285234  1
  O2-  O473  1  0.92529033  0.32425890  0.85638633  1
  O2-  O474  1  0.92095884  0.58168430  0.18110614  1
  O2-  O475  1  0.96151496  0.56536135  0.54126951  1
  O2-  O476  1  0.92357989  0.57436196  0.86720494  1
  O2-  O477  1  0.95670652  0.89450630  0.20273885  1
  O2-  O478  1  0.93767342  0.84871054  0.52955270  1
  O2-  O479  1  0.89907819  0.81260489  0.87076141  1
  O2-  O480  1  0.17318722  0.09649106  0.31340461  1
  O2-  O481  1  0.16425476  0.07956989  0.65001018  1
  O2-  O482  1  0.18014946  0.08312710  0.98600123  1
  O2-  O483  1  0.17502275  0.34589862  0.30706254  1
  O2-  O484  1  0.15930818  0.32456076  0.64363045  1
  O2-  O485  1  0.10592586  0.29493882  0.95897731  1
  O2-  O486  1  0.14801103  0.58983464  0.31006660  1
  O2-  O487  1  0.17456949  0.59280938  0.65731956  1
  O2-  O488  1  0.17398107  0.57808094  0.97908315  1
  O2-  O489  1  0.09594807  0.80349061  0.29403253  1
  O2-  O490  1  0.17523724  0.84631152  0.65579976  1
  O2-  O491  1  0.19261753  0.83593735  1.00205657  1
  O2-  O492  1  0.38177680  0.08753002  0.32404103  1
  O2-  O493  1  0.41411091  0.07927894  0.65933372  1
  O2-  O494  1  0.45241976  0.09747147  0.99084000  1
  O2-  O495  1  0.39675793  0.37201801  0.33013468  1
  O2-  O496  1  0.41709811  0.34132828  0.63087814  1
  O2-  O497  1  0.39737957  0.31622779  0.96714155  1
  O2-  O498  1  0.42160433  0.57036603  0.31866595  1
  O2-  O499  1  0.41028381  0.58068687  0.64183358  1
  O2-  O500  1  0.40948969  0.58344522  0.98922142  1
  O2-  O501  1  0.42476759  0.84781018  0.31331930  1
  O2-  O502  1  0.42599877  0.82612732  0.63546291  1
  O2-  O503  1  0.43929424  0.84376356  1.00115711  1
  O2-  O504  1  0.67760344  0.07555098  0.30056511  1
  O2-  O505  1  0.66761799  0.07970497  0.64684663  1
  O2-  O506  1  0.65304315  0.08654166  0.97977736  1
  O2-  O507  1  0.65158733  0.30904597  0.30243436  1
  O2-  O508  1  0.67120738  0.32830789  0.63582617  1
  O2-  O509  1  0.63446358  0.30933963  0.96526070  1
  O2-  O510  1  0.69413392  0.62535485  0.30000701  1
  O2-  O511  1  0.67099549  0.60197366  0.65403908  1
  O2-  O512  1  0.63857917  0.55972277  0.96111629  1
  O2-  O513  1  0.67194024  0.82938821  0.31060060  1
  O2-  O514  1  0.65022307  0.83087870  0.64572046  1
  O2-  O515  1  0.68373534  0.85168864  0.97435029  1
  O2-  O516  1  0.91480506  0.07738970  0.31997265  1
  O2-  O517  1  0.92002621  0.09133132  0.64970195  1
  O2-  O518  1  0.92082221  0.08708950  0.98288580  1
  O2-  O519  1  0.92560565  0.33022409  0.31153402  1
  O2-  O520  1  0.91139582  0.33964688  0.65449334  1
  O2-  O521  1  0.92152914  0.32389459  0.98052024  1
  O2-  O522  1  0.91380943  0.58632415  0.30558768  1
  O2-  O523  1  0.92053601  0.59320106  0.65872934  1
  O2-  O524  1  0.92187944  0.56442035  0.99286454  1
  O2-  O525  1  0.92853506  0.84366461  0.31549014  1
  O2-  O526  1  0.94053743  0.88746255  0.64557914  1
  O2-  O527  1  0.88508358  0.82919440  0.98646981  1
  O2-  O528  1  0.08048763  0.15609726  0.02930845  1
  O2-  O529  1  0.07504159  0.14045577  0.37129306  1
  O2-  O530  1  0.08300318  0.16255825  0.68879127  1
  O2-  O531  1  0.08409648  0.41013169  0.01895061  1
  O2-  O532  1  0.12535173  0.43979823  0.36403196  1
  O2-  O533  1  0.08425160  0.41973895  0.68587883  1
  O2-  O534  1  0.09204107  0.66146580  0.01298276  1
  O2-  O535  1  0.06839932  0.66282895  0.36135381  1
  O2-  O536  1  0.09251278  0.68091825  0.70354078  1
  O2-  O537  1  0.11234404  0.92238577  0.03591550  1
  O2-  O538  1  0.09231584  0.93279881  0.35840663  1
  O2-  O539  1  0.08715378  0.91644633  0.70264310  1
  O2-  O540  1  0.35426897  0.16009175  0.01562776  1
  O2-  O541  1  0.32813498  0.20187331  0.35528095  1
  O2-  O542  1  0.34162398  0.17685687  0.67090582  1
  O2-  O543  1  0.32692641  0.41351442  0.01457140  1
  O2-  O544  1  0.34024876  0.40257525  0.35355414  1
  O2-  O545  1  0.32761832  0.40785391  0.67961794  1
  O2-  O546  1  0.34282348  0.67242886  0.03227619  1
  O2-  O547  1  0.30364342  0.71670221  0.37033602  1
  O2-  O548  1  0.34222903  0.66960360  0.69389346  1
  O2-  O549  1  0.35412750  0.92780905  0.03349264  1
  O2-  O550  1  0.43967999  0.98760266  0.36219604  1
  O2-  O551  1  0.29721877  0.98504355  0.73441204  1
  O2-  O552  1  0.54214618  0.14898269  0.01190172  1
  O2-  O553  1  0.59147422  0.14489624  0.35283394  1
  O2-  O554  1  0.58870142  0.16321837  0.69019898  1
  O2-  O555  1  0.55787459  0.40056122  0.00325932  1
  O2-  O556  1  0.59916141  0.41514410  0.34247538  1
  O2-  O557  1  0.56831316  0.45005762  0.70472760  1
  O2-  O558  1  0.62802335  0.69412865  0.02075958  1
  O2-  O559  1  0.58036769  0.66357852  0.36100707  1
  O2-  O560  1  0.57180319  0.66640477  0.68666622  1
  O2-  O561  1  0.59288278  0.94884605  0.05565855  1
  O2-  O562  1  0.60488503  0.92438010  0.36297763  1
  O2-  O563  1  0.57284369  0.91759765  0.68917244  1
  O2-  O564  1  0.82719430  0.16079343  0.02042583  1
  O2-  O565  1  0.83690180  0.16285097  0.35639513  1
  O2-  O566  1  0.83198754  0.16905385  0.68970006  1
  O2-  O567  1  0.84946677  0.41108784  0.03146415  1
  O2-  O568  1  0.83113958  0.41301081  0.33214960  1
  O2-  O569  1  0.80830861  0.44206005  0.71308350  1
  O2-  O570  1  0.80083187  0.64204559  0.01031448  1
  O2-  O571  1  0.84402055  0.67837924  0.35424437  1
  O2-  O572  1  0.83545555  0.66985685  0.70030344  1
  O2-  O573  1  0.83312199  0.93141922  0.02437553  1
  O2-  O574  1  0.83173794  0.91014389  0.35744483  1
  O2-  O575  1  0.81335387  0.92589864  0.68181408  1
