# generated using pymatgen
data_H2O
_symmetry_space_group_name_H-M   'P 1'
_cell_length_a   17.99201604
_cell_length_b   17.99660064
_cell_length_c   22.00803786
_cell_angle_alpha   90.01232286
_cell_angle_beta   89.99080010
_cell_angle_gamma   120.00296819
_symmetry_Int_Tables_number   1
_chemical_formula_structural   H2O
_chemical_formula_sum   'H384 O192'
_cell_volume   6171.19491955
_cell_formula_units_Z   192
loop_
 _symmetry_equiv_pos_site_id
 _symmetry_equiv_pos_as_xyz
  1  'x, y, z'
loop_
 _atom_type_symbol
 _atom_type_oxidation_number
  H+  1.0
  O2-  -2.0
loop_
 _atom_site_type_symbol
 _atom_site_label
 _atom_site_symmetry_multiplicity
 _atom_site_fract_x
 _atom_site_fract_y
 _atom_site_fract_z
 _atom_site_occupancy
  H+  H0  1  0.13269753  0.99753348  0.35505329  1
  H+  H1  1  0.35000094  0.47242042  0.00968483  1
  H+  H2  1  0.53173871  0.90404084  1.01846295  1
  H+  H3  1  0.49691254  0.10948914  0.51317923  1
  H+  H4  1  0.46946981  0.60670530  0.99373615  1
  H+  H5  1  0.66203512  0.11925012  0.67197033  1
  H+  H6  1  0.86122997  0.23456599  0.00150598  1
  H+  H7  1  0.22484265  0.36043475  1.00344039  1
  H+  H8  1  0.48604140  0.34338151  0.16923136  1
  H+  H9  1  0.18613185  0.83230363  1.01449021  1
  H+  H10  1  0.41523918  0.78456436  0.85713350  1
  H+  H11  1  0.36665246  0.22920136  0.82714385  1
  H+  H12  1  0.59219550  0.73577563  0.82564633  1
  H+  H13  1  0.37186527  0.47539586  0.49535125  1
  H+  H14  1  0.53294627  0.15232460  0.83025374  1
  H+  H15  1  0.28211805  0.14119523  0.14363798  1
  H+  H16  1  0.98377873  0.87513369  0.51467218  1
  H+  H17  1  0.10357251  0.88252780  0.66458130  1
  H+  H18  1  0.08447938  0.63723065  0.67531453  1
  H+  H19  1  0.58818699  0.75493208  0.14029776  1
  H+  H20  1  0.91920718  0.32373375  0.59416952  1
  H+  H21  1  0.13516300  0.02314392  0.82686858  1
  H+  H22  1  0.24459843  0.58665140  0.35990774  1
  H+  H23  1  0.87409814  0.76892008  0.98946427  1
  H+  H24  1  0.76653733  0.87214587  0.67716655  1
  H+  H25  1  0.46047174  0.60479852  0.34306696  1
  H+  H26  1  0.10613255  0.66379748  0.82459863  1
  H+  H27  1  0.61629424  0.14715357  0.01193798  1
  H+  H28  1  0.39628324  0.26972270  0.51004735  1
  H+  H29  1  0.20023253  0.84045039  0.63670049  1
  H+  H30  1  0.77101718  0.63752529  0.00012805  1
  H+  H31  1  0.38120088  0.23860729  0.15705350  1
  H+  H32  1  0.62676508  0.97904776  0.67801724  1
  H+  H33  1  0.66631955  0.36192982  0.16173236  1
  H+  H34  1  0.17665711  0.00380518  0.36197135  1
  H+  H35  1  0.63481133  0.23572365  0.67724202  1
  H+  H36  1  0.96987750  0.59840574  0.50403897  1
  H+  H37  1  0.85957130  0.38601965  0.33683499  1
  H+  H38  1  0.60570769  0.73203172  0.49911027  1
  H+  H39  1  0.16618467  0.58686515  0.85548294  1
  H+  H40  1  0.09087274  0.11790224  0.66472566  1
  H+  H41  1  0.23539628  0.85899364  0.49341918  1
  H+  H42  1  0.87287697  0.26648927  0.31765156  1
  H+  H43  1  0.54507638  0.40413015  0.67789887  1
  H+  H44  1  0.61678914  -0.01895557  0.49707555  1
  H+  H45  1  0.21162067  0.11386307  0.90629705  1
  H+  H46  1  0.62711188  0.77567467  0.99235578  1
  H+  H47  1  0.36535684  0.94413410  0.39556905  1
  H+  H48  1  0.86727942  0.63832369  0.49378850  1
  H+  H49  1  0.76623562  0.88577866  0.99534178  1
  H+  H50  1  0.92116436  0.09216291  0.27234134  1
  H+  H51  1  0.99383894  0.13829997  0.17560580  1
  H+  H52  1  0.36734985  0.88495654  0.14663032  1
  H+  H53  1  0.16919785  0.85629553  0.35560570  1
  H+  H54  1  0.95181625  0.59951880  0.65735519  1
  H+  H55  1  0.64616202  0.63134419  0.51063506  1
  H+  H56  1  0.77676123  0.80392234  0.45701165  1
  H+  H57  1  0.76507484  0.64200236  0.82157425  1
  H+  H58  1  0.14782042  0.02518953  0.16157670  1
  H+  H59  1  0.47854730  0.12540655  0.17350128  1
  H+  H60  1  0.88617268  0.34524554  0.65656118  1
  H+  H61  1  0.83307457  0.72512685  0.34180799  1
  H+  H62  1  0.38742602  0.53641322  0.17283033  1
  H+  H63  1  0.35235947  0.73013464  0.16623564  1
  H+  H64  1  0.26708569  0.38411428  0.34007471  1
  H+  H65  1  0.37355017  0.69637493  0.73244418  1
  H+  H66  1  0.63564589  0.86799626  0.00284285  1
  H+  H67  1  0.86053841  0.13856530  0.84294376  1
  H+  H68  1  0.89688594  0.53143457  0.32003430  1
  H+  H69  1  0.37583576  0.50299646  0.33897234  1
  H+  H70  1  0.88738118  0.86140321  0.51128063  1
  H+  H71  1  0.11569358  0.70309755  0.49334726  1
  H+  H72  1  0.88494175  0.86280782  0.83647621  1
  H+  H73  1  0.65188456  0.36873706  0.65352345  1
  H+  H74  1  0.10862625  0.72347130  0.12694133  1
  H+  H75  1  0.38033968  0.73697798  0.33315898  1
  H+  H76  1  0.10102248  0.90793511  0.54814700  1
  H+  H77  1  0.22721922  0.11422073  0.66133746  1
  H+  H78  1  0.63275638  0.86976089  0.51244873  1
  H+  H79  1  0.11974041  0.52350311  0.16631528  1
  H+  H80  1  0.63272093  0.49388660  0.66971976  1
  H+  H81  1  0.26319322  0.62651429  0.50517459  1
  H+  H82  1  0.10874538  0.84706577  0.99867573  1
  H+  H83  1  0.85775643  0.13132909  0.15706003  1
  H+  H84  1  0.71684192  0.09617829  0.16134046  1
  H+  H85  1  0.39105159  0.24880656  0.32779900  1
  H+  H86  1  0.48404245  0.58385715  0.84029741  1
  H+  H87  1  0.63842239  0.11044110  0.51955346  1
  H+  H88  1  0.42212226  0.74301165  0.34484760  1
  H+  H89  1  0.00426421  0.87165289  0.00800801  1
  H+  H90  1  0.85986780  0.13569423  0.33854300  1
  H+  H91  1  0.90586670  0.56865187  0.56095930  1
  H+  H92  1  0.74201623  0.52684292  0.21417149  1
  H+  H93  1  0.85659499  0.58733905  0.16785256  1
  H+  H94  1  0.85660373  0.89246692  0.15061182  1
  H+  H95  1  0.74614897  0.10969792  0.66931744  1
  H+  H96  1  0.80539939  0.37997619  0.17432643  1
  H+  H97  1  0.86228578  0.64674197  1.00391646  1
  H+  H98  1  0.54749875  0.14773807  0.67969584  1
  H+  H99  1  0.04871359  0.31085399  0.81817084  1
  H+  H100  1  0.55348442  0.38831274  -0.03131764  1
  H+  H101  1  0.33754189  0.46219571  0.82939129  1
  H+  H102  1  0.85271283  -0.02742538  0.82972541  1
  H+  H103  1  0.30877476  0.91304838  -0.01450854  1
  H+  H104  1  0.45437762  0.68701395  0.82902608  1
  H+  H105  1  0.62689690  0.22671864  0.16566988  1
  H+  H106  1  0.11057172  0.61102221  0.49765436  1
  H+  H107  1  0.96095409  0.60482376  0.98452439  1
  H+  H108  1  0.29451179  0.12658217  0.37327580  1
  H+  H109  1  0.72394526  0.12190974  -0.00359150  1
  H+  H110  1  0.87960490  0.50155429  0.65262449  1
  H+  H111  1  0.48023836  0.86734714  0.49987563  1
  H+  H112  1  0.38895948  1.00827372  0.00069340  1
  H+  H113  1  0.50162817  0.89481895  0.30602558  1
  H+  H114  1  0.61250213  0.98030367  0.12424276  1
  H+  H115  1  0.38448527  0.60905290  0.51288788  1
  H+  H116  1  0.64994922  0.37608873  0.99950487  1
  H+  H117  1  0.63777735  0.27984395  0.83705726  1
  H+  H118  1  0.41809983  1.04254187  0.67241845  1
  H+  H119  1  0.38304217  1.00302809  0.33509243  1
  H+  H120  1  0.62443960  0.77146993  0.32788475  1
  H+  H121  1  0.64151274  0.62908002  0.66004531  1
  H+  H122  1  0.72058197  0.86712189  0.16684580  1
  H+  H123  1  0.10043879  0.36861440  0.01440080  1
  H+  H124  1  0.53161862  0.89940645  0.83318245  1
  H+  H125  1  0.10390169  0.63257582  0.13800528  1
  H+  H126  1  0.12928438  0.27756533  0.32512044  1
  H+  H127  1  0.65760383  0.57652469  0.27796814  1
  H+  H128  1  0.70653341  0.61508097  0.33962947  1
  H+  H129  1  0.39236420  0.12815533  0.33430103  1
  H+  H130  1  0.85848654  0.23386943  0.84699068  1
  H+  H131  1  0.63621017  0.03358423  1.00589891  1
  H+  H132  1  0.22913166  0.28249883  0.86600073  1
  H+  H133  1  0.27828621  0.62763549  0.71985796  1
  H+  H134  1  0.56409181  0.60562798  0.19753085  1
  H+  H135  1  0.24555133  0.38151238  0.50737562  1
  H+  H136  1  0.88212302  0.86716997  0.66774823  1
  H+  H137  1  0.88253528  0.11385001  0.49657982  1
  H+  H138  1  0.10078245  0.56309731  0.59821697  1
  H+  H139  1  0.37278260  0.13777171  0.15417124  1
  H+  H140  1  0.36949925  0.89222437  0.48964039  1
  H+  H141  1  0.59487810  0.63518862  0.34325277  1
  H+  H142  1  0.97322415  0.86636908  0.16783610  1
  H+  H143  1  0.82416133  -0.08239435  1.09229297  1
  H+  H144  1  0.88226641  0.36456588  1.00575044  1
  H+  H145  1  0.63068361  0.10276909  0.16533826  1
  H+  H146  1  0.39510788  0.36654116  0.67587424  1
  H+  H147  1  0.09706918  0.70050137  -0.01164985  1
  H+  H148  1  0.87664171  0.73191473  0.50041258  1
  H+  H149  1  0.41383295  0.09953391  0.22984262  1
  H+  H150  1  0.18813008  0.25493236  0.88307077  1
  H+  H151  1  0.65807183  0.83564780  0.90190269  1
  H+  H152  1  0.59025015  0.92538416  0.43462579  1
  H+  H153  1  0.73636106  0.37499002  0.83491994  1
  H+  H154  1  0.26344064  0.39946418  0.16471431  1
  H+  H155  1  0.85353018  0.87911707  -0.00557599  1
  H+  H156  1  0.13219135  0.34422747  0.65768288  1
  H+  H157  1  0.82085787  0.91245164  0.39667222  1
  H+  H158  1  0.62385705  0.98517101  0.33721299  1
  H+  H159  1  0.36839473  0.38380316  0.49628314  1
  H+  H160  1  0.08320820  0.65086256  0.40269334  1
  H+  H161  1  0.98969899  0.61043746  0.31464823  1
  H+  H162  1  0.38915956  0.14362541  0.50283121  1
  H+  H163  1  0.26391857  0.87977098  0.13995244  1
  H+  H164  1  0.73383826  0.59557071  0.18092255  1
  H+  H165  1  0.20956975  0.61192242  0.16786131  1
  H+  H166  1  0.10435444  0.38379043  0.47302129  1
  H+  H167  1  0.39909162  0.03542880  0.84828769  1
  H+  H168  1  0.46732541  0.34414300  0.31826584  1
  H+  H169  1  0.13596037  0.87807704  0.15478365  1
  H+  H170  1  0.77385382  0.37069533  0.66782669  1
  H+  H171  1  0.32841337  0.66514284  0.11159430  1
  H+  H172  1  0.56199268  0.59550366  0.71786900  1
  H+  H173  1  0.08565005  0.21142741  0.80220271  1
  H+  H174  1  0.05840197  0.47294429  0.81650780  1
  H+  H175  1  0.92742037  0.10116238  1.01508910  1
  H+  H176  1  0.85145897  0.38781075  0.83577177  1
  H+  H177  1  0.63989625  0.25150983  0.51193913  1
  H+  H178  1  0.13456881  0.72242451  0.35182701  1
  H+  H179  1  0.22003265  0.11537443  0.30664442  1
  H+  H180  1  0.10068125  0.45282808  0.68114341  1
  H+  H181  1  0.01967315  0.88942138  0.67445620  1
  H+  H182  1  0.88475135  0.21721298  0.66501089  1
  H+  H183  1  0.71644613  0.85832925  0.32535630  1
  H+  H184  1  0.11678555  0.13368743  0.15026439  1
  H+  H185  1  0.64249422  0.12809379  0.84793566  1
  H+  H186  1  0.53252803  0.37329482  0.48966758  1
  H+  H187  1  0.45720148  0.36641737  1.00826271  1
  H+  H188  1  0.94365843  1.12376279  0.66178524  1
  H+  H189  1  0.39494267  0.12197308  0.84042299  1
  H+  H190  1  0.08467855  0.72414397  0.66391631  1
  H+  H191  1  0.01998697  0.14897042  0.48581233  1
  H+  H192  1  0.10762307  0.47372478  0.47936877  1
  H+  H193  1  0.13497851  0.78756756  0.84233659  1
  H+  H194  1  0.85617533  0.46661166  0.49166080  1
  H+  H195  1  0.48081931  0.12862674  0.31262398  1
  H+  H196  1  0.62916045  0.45979755  0.16080321  1
  H+  H197  1  0.12889567  0.27061050  0.16947520  1
  H+  H198  1  0.35685674  0.62675672  0.01784398  1
  H+  H199  1  0.08557521  0.46635222  0.83982105  1
  H+  H200  1  0.28232675  0.89303175  0.84176603  1
  H+  H201  1  0.97035105  0.35745217  0.99724732  1
  H+  H202  1  0.12440746  0.21700352  1.00409834  1
  H+  H203  1  0.35332400  0.72121982  0.50194889  1
  H+  H204  1  0.37220442  0.22559741  0.67610704  1
  H+  H205  1  0.38224431  0.62085858  0.18095682  1
  H+  H206  1  0.13049526  0.10970643  0.82271029  1
  H+  H207  1  0.85792111  0.22257983  0.48935891  1
  H+  H208  1  0.48732813  0.12977602  0.99896643  1
  H+  H209  1  0.43207924  0.33844631  0.73044050  1
  H+  H210  1  0.60103065  0.60024058  0.18741234  1
  H+  H211  1  0.62943944  0.84944369  0.66950115  1
  H+  H212  1  0.87034223  0.86529035  0.32162618  1
  H+  H213  1  0.62442640  0.48632388  0.82525216  1
  H+  H214  1  0.85802379  0.72943752  0.82247269  1
  H+  H215  1  0.63279698  0.48669752  0.98335253  1
  H+  H216  1  0.65071562  0.29057977  0.31115732  1
  H+  H217  1  0.60657401  0.64601600  1.01428686  1
  H+  H218  1  0.73819633  0.37939526  0.32140760  1
  H+  H219  1  0.13167563  0.51622824  0.32065544  1
  H+  H220  1  0.11598279  0.89250767  0.82854524  1
  H+  H221  1  0.04609270  0.12157090  -0.00526551  1
  H+  H222  1  0.76188439  0.13905233  0.84716263  1
  H+  H223  1  0.41942620  0.90571773  0.30653964  1
  H+  H224  1  0.01125638  0.76180681  0.33989611  1
  H+  H225  1  0.82390675  0.16497830  0.39443696  1
  H+  H226  1  0.08433078  0.37282974  0.16760357  1
  H+  H227  1  0.62241822  0.23911645  0.01434340  1
  H+  H228  1  0.34766957  0.38187804  0.01087015  1
  H+  H229  1  0.18461943  0.61281713  0.63323866  1
  H+  H230  1  0.85626427  0.98020151  0.34049494  1
  H+  H231  1  0.67314525  0.57792644  0.89818603  1
  H+  H232  1  0.88408632  0.35829548  0.50402321  1
  H+  H233  1  0.38830817  0.59719936  0.66685788  1
  H+  H234  1  0.41905461  0.57923600  0.56933280  1
  H+  H235  1  0.63784692  0.87190552  0.84160828  1
  H+  H236  1  0.85008453  0.40619767  0.08268095  1
  H+  H237  1  0.10100573  0.45815173  1.01794634  1
  H+  H238  1  0.11997193  0.15858905  0.33643518  1
  H+  H239  1  0.63024265  0.61249111  0.84471300  1
  H+  H240  1  0.27648527  0.37448203  0.66026318  1
  H+  H241  1  0.26741132  0.62161010  0.02559381  1
  H+  H242  1  0.75088537  0.85953806  0.49602292  1
  H+  H243  1  0.14341975  0.85256116  0.48980712  1
  H+  H244  1  0.12276136  0.59493388  0.99736463  1
  H+  H245  1  0.86294711  0.74591184  0.67284087  1
  H+  H246  1  0.39093040  0.90665392  0.68514527  1
  H+  H247  1  0.89099700  1.03052932  0.49935738  1
  H+  H248  1  -0.02704932  0.35866692  0.49856842  1
  H+  H249  1  0.37126064  0.98157030  0.49627623  1
  H+  H250  1  0.85334878  0.14362606  -0.01347077  1
  H+  H251  1  0.40699322  0.79914765  0.65184100  1
  H+  H252  1  0.87061909  0.60975029  0.82794359  1
  H+  H253  1  0.35123117  0.92453429  0.78766343  1
  H+  H254  1  -0.02552599  0.86220918  0.83451725  1
  H+  H255  1  0.81945132  0.67326183  0.40438851  1
  H+  H256  1  0.41886070  0.89491051  0.99864861  1
  H+  H257  1  0.62301552  0.14500308  0.31573560  1
  H+  H258  1  0.14018932  0.02460943  0.65966119  1
  H+  H259  1  0.61764651  0.89262897  0.33878314  1
  H+  H260  1  0.52154605  0.63883105  0.49858538  1
  H+  H261  1  0.96298886  0.11190452  0.83278787  1
  H+  H262  1  0.00779854  0.37835475  0.32295957  1
  H+  H263  1  0.85633968  0.73050677  0.15594306  1
  H+  H264  1  0.31003019  0.91910163  0.69420397  1
  H+  H265  1  0.19180336  0.41271393  0.82453048  1
  H+  H266  1  0.36529944  0.46738472  0.65803933  1
  H+  H267  1  0.49759996  0.88389422  0.66271351  1
  H+  H268  1  0.95752496  0.37109690  0.85238552  1
  H+  H269  1  0.78515954  0.38756661  1.02639593  1
  H+  H270  1  0.73621285  0.63119778  0.51072884  1
  H+  H271  1  0.62542921  0.75843123  0.66734145  1
  H+  H272  1  0.14396869  0.60853923  0.33320473  1
  H+  H273  1  0.35050205  0.58131994  0.35787093  1
  H+  H274  1  0.48249454  0.60551431  0.66446695  1
  H+  H275  1  0.94586970  0.84091081  0.32318254  1
  H+  H276  1  0.48725406  0.36525834  0.84327792  1
  H+  H277  1  -0.02511526  0.11357842  0.33283438  1
  H+  H278  1  0.08776031  0.91547791  0.20474675  1
  H+  H279  1  0.61703901  0.39435765  0.33046888  1
  H+  H280  1  0.40832282  0.37996844  0.84475090  1
  H+  H281  1  0.76929485  0.13307183  0.49319658  1
  H+  H282  1  0.72756072  0.11528028  0.31334025  1
  H+  H283  1  0.10360823  0.24102267  0.48576998  1
  H+  H284  1  0.60267426  0.47399981  0.34147010  1
  H+  H285  1  0.25084985  1.11343997  0.50639441  1
  H+  H286  1  0.76098923  0.65079107  0.66832582  1
  H+  H287  1  0.40860376  0.12510404  0.66417660  1
  H+  H288  1  0.82538331  0.15168569  0.09505353  1
  H+  H289  1  0.05601156  0.39738029  0.10667010  1
  H+  H290  1  0.23757933  0.46845728  0.88286052  1
  H+  H291  1  0.59419257  0.14257471  0.45556139  1
  H+  H292  1  0.09587780  0.20753041  0.66526933  1
  H+  H293  1  0.88601616  0.55859976  0.22621895  1
  H+  H294  1  0.15292500  0.32743936  0.23106640  1
  H+  H295  1  0.06259070  0.84193435  0.30063792  1
  H+  H296  1  0.12921409  0.36573176  0.31871056  1
  H+  H297  1  0.01442455  0.36414393  0.66884671  1
  H+  H298  1  0.35404527  0.64180158  0.82184762  1
  H+  H299  1  0.58718925  0.92097662  0.73724272  1
  H+  H300  1  0.82410564  0.67161289  0.09661247  1
  H+  H301  1  0.43016599  0.10194927  0.93830471  1
  H+  H302  1  0.06713874  0.68431471  0.76594516  1
  H+  H303  1  0.59545819  0.18269276  0.37109071  1
  H+  H304  1  0.85403518  0.47915481  0.82447371  1
  H+  H305  1  0.08306449  0.17804408  0.39889149  1
  H+  H306  1  0.32553761  0.40553501  0.39968302  1
  H+  H307  1  0.67927306  0.07713572  0.57275251  1
  H+  H308  1  0.82499944  0.67854763  0.73370941  1
  H+  H309  1  0.18495644  0.10381018  0.21027001  1
  H+  H310  1  0.42711175  0.85018628  0.56045376  1
  H+  H311  1  0.43639680  0.86841118  0.21395369  1
  H+  H312  1  0.90431908  0.33716439  0.91533036  1
  H+  H313  1  0.06552328  0.40877729  0.38337274  1
  H+  H314  1  0.67260316  0.32674948  0.59472226  1
  H+  H315  1  0.33957709  0.92277788  0.08323866  1
  H+  H316  1  0.90344925  0.58955000  0.92643785  1
  H+  H317  1  0.77053986  0.37315155  0.49318874  1
  H+  H318  1  0.96161746  0.61482774  0.83101264  1
  H+  H319  1  0.42812317  0.33667414  0.56527268  1
  H+  H320  1  0.16588885  0.53265514  0.55305349  1
  H+  H321  1  0.08730696  0.34846745  0.75384021  1
  H+  H322  1  0.30760520  0.62033077  0.42276376  1
  H+  H323  1  0.05374197  0.14134365  0.75197920  1
  H+  H324  1  0.66035389  0.83235416  0.22561432  1
  H+  H325  1  0.43277171  0.08315354  0.57029459  1
  H+  H326  1  0.42307546  0.30647241  0.22932154  1
  H+  H327  1  0.91731091  0.84062577  0.60724822  1
  H+  H328  1  0.16853546  0.82002415  0.19712516  1
  H+  H329  1  0.41092612  0.33519511  0.94440586  1
  H+  H330  1  0.83042875  0.39952045  0.72864863  1
  H+  H331  1  0.45026457  0.85724981  0.94506265  1
  H+  H332  1  0.64072890  0.37835718  0.83396511  1
  H+  H333  1  0.94743611  0.36160222  0.16793771  1
  H+  H334  1  0.65730932  0.83296854  0.57302079  1
  H+  H335  1  0.49759526  0.66230091  0.14171607  1
  H+  H336  1  0.56132017  0.68648092  0.06053807  1
  H+  H337  1  0.59772456  0.18168488  0.77168801  1
  H+  H338  1  0.34038940  0.16322235  0.73140888  1
  H+  H339  1  0.57302480  0.67006228  0.40391172  1
  H+  H340  1  0.08433046  0.91311893  0.76537299  1
  H+  H341  1  0.20015776  0.42613098  0.53909224  1
  H+  H342  1  0.36458461  0.17584196  0.44116082  1
  H+  H343  1  0.82552828  0.90664564  0.73605480  1
  H+  H344  1  0.47191367  0.87287059  0.14459949  1
  H+  H345  1  0.15169500  0.81758288  0.57490788  1
  H+  H346  1  0.07123347  0.64842784  0.05153977  1
  H+  H347  1  0.13260711  0.98492237  0.50382723  1
  H+  H348  1  0.26545511  0.21064323  0.28821044  1
  H+  H349  1  0.60533120  0.43010863  0.76385556  1
  H+  H350  1  0.41230996  0.56088372  0.93664053  1
  H+  H351  1  0.06269700  0.89786675  0.06775461  1
  H+  H352  1  0.73433657  0.54289736  0.94583637  1
  H+  H353  1  0.90763610  0.83766429  0.22418940  1
  H+  H354  1  0.88604830  0.00729502  0.98746405  1
  H+  H355  1  0.26154911  0.87106459  0.34035710  1
  H+  H356  1  0.18443389  0.08928189  0.56112802  1
  H+  H357  1  0.63751472  0.34108341  0.50351361  1
  H+  H358  1  0.39752856  0.86591840  0.85456760  1
  H+  H359  1  0.16888039  0.11436951  1.00535077  1
  H+  H360  1  0.61974504  0.98863423  0.82965488  1
  H+  H361  1  0.58665366  0.39694791  0.42921058  1
  H+  H362  1  0.83204811  0.41449552  0.39797058  1
  H+  H363  1  0.90991995  0.82806602  0.92892822  1
  H+  H364  1  0.68539449  0.34614790  0.94483372  1
  H+  H365  1  0.69049423  0.34408881  0.22707442  1
  H+  H366  1  0.91693765  0.08701645  0.89883524  1
  H+  H367  1  0.58658210  0.17126188  0.10612780  1
  H+  H368  1  0.59319264  0.41449258  0.09611403  1
  H+  H369  1  0.16463572  0.32338489  0.94449088  1
  H+  H370  1  0.97231649  0.20029406  0.21048328  1
  H+  H371  1  0.27787037  0.14112557  0.81861838  1
  H+  H372  1  0.17008006  0.55717753  0.95462015  1
  H+  H373  1  0.55751206  0.67730785  0.76293652  1
  H+  H374  1  0.19753315  0.66815409  0.89683130  1
  H+  H375  1  0.08376455  0.16148527  0.09353201  1
  H+  H376  1  0.66323048  0.09023073  0.90898094  1
  H+  H377  1  0.76605464  0.88236534  0.83268918  1
  H+  H378  1  0.16444950  0.83992744  0.90448022  1
  H+  H379  1  0.67965445  0.60769202  0.59749615  1
  H+  H380  1  0.32267858  0.42283533  0.10771004  1
  H+  H381  1  0.66515179  0.07574699  0.25430864  1
  H+  H382  1  0.89101846  0.32643655  0.25818169  1
  H+  H383  1  0.16617990  0.32113592  0.59868553  1
  O2-  O384  1  0.08433501  0.16351517  0.13880738  1
  O2-  O385  1  0.08015538  0.18332231  0.46950395  1
  O2-  O386  1  0.05701484  0.14858202  0.79806511  1
  O2-  O387  1  0.05126750  0.39990671  0.15154957  1
  O2-  O388  1  0.07163401  0.41205799  0.46170113  1
  O2-  O389  1  0.09895108  0.32709401  0.79283586  1
  O2-  O390  1  0.07570012  0.66214027  0.11610647  1
  O2-  O391  1  0.07908651  0.64151974  0.48394688  1
  O2-  O392  1  0.06739782  0.68523572  0.81152684  1
  O2-  O393  1  0.09509485  0.91868575  0.16076846  1
  O2-  O394  1  0.09383114  0.91833154  0.50562792  1
  O2-  O395  1  0.08138421  0.91651137  0.81052836  1
  O2-  O396  1  0.34524485  0.17199817  0.13433439  1
  O2-  O397  1  0.35939918  0.17460672  0.48805104  1
  O2-  O398  1  0.34059339  0.17060139  0.80916013  1
  O2-  O399  1  0.32423094  0.42944851  0.15228146  1
  O2-  O400  1  0.33792338  0.41424365  0.48157147  1
  O2-  O401  1  0.39418864  0.46486354  0.82309011  1
  O2-  O402  1  0.32114641  0.66830302  0.15680385  1
  O2-  O403  1  0.32706242  0.65885861  0.49439893  1
  O2-  O404  1  0.40220708  0.68708414  0.84419955  1
  O2-  O405  1  0.32982805  0.91105186  0.12854666  1
  O2-  O406  1  0.33919434  0.92327723  0.47627435  1
  O2-  O407  1  0.34524973  0.92173886  0.83256662  1
  O2-  O408  1  0.58733805  0.16666862  0.15135299  1
  O2-  O409  1  0.59175338  0.15284505  0.49859371  1
  O2-  O410  1  0.59548721  0.18533403  0.81779327  1
  O2-  O411  1  0.59419399  0.40288599  0.13958627  1
  O2-  O412  1  0.59013125  0.39044586  0.47388018  1
  O2-  O413  1  0.60133907  0.42540426  0.80970182  1
  O2-  O414  1  0.54253868  0.70860217  0.11438170  1
  O2-  O415  1  0.58151558  0.67292480  0.48225378  1
  O2-  O416  1  0.54556739  0.68069226  0.80807226  1
  O2-  O417  1  0.57595457  0.92276329  0.10368644  1
  O2-  O418  1  0.58498581  0.92063212  0.48007218  1
  O2-  O419  1  0.59061130  0.92909261  0.81392754  1
  O2-  O420  1  0.81536265  0.14439971  0.13908278  1
  O2-  O421  1  0.82696281  0.16311966  0.47249411  1
  O2-  O422  1  0.82728660  0.17132974  0.83368548  1
  O2-  O423  1  0.86729914  0.40336147  0.16181774  1
  O2-  O424  1  0.83086027  0.40611986  0.47674460  1
  O2-  O425  1  0.82154496  0.41479814  0.81471595  1
  O2-  O426  1  0.82481692  0.66993374  0.14184487  1
  O2-  O427  1  0.84088693  0.67409025  0.48246629  1
  O2-  O428  1  0.82513575  0.66977521  0.80471229  1
  O2-  O429  1  0.82515443  0.92154820  0.13702978  1
  O2-  O430  1  0.80077627  0.86244689  0.47225548  1
  O2-  O431  1  0.82667706  0.91199890  0.81710605  1
  O2-  O432  1  0.17850486  0.09025198  0.16641879  1
  O2-  O433  1  0.18849949  0.08091608  0.51706198  1
  O2-  O434  1  0.16796119  0.08647974  0.83489503  1
  O2-  O435  1  0.14609933  0.32846327  0.18578638  1
  O2-  O436  1  0.18769583  0.36959754  0.52503036  1
  O2-  O437  1  0.24514486  0.46408794  0.83944208  1
  O2-  O438  1  0.14625144  0.58589656  0.17141321  1
  O2-  O439  1  0.16169528  0.55910760  0.51573636  1
  O2-  O440  1  0.18812517  0.64862458  0.85467687  1
  O2-  O441  1  0.17208564  0.83801694  0.15486227  1
  O2-  O442  1  0.17254956  0.82127908  0.50430260  1
  O2-  O443  1  0.17285230  0.84610629  0.85952330  1
  O2-  O444  1  0.41679919  0.09933248  0.18435922  1
  O2-  O445  1  0.43187190  0.08051789  0.52533437  1
  O2-  O446  1  0.43118097  0.09837372  0.85619200  1
  O2-  O447  1  0.42523887  0.31107889  0.18289968  1
  O2-  O448  1  0.42151382  0.33320352  0.52134801  1
  O2-  O449  1  0.42660535  0.33766498  0.85607353  1
  O2-  O450  1  0.42201133  0.59791925  0.18502773  1
  O2-  O451  1  0.41750753  0.57965951  0.52360050  1
  O2-  O452  1  0.45012068  0.53151999  0.86650442  1
  O2-  O453  1  0.41899326  0.85261817  0.16890136  1
  O2-  O454  1  0.41979814  0.83853485  0.51641443  1
  O2-  O455  1  0.43839227  0.84664163  0.86732892  1
  O2-  O456  1  0.65464210  0.06419196  0.17468930  1
  O2-  O457  1  0.67268515  0.07758409  0.52815020  1
  O2-  O458  1  0.67142533  0.09640406  0.86318082  1
  O2-  O459  1  0.69539539  0.33428858  0.18234574  1
  O2-  O460  1  0.67079454  0.31584072  0.52323114  1
  O2-  O461  1  0.67064072  0.34395252  0.85085014  1
  O2-  O462  1  0.69738252  0.54323935  0.20609617  1
  O2-  O463  1  0.67892219  0.60701788  0.53043170  1
  O2-  O464  1  0.66507929  0.58525379  0.84992619  1
  O2-  O465  1  0.65990942  0.83678024  0.18105179  1
  O2-  O466  1  0.65989026  0.83606947  0.52767041  1
  O2-  O467  1  0.66122367  0.83508634  0.85631590  1
  O2-  O468  1  0.94742696  0.13962647  0.20044673  1
  O2-  O469  1  0.92044157  0.09099098  0.50991017  1
  O2-  O470  1  0.90601354  0.08936855  0.85469659  1
  O2-  O471  1  0.88461678  0.33503047  0.17963907  1
  O2-  O472  1  0.91535563  0.32820802  0.51867846  1
  O2-  O473  1  0.89904681  0.33418832  0.86733218  1
  O2-  O474  1  0.84618971  0.53610609  0.19091640  1
  O2-  O475  1  0.90823355  0.57323563  0.51513445  1
  O2-  O476  1  0.89984225  0.57813631  0.84262382  1
  O2-  O477  1  0.91165944  0.83805429  0.17894090  1
  O2-  O478  1  0.92367491  0.84053783  0.53025964  1
  O2-  O479  1  0.91362894  0.82977898  0.84897095  1
  O2-  O480  1  0.20963864  0.15746085  0.28614723  1
  O2-  O481  1  0.16777729  0.08489721  0.64496455  1
  O2-  O482  1  0.20488372  0.08915952  0.99260034  1
  O2-  O483  1  0.16238123  0.33638283  0.30719114  1
  O2-  O484  1  0.16150730  0.31289426  0.64351998  1
  O2-  O485  1  0.16137485  0.32272696  0.98869715  1
  O2-  O486  1  0.17489516  0.57843393  0.31981267  1
  O2-  O487  1  0.12341391  0.57387163  0.64011749  1
  O2-  O488  1  0.15628812  0.56187175  0.99658265  1
  O2-  O489  1  0.19817198  0.82998133  0.33497004  1
  O2-  O490  1  0.14274626  0.81982387  0.62080577  1
  O2-  O491  1  0.14421244  0.81997618  0.98244832  1
  O2-  O492  1  0.41798837  0.09713458  0.30655962  1
  O2-  O493  1  0.44479657  0.09936546  0.65246431  1
  O2-  O494  1  0.42733881  0.09633968  0.98315508  1
  O2-  O495  1  0.41213533  0.30058844  0.29997797  1
  O2-  O496  1  0.43355100  0.34011651  0.68610962  1
  O2-  O497  1  0.40106286  0.33551568  0.98850299  1
  O2-  O498  1  0.39839021  0.56806048  0.33139907  1
  O2-  O499  1  0.42078082  0.57508818  0.64490692  1
  O2-  O500  1  0.40786686  0.57090438  0.98019211  1
  O2-  O501  1  0.45190185  0.88596641  0.28117297  1
  O2-  O502  1  0.43651228  0.86099192  0.64556730  1
  O2-  O503  1  0.45152293  0.86490380  0.98996608  1
  O2-  O504  1  0.66642676  0.08524836  0.29935180  1
  O2-  O505  1  0.68475948  0.08222531  0.65722267  1
  O2-  O506  1  0.66211383  0.08998684  0.98363802  1
  O2-  O507  1  0.68033523  0.35251050  0.30048497  1
  O2-  O508  1  0.67637931  0.33243652  0.64129896  1
  O2-  O509  1  0.68178119  0.34459534  0.98928078  1
  O2-  O510  1  0.64648287  0.58257266  0.32121969  1
  O2-  O511  1  0.67918671  0.60541151  0.64521018  1
  O2-  O512  1  0.69247317  0.56026544  0.95660023  1
  O2-  O513  1  0.65598735  0.83102813  0.31114406  1
  O2-  O514  1  0.65651970  0.81788074  0.65155692  1
  O2-  O515  1  0.65955998  0.83786365  0.97915571  1
  O2-  O516  1  0.91428036  0.08250134  0.31711817  1
  O2-  O517  1  0.88858081  0.11381801  0.64437279  1
  O2-  O518  1  0.92569078  0.07217675  0.97722343  1
  O2-  O519  1  0.90165471  0.32712384  0.30277137  1
  O2-  O520  1  0.92004800  0.31932317  0.63997753  1
  O2-  O521  1  0.90972780  0.33289655  0.98163281  1
  O2-  O522  1  0.93055754  0.58748406  0.29947447  1
  O2-  O523  1  0.89913102  0.55927128  0.63535601  1
  O2-  O524  1  0.90317010  0.59245264  0.97116055  1
  O2-  O525  1  0.89148954  0.82820319  0.30338729  1
  O2-  O526  1  0.91658930  0.83847748  0.65281045  1
  O2-  O527  1  0.90582253  0.83035197  0.97396288  1
  O2-  O528  1  0.10034255  0.15577984  0.01705596  1
  O2-  O529  1  0.07916596  0.17513020  0.35231222  1
  O2-  O530  1  0.05880013  0.14662941  0.67870304  1
  O2-  O531  1  0.06623880  0.39545143  0.02767108  1
  O2-  O532  1  0.06829469  0.40758347  0.33807886  1
  O2-  O533  1  0.07433807  0.39085616  0.68742926  1
  O2-  O534  1  0.07080530  0.64087940  0.00341557  1
  O2-  O535  1  0.09074636  0.66086255  0.35808505  1
  O2-  O536  1  0.05869412  0.67169180  0.68953779  1
  O2-  O537  1  0.06383872  0.89361470  0.02350197  1
  O2-  O538  1  0.03521420  0.82404458  0.34031470  1
  O2-  O539  1  0.08214375  0.91628870  0.68597236  1
  O2-  O540  1  0.25091728  0.14395792  -0.05876673  1
  O2-  O541  1  0.35559943  0.16699382  0.37094499  1
  O2-  O542  1  0.34098697  0.16319587  0.68582761  1
  O2-  O543  1  0.31569032  0.41167429  0.02477140  1
  O2-  O544  1  0.32713203  0.40950224  0.35481952  1
  O2-  O545  1  0.33907578  0.40493760  0.66747496  1
  O2-  O546  1  0.32837027  0.65563951  0.03678094  1
  O2-  O547  1  0.29066012  0.58257880  0.38628753  1
  O2-  O548  1  0.33613222  0.63633553  0.72159522  1
  O2-  O549  1  0.35803483  0.94158094  0.01254007  1
  O2-  O550  1  0.36371547  0.94271692  0.35047917  1
  O2-  O551  1  0.36828347  0.93960860  0.70842194  1
  O2-  O552  1  0.58775494  0.17840883  0.02819645  1
  O2-  O553  1  0.59587582  0.18088056  0.32699888  1
  O2-  O554  1  0.60704008  0.17767520  0.69719917  1
  O2-  O555  1  0.58875156  0.42159966  0.00300213  1
  O2-  O556  1  0.57829826  0.41165851  0.35039208  1
  O2-  O557  1  0.60792443  0.43490510  0.68695317  1
  O2-  O558  1  0.57173743  0.67345624  0.01320316  1
  O2-  O559  1  0.56590814  0.66702570  0.35867304  1
  O2-  O560  1  0.56853204  0.64556945  0.69592237  1
  O2-  O561  1  0.59562020  0.93602998  0.03807110  1
  O2-  O562  1  0.59250799  0.92703929  0.35600808  1
  O2-  O563  1  0.58804894  0.91797153  0.69168984  1
  O2-  O564  1  0.82891998  0.17072901  0.01169119  1
  O2-  O565  1  0.82665706  0.16494960  0.34884110  1
  O2-  O566  1  0.86187813  0.16017413  0.68605761  1
  O2-  O567  1  0.84551594  0.40796071  0.03770940  1
  O2-  O568  1  0.83346697  0.41970249  0.35267230  1
  O2-  O569  1  0.83434348  0.39565683  0.68422609  1
  O2-  O570  1  0.82916723  0.67492828  0.01882503  1
  O2-  O571  1  0.80312118  0.66777533  0.36089296  1
  O2-  O572  1  0.82575694  0.68277821  0.68725037  1
  O2-  O573  1  0.82826083  0.91564163  0.00745200  1
  O2-  O574  1  0.82327813  0.91773518  0.35189313  1
  O2-  O575  1  0.82710348  0.90321704  0.69112121  1
