# generated using pymatgen
data_H2O
_symmetry_space_group_name_H-M   'P 1'
_cell_length_a   17.98258800
_cell_length_b   17.99108811
_cell_length_c   21.98995460
_cell_angle_alpha   89.98762849
_cell_angle_beta   90.04132692
_cell_angle_gamma   119.99225167
_symmetry_Int_Tables_number   1
_chemical_formula_structural   H2O
_chemical_formula_sum   'H384 O192'
_cell_volume   6161.66912521
_cell_formula_units_Z   192
loop_
 _symmetry_equiv_pos_site_id
 _symmetry_equiv_pos_as_xyz
  1  'x, y, z'
loop_
 _atom_type_symbol
 _atom_type_oxidation_number
  H+  1.0
  O2-  -2.0
loop_
 _atom_site_type_symbol
 _atom_site_label
 _atom_site_symmetry_multiplicity
 _atom_site_fract_x
 _atom_site_fract_y
 _atom_site_fract_z
 _atom_site_occupancy
  H+  H0  1  0.61818054  0.40512828  0.67244481  1
  H+  H1  1  0.10448768  0.96968050  0.15248117  1
  H+  H2  1  0.10859329  0.22224723  0.49655811  1
  H+  H3  1  0.51601093  0.40474483  0.66351263  1
  H+  H4  1  0.43456724  0.86250075  0.74678398  1
  H+  H5  1  0.63454804  0.09144534  0.52070909  1
  H+  H6  1  0.63404183  0.73625073  0.82185073  1
  H+  H7  1  0.73321021  0.12488506  0.66930373  1
  H+  H8  1  0.72194464  0.84580805  0.50119861  1
  H+  H9  1  0.61275836  0.87888518  0.34039813  1
  H+  H10  1  0.55644035  0.17215110  0.68398598  1
  H+  H11  1  0.13311379  0.35655282  0.83605509  1
  H+  H12  1  0.11056225  0.38489613  0.66491065  1
  H+  H13  1  0.37209942  0.60004583  0.99047047  1
  H+  H14  1  0.09586234  0.72261673  0.33514082  1
  H+  H15  1  0.42104143  0.35708315  0.76131038  1
  H+  H16  1  0.01256429  0.29618411  0.78763959  1
  H+  H17  1  0.65271424  0.03951620  0.83557667  1
  H+  H18  1  0.11905376  0.83906236  0.65573244  1
  H+  H19  1  0.64970565  0.73759193  0.65293116  1
  H+  H20  1  0.73122531  0.06652337  0.18882224  1
  H+  H21  1  0.84822727  0.13403374  0.67434636  1
  H+  H22  1  0.61269451  0.26676940  0.85276904  1
  H+  H23  1  0.74239877  0.30051946  0.80388248  1
  H+  H24  1  0.37884763  0.76162743  0.33420794  1
  H+  H25  1  0.74151945  0.89281594  0.16344507  1
  H+  H26  1  0.82654718  0.55424756  0.99756768  1
  H+  H27  1  0.08287258  0.72221292  0.15817877  1
  H+  H28  1  0.35695280  0.13618067  0.02180106  1
  H+  H29  1  0.83580164  0.43662927  0.02266099  1
  H+  H30  1  0.36680484  0.72047854  0.49976617  1
  H+  H31  1  0.24816677  0.39729336  0.99328023  1
  H+  H32  1  0.75870896  0.12927688  0.35460237  1
  H+  H33  1  0.36269390  0.40810228  0.82212668  1
  H+  H34  1  0.11716849  0.90162849  0.82743906  1
  H+  H35  1  0.76380673  0.11514517  0.50516738  1
  H+  H36  1  -0.01266059  0.19701971  0.70516556  1
  H+  H37  1  0.02937315  0.89119087  0.50050838  1
  H+  H38  1  0.65232069  0.62569699  0.65864030  1
  H+  H39  1  0.10224802  0.72221849  0.48129210  1
  H+  H40  1  0.37596555  0.02756487  0.84397099  1
  H+  H41  1  0.46560564  0.00256544  0.94576664  1
  H+  H42  1  0.20921598  0.35899013  0.17638578  1
  H+  H43  1  0.67372430  0.36786376  0.57602603  1
  H+  H44  1  0.86137335  0.49419344  0.85435136  1
  H+  H45  1  0.79949696  0.65056279  0.84406671  1
  H+  H46  1  0.33257491  0.66022254  0.44130539  1
  H+  H47  1  0.66335540  0.17069292  0.82649238  1
  H+  H48  1  0.48537257  0.36414043  1.01467130  1
  H+  H49  1  0.84087543  0.17131683  0.75777690  1
  H+  H50  1  0.20987193  0.35566319  0.32216411  1
  H+  H51  1  -0.02212865  0.35648899  -0.00119141  1
  H+  H52  1  0.35502699  0.86803843  0.34294858  1
  H+  H53  1  0.59457507  0.21429171  0.34212647  1
  H+  H54  1  0.91918806  0.83182358  0.56921501  1
  H+  H55  1  0.35688930  0.86474178  0.49485155  1
  H+  H56  1  0.85741118  0.95027043  0.66749536  1
  H+  H57  1  0.73597948  0.38779311  0.66475091  1
  H+  H58  1  0.85459875  0.47745973  0.34098569  1
  H+  H59  1  0.41942387  0.84089143  0.57036754  1
  H+  H60  1  0.27437836  0.39426465  0.66694333  1
  H+  H61  1  0.50830336  0.07629508  0.16661007  1
  H+  H62  1  0.39727637  0.54759851  0.82626703  1
  H+  H63  1  0.37914866  0.66058085  0.81440373  1
  H+  H64  1  0.64131249  0.86825581  -0.00949647  1
  H+  H65  1  0.36549217  0.90181440  0.80346189  1
  H+  H66  1  0.24544055  0.10785493  0.18276430  1
  H+  H67  1  0.91518351  0.33475260  0.90387182  1
  H+  H68  1  0.38400688  0.71675812  0.17741128  1
  H+  H69  1  0.39507143  0.89106010  0.65369795  1
  H+  H70  1  0.20523525  0.02258376  0.21885881  1
  H+  H71  1  0.96477088  0.61700700  0.32129541  1
  H+  H72  1  0.12086028  0.98058155  0.49851451  1
  H+  H73  1  0.86907925  0.22706469  0.82394271  1
  H+  H74  1  0.23210116  0.60852203  1.00370247  1
  H+  H75  1  0.85718639  0.11365242  0.49857242  1
  H+  H76  1  0.11663973  0.98353234  -0.00314242  1
  H+  H77  1  0.25739781  0.86240741  0.49305295  1
  H+  H78  1  0.63686542  0.20632158  0.76604818  1
  H+  H79  1  0.64698821  0.76884990  0.14318508  1
  H+  H80  1  0.16538659  0.08656886  0.27796300  1
  H+  H81  1  -0.01233318  0.87409092  0.34721857  1
  H+  H82  1  0.26795290  0.13274728  0.35375772  1
  H+  H83  1  0.26434513  0.86871569  0.34098080  1
  H+  H84  1  0.07224425  0.62801663  -0.00710509  1
  H+  H85  1  1.02701898  0.13448806  1.00502145  1
  H+  H86  1  0.64404419  0.31361324  0.51388869  1
  H+  H87  1  0.89130093  0.76169314  0.66743515  1
  H+  H88  1  0.60528088  0.70657113  0.48510910  1
  H+  H89  1  0.23057383  0.88270923  0.84132623  1
  H+  H90  1  0.72966539  0.86935773  -0.01513494  1
  H+  H91  1  0.87706736  0.27446417  0.34664222  1
  H+  H92  1  0.85441686  0.35171429  0.16880638  1
  H+  H93  1  0.88168853  0.00960812  0.50090626  1
  H+  H94  1  0.87770750  0.26348750  0.66397547  1
  H+  H95  1  0.39575519  0.79389278  0.79900068  1
  H+  H96  1  0.88018962  0.84443043  0.66412623  1
  H+  H97  1  0.11785392  0.23261013  0.83352763  1
  H+  H98  1  0.85641835  0.87998140  0.14040123  1
  H+  H99  1  0.14284930  0.79567186  0.83666518  1
  H+  H100  1  0.27444068  0.69127788  0.85339233  1
  H+  H101  1  1.02676066  0.68124768  0.86368996  1
  H+  H102  1  0.31918774  0.48547369  0.16007145  1
  H+  H103  1  0.41101223  0.06959039  0.23567062  1
  H+  H104  1  0.36637204  0.23140875  0.17604832  1
  H+  H105  1  0.34148453  0.62527385  0.34408057  1
  H+  H106  1  0.83011243  0.91468500  0.76616169  1
  H+  H107  1  0.60755028  0.39816785  0.82720273  1
  H+  H108  1  0.65080615  0.10561429  -0.00452679  1
  H+  H109  1  0.09732786  0.37387453  0.16824980  1
  H+  H110  1  0.63357309  1.01671016  0.33690137  1
  H+  H111  1  0.47589125  0.86015844  0.50956891  1
  H+  H112  1  0.14473097  0.12958760  0.83926769  1
  H+  H113  1  0.40505615  0.39816363  0.65505092  1
  H+  H114  1  0.96856562  0.34596405  0.18751610  1
  H+  H115  1  0.13703430  0.15153357  0.15808151  1
  H+  H116  1  0.12628987  0.77496129  0.98920421  1
  H+  H117  1  0.11298981  0.89100578  0.99844474  1
  H+  H118  1  0.38256577  0.54255203  0.66741065  1
  H+  H119  1  0.26411220  0.87368801  0.00729162  1
  H+  H120  1  0.61483808  -0.04078999  0.50241806  1
  H+  H121  1  0.58305994  0.90132828  0.40355913  1
  H+  H122  1  0.90102302  0.53659594  0.86038513  1
  H+  H123  1  0.17228310  0.51180887  0.86393216  1
  H+  H124  1  -0.01364269  0.88014341  -0.01254027  1
  H+  H125  1  0.21518581  0.60320177  0.64746327  1
  H+  H126  1  0.12753766  0.11489354  0.33456382  1
  H+  H127  1  0.54068817  0.91105188  0.81467366  1
  H+  H128  1  0.88913856  0.62192720  0.51816442  1
  H+  H129  1  0.60571589  0.91864987  0.66901591  1
  H+  H130  1  0.66556591  0.78007772  0.30439205  1
  H+  H131  1  0.65057614  0.29964334  0.66478950  1
  H+  H132  1  0.10646185  0.59365009  0.18196007  1
  H+  H133  1  0.77719912  0.41029821  0.50211384  1
  H+  H134  1  0.37360665  0.22907446  0.84425018  1
  H+  H135  1  0.35416723  0.64710191  0.66929811  1
  H+  H136  1  0.59853794  0.94497242  0.75814426  1
  H+  H137  1  0.85045535  0.21349301  0.17105144  1
  H+  H138  1  0.88838132  0.53306629  0.51530043  1
  H+  H139  1  0.14770792  0.54809347  0.59341254  1
  H+  H140  1  0.34825399  0.73313942  0.66601430  1
  H+  H141  1  0.85992158  0.39127925  0.34841751  1
  H+  H142  1  0.22427532  0.11610791  0.99482353  1
  H+  H143  1  0.34991789  0.46920668  0.46133647  1
  H+  H144  1  0.01944312  0.66743730  -0.03926939  1
  H+  H145  1  0.08635944  0.16310735  0.06424037  1
  H+  H146  1  0.62508517  0.27417408  0.19441405  1
  H+  H147  1  -0.03205894  0.35452234  0.65957382  1
  H+  H148  1  0.89186857  0.88464500  0.99028154  1
  H+  H149  1  0.14022015  0.86558019  0.50145895  1
  H+  H150  1  0.76828273  0.64563571  0.34457141  1
  H+  H151  1  0.85948572  0.35941494  0.01691469  1
  H+  H152  1  0.36550255  0.71735235  0.01971973  1
  H+  H153  1  0.42875921  0.61046988  0.61567968  1
  H+  H154  1  0.38346034  0.83579275  0.18069462  1
  H+  H155  1  0.15938482  -0.01735007  0.64992350  1
  H+  H156  1  0.53075029  0.89700218  0.16598098  1
  H+  H157  1  0.98360132  0.09205574  0.65723063  1
  H+  H158  1  0.26181150  0.76463220  0.12832574  1
  H+  H159  1  0.10327009  0.38579021  0.35097637  1
  H+  H160  1  0.50222161  0.40471164  0.17991747  1
  H+  H161  1  0.13609388  0.86666462  0.33047942  1
  H+  H162  1  0.61936304  0.80684094  0.65197855  1
  H+  H163  1  0.36196221  0.95196884  0.01311582  1
  H+  H164  1  0.01548674  0.87153171  0.67158745  1
  H+  H165  1  0.21128643  0.85159254  0.64483516  1
  H+  H166  1  -0.07784297  0.57339980  0.00649671  1
  H+  H167  1  0.14510494  0.11304504  0.51322276  1
  H+  H168  1  0.91489498  0.33925114  0.56881892  1
  H+  H169  1  0.11861447  0.99054708  0.82129324  1
  H+  H170  1  0.84757362  0.35402398  0.82404665  1
  H+  H171  1  0.91769947  0.08904568  0.27733722  1
  H+  H172  1  0.38471098  0.61197707  0.51220534  1
  H+  H173  1  0.76413201  0.86420934  0.67042347  1
  H+  H174  1  0.37436650  0.52526831  0.54304491  1
  H+  H175  1  0.10776038  0.70865906  0.66884052  1
  H+  H176  1  0.47100461  0.84999137  0.33620519  1
  H+  H177  1  0.15406201  0.69045160  0.83199130  1
  H+  H178  1  0.86038091  0.60018946  0.16954582  1
  H+  H179  1  0.87097024  0.89936082  0.34542215  1
  H+  H180  1  0.59915674  0.33100886  0.02285172  1
  H+  H181  1  0.60970573  0.86812256  0.49714468  1
  H+  H182  1  0.54689165  0.62921851  0.99320731  1
  H+  H183  1  0.89393600  0.77848436  0.50770240  1
  H+  H184  1  0.85240445  0.13634211  0.35110328  1
  H+  H185  1  0.34649403  0.37376750  0.31388670  1
  H+  H186  1  0.54818032  0.64780398  0.81868019  1
  H+  H187  1  0.89453237  0.38234479  0.51258189  1
  H+  H188  1  0.98377924  0.88586294  0.83820599  1
  H+  H189  1  0.09289490  0.46194986  0.17094780  1
  H+  H190  1  0.89522366  0.11878355  0.83448278  1
  H+  H191  1  0.13384721  0.11478526  0.99388849  1
  H+  H192  1  0.55714032  0.71367837  0.34826548  1
  H+  H193  1  0.64492491  0.87489063  0.83175138  1
  H+  H194  1  0.48308658  0.36378772  0.84831646  1
  H+  H195  1  0.12720471  0.27830203  0.65766377  1
  H+  H196  1  0.11413335  0.98131632  0.34886707  1
  H+  H197  1  0.14131564  0.11953041  0.69054038  1
  H+  H198  1  0.75556598  0.32870957  0.15708748  1
  H+  H199  1  0.15404810  0.15239731  0.66572789  1
  H+  H200  1  1.02215603  0.13040018  0.49466898  1
  H+  H201  1  -0.02418400  0.60040692  0.66941651  1
  H+  H202  1  0.62812841  0.62112359  0.32988420  1
  H+  H203  1  0.62314426  0.46817187  0.02748031  1
  H+  H204  1  0.37887323  0.31621532  0.76365647  1
  H+  H205  1  0.63104016  0.36423256  0.36645170  1
  H+  H206  1  0.59229989  0.44293291  0.41289846  1
  H+  H207  1  0.62348635  0.49367235  0.82645540  1
  H+  H208  1  0.91393414  0.57694023  0.61169175  1
  H+  H209  1  0.89068328  0.88201518  0.83815455  1
  H+  H210  1  0.25754632  0.63387296  0.34797088  1
  H+  H211  1  0.87341463  0.61511005  0.32438134  1
  H+  H212  1  0.49143181  0.89832797  0.66424554  1
  H+  H213  1  0.52747116  0.88843529  1.00981195  1
  H+  H214  1  0.66948810  0.84353922  0.89365175  1
  H+  H215  1  0.34139663  0.96801337  0.58949558  1
  H+  H216  1  0.05466442  0.17998112  0.74077003  1
  H+  H217  1  0.36781213  0.22980975  1.01723493  1
  H+  H218  1  0.32072802  0.88924613  0.42824675  1
  H+  H219  1  0.87848634  0.74588547  0.84057909  1
  H+  H220  1  -0.03183455  0.36130985  0.34479801  1
  H+  H221  1  0.82025231  0.14808728  0.43598791  1
  H+  H222  1  0.63052944  0.19942258  0.16162119  1
  H+  H223  1  0.65120882  0.89301348  0.16873709  1
  H+  H224  1  0.38432561  0.36980066  0.49802464  1
  H+  H225  1  0.21720344  0.35780485  0.49701507  1
  H+  H226  1  0.39963496  0.11018910  0.17560803  1
  H+  H227  1  0.89276557  0.02835670  0.83566775  1
  H+  H228  1  0.12058978  0.26980440  0.33039211  1
  H+  H229  1  0.42956363  0.61706502  0.16409855  1
  H+  H230  1  0.77438723  0.89384061  0.82703779  1
  H+  H231  1  0.86117215  0.73005235  0.34975560  1
  H+  H232  1  0.87287055  0.98539455  -0.00367931  1
  H+  H233  1  0.27171485  0.40137252  0.82575569  1
  H+  H234  1  0.32962497  0.67539575  0.75776959  1
  H+  H235  1  0.49840155  0.07489105  0.99569146  1
  H+  H236  1  0.28789583  0.11104464  0.67564824  1
  H+  H237  1  0.52722591  0.24533092  0.99702222  1
  H+  H238  1  0.34047043  0.65575705  1.07836091  1
  H+  H239  1  0.56302801  0.68306385  0.12756121  1
  H+  H240  1  0.37432516  0.84494587  0.00168509  1
  H+  H241  1  0.59180291  0.41361927  0.19047963  1
  H+  H242  1  0.64161854  0.16643158  0.67507002  1
  H+  H243  1  0.45719911  0.09537093  0.32803261  1
  H+  H244  1  0.71788885  0.35847060  0.36077573  1
  H+  H245  1  0.48993923  0.13614694  0.51243456  1
  H+  H246  1  0.62170251  0.48436789  0.34759919  1
  H+  H247  1  0.10160390  0.47554134  0.02411220  1
  H+  H248  1  0.13311468  0.51460364  0.85550260  1
  H+  H249  1  0.33973712  0.17190871  0.44130210  1
  H+  H250  1  0.37018950  0.38137506  1.02111344  1
  H+  H251  1  0.78118235  0.64985714  0.50543686  1
  H+  H252  1  0.34931968  0.12106926  0.34893424  1
  H+  H253  1  0.41788937  0.14313838  0.67482610  1
  H+  H254  1  0.01352613  0.63646397  0.48978088  1
  H+  H255  1  0.83257637  0.91138410  0.43507030  1
  H+  H256  1  1.00575430  1.09692413  0.18460451  1
  H+  H257  1  0.51612274  0.62052584  0.49104536  1
  H+  H258  1  0.52669255  0.41580148  0.50191514  1
  H+  H259  1  0.35731860  0.12834024  0.84770974  1
  H+  H260  1  0.88263861  1.03125234  0.33578887  1
  H+  H261  1  0.44928518  0.59731297  0.32421178  1
  H+  H262  1  0.86497962  0.88180334  0.49475296  1
  H+  H263  1  0.37443083  0.15383516  0.50415777  1
  H+  H264  1  0.64953803  0.64291610  0.16834611  1
  H+  H265  1  0.89176446  0.26437048  0.99535126  1
  H+  H266  1  0.74719000  0.12081112  0.83801288  1
  H+  H267  1  1.01569868  0.13871090  0.34786939  1
  H+  H268  1  0.67391842  0.22352793  0.46967815  1
  H+  H269  1  0.57484351  0.04006618  0.15658642  1
  H+  H270  1  0.93990780  0.67919058  0.88087412  1
  H+  H271  1  0.75358050  0.62121591  0.15448847  1
  H+  H272  1  0.12052540  0.60991331  0.33333035  1
  H+  H273  1  0.37344168  0.47081215  0.01645202  1
  H+  H274  1  0.89237236  0.11366832  0.99305224  1
  H+  H275  1  0.78216506  0.13151290  0.00639695  1
  H+  H276  1  0.26606210  0.14337395  0.84143382  1
  H+  H277  1  0.02795230  0.14164571  0.83244654  1
  H+  H278  1  0.87301254  0.63536367  0.68975673  1
  H+  H279  1  0.11503074  0.22688404  0.16398012  1
  H+  H280  1  0.42670624  0.06234011  0.66074922  1
  H+  H281  1  0.37112942  0.00458951  0.32973518  1
  H+  H282  1  -0.03065361  0.35943513  0.84055638  1
  H+  H283  1  0.12467945  0.85720939  0.16553269  1
  H+  H284  1  0.96032932  0.61465016  0.17171224  1
  H+  H285  1  0.86952364  0.47233346  0.68179305  1
  H+  H286  1  0.61850290  0.42245453  0.50724224  1
  H+  H287  1  0.62929568  0.10293625  0.33136583  1
  H+  H288  1  0.41274910  0.07613399  0.90748613  1
  H+  H289  1  0.98642441  0.01677279  0.62210745  1
  H+  H290  1  0.58172130  0.43095843  0.73291108  1
  H+  H291  1  0.31790428  0.51322315  0.95686573  1
  H+  H292  1  0.04510540  0.66652030  0.09705380  1
  H+  H293  1  -0.03557360  0.84797262  0.14441948  1
  H+  H294  1  0.92499246  0.85624393  0.92423325  1
  H+  H295  1  0.62232721  0.54373706  0.17934843  1
  H+  H296  1  0.84266607  0.69677272  0.12885664  1
  H+  H297  1  0.21602773  0.66560682  0.91304880  1
  H+  H298  1  0.45010352  0.12439536  0.57785666  1
  H+  H299  1  0.01981742  0.39868266  0.51041016  1
  H+  H300  1  0.58554173  0.93155345  0.10449639  1
  H+  H301  1  0.17916641  0.54535411  0.95053052  1
  H+  H302  1  0.83661507  0.16206368  0.06789061  1
  H+  H303  1  0.07953122  0.92068959  0.08812016  1
  H+  H304  1  0.10679750  0.61977111  0.67059063  1
  H+  H305  1  0.38781367  0.58173222  0.26691389  1
  H+  H306  1  0.42306407  0.60053236  0.88629535  1
  H+  H307  1  0.43572999  0.33200448  0.95073160  1
  H+  H308  1  0.86098721  0.67808802  0.74994473  1
  H+  H309  1  0.59785024  0.19238995  0.02911027  1
  H+  H310  1  0.31758296  0.39639955  0.41266401  1
  H+  H311  1  0.10018559  0.67789212  0.76885585  1
  H+  H312  1  0.39289606  0.28663470  0.50714355  1
  H+  H313  1  0.63668417  0.26899645  0.42773310  1
  H+  H314  1  0.60972042  0.30288488  0.91893504  1
  H+  H315  1  0.16576976  0.33105888  0.59567937  1
  H+  H316  1  0.28140016  0.98953656  0.62793403  1
  H+  H317  1  0.65382917  0.60128529  0.99781145  1
  H+  H318  1  0.31842589  0.41975751  0.11149891  1
  H+  H319  1  0.08051561  0.16679412  0.40499425  1
  H+  H320  1  0.68078440  0.58298886  0.90367149  1
  H+  H321  1  0.55689511  0.65218355  0.40080063  1
  H+  H322  1  0.30521334  0.85695286  0.10015606  1
  H+  H323  1  0.06001541  0.66190639  0.39438293  1
  H+  H324  1  0.07535971  0.40796528  0.07815735  1
  H+  H325  1  0.40416255  0.81246306  0.94456094  1
  H+  H326  1  0.13225590  0.36302170  0.50926886  1
  H+  H327  1  0.92194454  0.08812796  0.93056934  1
  H+  H328  1  0.23776962  0.12058703  0.50728131  1
  H+  H329  1  0.82313717  0.37472028  0.09188911  1
  H+  H330  1  0.57914894  0.42118398  0.09103998  1
  H+  H331  1  0.62930737  0.65490428  0.72360274  1
  H+  H332  1  0.84288167  0.92655609  0.05687447  1
  H+  H333  1  0.76968121  0.61110273  0.05247560  1
  H+  H334  1  0.66284349  0.80644439  0.55957600  1
  H+  H335  1  0.56521021  0.30729095  0.25358765  1
  H+  H336  1  0.10606126  0.47099577  0.67071093  1
  H+  H337  1  0.33044841  0.15615987  0.73874274  1
  H+  H338  1  0.60341676  0.35127488  0.24711834  1
  H+  H339  1  0.09058323  0.92111226  0.40865488  1
  H+  H340  1  0.92023121  0.06635201  0.56033148  1
  H+  H341  1  0.61872625  0.68802556  0.04018094  1
  H+  H342  1  0.56260728  0.14774666  0.39301771  1
  H+  H343  1  0.20078913  0.83335146  0.16947965  1
  H+  H344  1  0.19928966  0.04820419  0.59296185  1
  H+  H345  1  0.63359288  0.03848449  0.66853774  1
  H+  H346  1  0.33895608  0.17903610  0.11301730  1
  H+  H347  1  0.66605827  0.60289286  0.27024547  1
  H+  H348  1  0.16671849  0.41075650  0.99372069  1
  H+  H349  1  0.68319541  0.08585737  0.93203621  1
  H+  H350  1  0.65781180  0.62450045  0.84629745  1
  H+  H351  1  0.57643336  0.11581596  0.07800276  1
  H+  H352  1  0.68224118  0.85062435  0.25498703  1
  H+  H353  1  0.78091705  0.89637531  0.33631903  1
  H+  H354  1  0.90975890  0.31907642  0.24865605  1
  H+  H355  1  0.89036898  0.79629494  0.19222177  1
  H+  H356  1  0.88198591  0.97569218  0.15687222  1
  H+  H357  1  0.18175591  0.36173392  0.89889158  1
  H+  H358  1  0.64169596  0.54898954  0.52660105  1
  H+  H359  1  0.17003316  0.09597667  0.90113489  1
  H+  H360  1  0.15578018  0.83315935  0.26819130  1
  H+  H361  1  0.49966379  0.29649299  0.87698279  1
  H+  H362  1  0.90057849  0.58653333  0.23993753  1
  H+  H363  1  0.33104897  0.42814446  0.72709570  1
  H+  H364  1  0.97974367  0.02094441  0.23054949  1
  H+  H365  1  0.32175168  0.94343555  0.76420956  1
  H+  H366  1  0.34414042  0.46037436  0.32422424  1
  H+  H367  1  0.81784508  0.38245086  0.75592120  1
  H+  H368  1  0.07919972  0.90745580  0.72990929  1
  H+  H369  1  0.61908928  0.97588109  0.00506924  1
  H+  H370  1  0.42406619  0.82623064  0.24274011  1
  H+  H371  1  0.67354056  0.08167879  0.58374633  1
  H+  H372  1  0.83035549  0.66787503  0.44111795  1
  H+  H373  1  0.08198690  0.42010566  0.41268995  1
  H+  H374  1  0.93203472  0.84723132  0.28784853  1
  H+  H375  1  0.06461743  0.38461343  0.75371866  1
  H+  H376  1  0.14717543  0.32110975  0.23538659  1
  H+  H377  1  0.12455865  0.52325491  0.33900938  1
  H+  H378  1  0.16614509  0.83911350  0.93262469  1
  H+  H379  1  0.43559758  0.36815124  0.59430474  1
  H+  H380  1  0.83526778  0.43157670  0.44184553  1
  H+  H381  1  0.86240268  0.37788397  0.67330219  1
  H+  H382  1  0.15745784  0.82044020  0.55877446  1
  H+  H383  1  0.14249652  0.57129748  0.24077876  1
  O2-  O384  1  0.09278155  0.16576217  0.14774781  1
  O2-  O385  1  0.08352792  0.16151083  0.48219633  1
  O2-  O386  1  0.08787208  0.17432161  0.81456904  1
  O2-  O387  1  0.06437915  0.40198475  0.15357799  1
  O2-  O388  1  0.08372553  0.42268328  0.49642074  1
  O2-  O389  1  0.05042136  0.35707256  0.79613140  1
  O2-  O390  1  0.04794095  0.66206194  0.14155118  1
  O2-  O391  1  0.06697182  0.66385257  0.46481557  1
  O2-  O392  1  0.10708432  0.69632341  0.81223482  1
  O2-  O393  1  0.07186556  0.91215588  0.13351308  1
  O2-  O394  1  0.08966110  0.91924930  0.48417624  1
  O2-  O395  1  0.08577298  0.92945811  0.80906460  1
  O2-  O396  1  0.34043899  0.17312453  0.15780861  1
  O2-  O397  1  0.34143951  0.18010678  0.48718856  1
  O2-  O398  1  0.33216175  0.16778611  0.82959887  1
  O2-  O399  1  0.30466199  0.42559652  0.15426186  1
  O2-  O400  1  0.32023703  0.40664152  0.45799989  1
  O2-  O401  1  0.33130431  0.43586185  0.80778460  1
  O2-  O402  1  0.34871529  0.65868826  0.15706234  1
  O2-  O403  1  0.34206552  0.66067565  0.48586761  1
  O2-  O404  1  0.34608054  0.68913229  0.80176474  1
  O2-  O405  1  0.28739823  0.82496881  0.13975447  1
  O2-  O406  1  0.32010967  0.88851325  0.47592544  1
  O2-  O407  1  0.33180883  0.93341925  0.80625422  1
  O2-  O408  1  0.56579322  0.08920223  0.14942446  1
  O2-  O409  1  0.62158963  0.22617238  0.46336525  1
  O2-  O410  1  0.65782039  0.22004634  0.80972483  1
  O2-  O411  1  0.56403688  0.43760598  0.16518689  1
  O2-  O412  1  0.58872807  0.45304849  0.49163345  1
  O2-  O413  1  0.58611753  0.43416719  0.80900895  1
  O2-  O414  1  0.62517986  0.71022879  0.12420395  1
  O2-  O415  1  0.57017997  0.64824999  0.46733094  1
  O2-  O416  1  0.61048329  0.67472654  0.81050018  1
  O2-  O417  1  0.58842337  0.93937376  0.14972667  1
  O2-  O418  1  0.58123954  0.90169750  0.48372158  1
  O2-  O419  1  0.60239589  0.94059862  0.80442864  1
  O2-  O420  1  0.81225413  0.16417465  0.14364465  1
  O2-  O421  1  0.82261201  0.14224199  0.48471835  1
  O2-  O422  1  0.84668613  0.16896516  0.80682573  1
  O2-  O423  1  0.81766146  0.37194160  0.14775836  1
  O2-  O424  1  0.83717995  0.43290779  0.48718904  1
  O2-  O425  1  0.80022714  0.35861319  0.80099880  1
  O2-  O426  1  0.80688938  0.63334249  0.13054010  1
  O2-  O427  1  0.83893522  0.67586436  0.48584177  1
  O2-  O428  1  0.86137004  0.68489271  0.83338050  1
  O2-  O429  1  0.83945656  0.92405184  0.13336251  1
  O2-  O430  1  0.83136331  0.90958791  0.48047962  1
  O2-  O431  1  0.83552441  0.92374938  0.81122054  1
  O2-  O432  1  0.18824078  0.06091999  0.19981503  1
  O2-  O433  1  0.17756722  0.08328840  0.52343040  1
  O2-  O434  1  0.17682021  0.10070346  0.85520066  1
  O2-  O435  1  0.14741536  0.31966628  0.18976029  1
  O2-  O436  1  0.16104457  0.32864185  0.51842774  1
  O2-  O437  1  0.17418280  0.34162825  0.85558331  1
  O2-  O438  1  0.13618086  0.56368982  0.19575908  1
  O2-  O439  1  0.13411624  0.50602571  0.52058869  1
  O2-  O440  1  0.23693702  0.70533678  0.87838128  1
  O2-  O441  1  0.14412205  0.82079447  0.18644532  1
  O2-  O442  1  0.16768322  0.83070443  0.51388702  1
  O2-  O443  1  0.17033478  0.85440693  0.85611585  1
  O2-  O444  1  0.41797526  0.07028462  0.19066540  1
  O2-  O445  1  0.43525013  0.10957977  0.53412463  1
  O2-  O446  1  0.39758932  0.08382385  0.86533653  1
  O2-  O447  1  0.40791946  0.33733143  0.20996851  1
  O2-  O448  1  0.41927838  0.34881970  0.51893589  1
  O2-  O449  1  0.45236241  0.31142100  0.87412290  1
  O2-  O450  1  0.37577356  0.60178123  0.18514637  1
  O2-  O451  1  0.41683549  0.58248621  0.52963317  1
  O2-  O452  1  0.43178294  0.60734099  0.84165599  1
  O2-  O453  1  0.42723710  0.82307232  0.19713815  1
  O2-  O454  1  0.41546304  0.83443841  0.52492953  1
  O2-  O455  1  0.42343101  0.85775023  0.79085559  1
  O2-  O456  1  0.79173780  0.08709011  0.17948492  1
  O2-  O457  1  0.67090741  0.07008944  0.53666806  1
  O2-  O458  1  0.68725020  0.09838766  0.85413131  1
  O2-  O459  1  0.65320245  0.26237535  0.16089164  1
  O2-  O460  1  0.67389369  0.37269607  0.53039315  1
  O2-  O461  1  0.59580947  0.30413708  0.87544583  1
  O2-  O462  1  0.66673550  0.60459610  0.18926777  1
  O2-  O463  1  0.68444536  0.60583412  0.54600142  1
  O2-  O464  1  0.68444644  0.58930816  0.85895486  1
  O2-  O465  1  0.68160233  0.86101715  0.18029243  1
  O2-  O466  1  0.66077172  0.81375615  0.51449199  1
  O2-  O467  1  0.67293621  0.84302168  0.84768774  1
  O2-  O468  1  0.95521566  0.04995348  0.20763862  1
  O2-  O469  1  0.91118037  0.07132559  0.51613202  1
  O2-  O470  1  0.92522613  0.08858193  0.85172960  1
  O2-  O471  1  0.90803858  0.31225952  0.20349222  1
  O2-  O472  1  0.92511232  0.35129959  0.52441795  1
  O2-  O473  1  0.91081232  0.33504448  0.85825767  1
  O2-  O474  1  0.89971795  0.58261402  0.19114269  1
  O2-  O475  1  0.91965509  0.59216959  0.53340866  1
  O2-  O476  1  0.99445121  0.68709530  0.89823015  1
  O2-  O477  1  0.90022187  0.81036158  0.14907492  1
  O2-  O478  1  0.92368587  0.83907946  0.52383485  1
  O2-  O479  1  0.92490775  0.85671158  0.85667163  1
  O2-  O480  1  0.15722369  0.08229858  0.32248189  1
  O2-  O481  1  0.21416951  0.02727603  0.63046475  1
  O2-  O482  1  0.16658665  0.08615980  0.97567848  1
  O2-  O483  1  0.14703463  0.32910499  0.31318698  1
  O2-  O484  1  0.16676467  0.33596897  0.64126139  1
  O2-  O485  1  0.21368102  0.41449692  0.96736946  1
  O2-  O486  1  0.15448486  0.58218413  0.32122360  1
  O2-  O487  1  0.15318245  0.56536735  0.63740551  1
  O2-  O488  1  0.17618559  0.58341538  0.98102544  1
  O2-  O489  1  0.16185672  0.83322696  0.31312067  1
  O2-  O490  1  0.15007830  0.81140479  0.63653139  1
  O2-  O491  1  0.16455966  0.83628212  0.97846895  1
  O2-  O492  1  0.39621467  0.06402956  0.31416301  1
  O2-  O493  1  0.45916829  0.12520001  0.65741189  1
  O2-  O494  1  0.44609310  0.03571575  0.96930726  1
  O2-  O495  1  0.41074787  0.34064526  0.26924326  1
  O2-  O496  1  0.44247224  0.37571695  0.63960448  1
  O2-  O497  1  0.42667835  0.33103116  0.99548300  1
  O2-  O498  1  0.38803559  0.56854884  0.31045029  1
  O2-  O499  1  0.41170441  0.60506091  0.65873613  1
  O2-  O500  1  0.37851500  0.55843364  0.96412709  1
  O2-  O501  1  0.41153329  0.82296750  0.31917920  1
  O2-  O502  1  0.42384901  0.85754279  0.64969659  1
  O2-  O503  1  0.41108751  0.81990883  0.98853428  1
  O2-  O504  1  0.66722541  0.07820949  0.32563824  1
  O2-  O505  1  0.67320847  0.09960792  0.65066206  1
  O2-  O506  1  0.68203137  0.07813922  0.97732369  1
  O2-  O507  1  0.65470518  0.32302849  0.36785853  1
  O2-  O508  1  0.67489861  0.36089012  0.65096635  1
  O2-  O509  1  0.58967434  0.27844697  1.00022594  1
  O2-  O510  1  0.66695945  0.60075508  0.31545506  1
  O2-  O511  1  0.69381244  0.58702180  0.60508081  1
  O2-  O512  1  0.67912978  0.56200832  0.98849479  1
  O2-  O513  1  0.68094385  0.84025502  0.30045715  1
  O2-  O514  1  0.66614282  0.79945407  0.63683957  1
  O2-  O515  1  0.67058733  0.84181313  0.96882257  1
  O2-  O516  1  0.91059143  0.09252841  0.32165059  1
  O2-  O517  1  0.94944473  0.04094031  0.63033709  1
  O2-  O518  1  0.92222843  0.08371317  0.97589149  1
  O2-  O519  1  0.90808194  0.33238570  0.32812600  1
  O2-  O520  1  0.90655134  0.32537159  0.64700636  1
  O2-  O521  1  0.91857868  0.32583193  0.98126663  1
  O2-  O522  1  0.90309505  0.58629909  0.30486505  1
  O2-  O523  1  0.91386393  0.57000473  0.65700181  1
  O2-  O524  1  0.86292362  0.52728591  0.99923267  1
  O2-  O525  1  0.92539299  0.84474414  0.33184164  1
  O2-  O526  1  0.91588577  0.82108846  0.64753767  1
  O2-  O527  1  0.92468644  0.85377992  0.97182453  1
  O2-  O528  1  0.08753887  0.16067024  0.01932807  1
  O2-  O529  1  0.07772242  0.16707787  0.35933239  1
  O2-  O530  1  0.03347192  0.18392572  0.69919109  1
  O2-  O531  1  0.08067585  0.41433877  0.03225320  1
  O2-  O532  1  0.07410070  0.41622973  0.36780209  1
  O2-  O533  1  0.07669058  0.40894850  0.68420900  1
  O2-  O534  1  0.04336677  0.66060988  0.00209435  1
  O2-  O535  1  0.06034822  0.66152164  0.34754475  1
  O2-  O536  1  0.08171701  0.65246645  0.69024238  1
  O2-  O537  1  0.08248041  0.92227482  0.01190318  1
  O2-  O538  1  0.08664276  0.91985990  0.36284250  1
  O2-  O539  1  0.07750647  0.89776867  0.68518021  1
  O2-  O540  1  0.32927612  0.16916682  0.03239596  1
  O2-  O541  1  0.32722266  0.15577676  0.36863752  1
  O2-  O542  1  0.34105301  0.15726483  0.69505170  1
  O2-  O543  1  0.34011264  0.41257436  0.03405049  1
  O2-  O544  1  0.31662202  0.39881375  0.33678978  1
  O2-  O545  1  0.33456418  0.42962797  0.68194737  1
  O2-  O546  1  0.33412790  0.65620984  0.03322110  1
  O2-  O547  1  0.31950540  0.66199807  0.36091383  1
  O2-  O548  1  0.31665759  0.67310638  0.68025348  1
  O2-  O549  1  0.32141828  0.89249899  0.02701780  1
  O2-  O550  1  0.32273499  0.89580983  0.36025991  1
  O2-  O551  1  0.31759708  0.96080588  0.63041824  1
  O2-  O552  1  0.58302911  0.13142548  0.03317679  1
  O2-  O553  1  0.56382081  0.15086535  0.34834206  1
  O2-  O554  1  0.61944505  0.20286661  0.69402911  1
  O2-  O555  1  0.58355908  0.41132660  0.04672997  1
  O2-  O556  1  0.59501911  0.42918928  0.36933029  1
  O2-  O557  1  0.58235621  0.43071034  0.68700253  1
  O2-  O558  1  0.60780690  0.65464964  0.00239425  1
  O2-  O559  1  0.55226769  0.65754802  0.35344587  1
  O2-  O560  1  0.62223623  0.65296843  0.67921885  1
  O2-  O561  1  0.58669077  0.91882493  0.02597715  1
  O2-  O562  1  0.57885926  0.90293475  0.35826502  1
  O2-  O563  1  0.57497822  0.94487833  0.68704477  1
  O2-  O564  1  0.84250443  0.16358431  0.02260852  1
  O2-  O565  1  0.81987934  0.16041263  0.37253937  1
  O2-  O566  1  0.83218929  0.17259599  0.69360074  1
  O2-  O567  1  0.82029516  0.37659881  0.03772884  1
  O2-  O568  1  0.82919459  0.42174759  0.36251962  1
  O2-  O569  1  0.83443515  0.40904015  0.69323267  1
  O2-  O570  1  0.77003717  0.61288410  0.00702176  1
  O2-  O571  1  0.82857848  0.66800231  0.35959557  1
  O2-  O572  1  0.85516462  0.67586583  0.70505745  1
  O2-  O573  1  0.84459026  0.92353724  0.01136435  1
  O2-  O574  1  0.83760307  0.92779387  0.35740773  1
  O2-  O575  1  0.82279071  0.89538887  0.68925469  1
