# generated using pymatgen
data_H2O
_symmetry_space_group_name_H-M   'P 1'
_cell_length_a   17.98682734
_cell_length_b   17.99143774
_cell_length_c   22.00040416
_cell_angle_alpha   89.97751057
_cell_angle_beta   90.02615870
_cell_angle_gamma   119.98616508
_symmetry_Int_Tables_number   1
_chemical_formula_structural   H2O
_chemical_formula_sum   'H384 O192'
_cell_volume   6166.54921118
_cell_formula_units_Z   192
loop_
 _symmetry_equiv_pos_site_id
 _symmetry_equiv_pos_as_xyz
  1  'x, y, z'
loop_
 _atom_type_symbol
 _atom_type_oxidation_number
  H+  1.0
  O2-  -2.0
loop_
 _atom_site_type_symbol
 _atom_site_label
 _atom_site_symmetry_multiplicity
 _atom_site_fract_x
 _atom_site_fract_y
 _atom_site_fract_z
 _atom_site_occupancy
  H+  H0  1  0.88609810  0.17038816  0.00917226  1
  H+  H1  1  0.34203195  0.66545984  0.42236619  1
  H+  H2  1  0.25249153  0.38440326  0.13972052  1
  H+  H3  1  0.77363473  0.38579771  0.65658569  1
  H+  H4  1  1.01860588  0.87754386  0.32487241  1
  H+  H5  1  0.65947188  0.83240248  0.23361101  1
  H+  H6  1  0.52239619  0.14622041  0.83217736  1
  H+  H7  1  -0.02505388  0.11488426  0.49957543  1
  H+  H8  1  0.85989605  0.97818151  0.84495154  1
  H+  H9  1  0.40519975  0.57267412  0.21685591  1
  H+  H10  1  -0.02064356  0.35573953  0.65791899  1
  H+  H11  1  1.09203212  0.66556806  0.39606315  1
  H+  H12  1  0.99753084  0.89282720  0.17453370  1
  H+  H13  1  1.02562682  0.12875542  0.16424434  1
  H+  H14  1  0.74119938  0.86888206  0.80899724  1
  H+  H15  1  0.48685679  0.88388590  -0.00032201  1
  H+  H16  1  0.37577740  0.10817535  0.83148991  1
  H+  H17  1  0.35253437  0.46877914  0.83307090  1
  H+  H18  1  0.70365121  0.83242469  0.33337715  1
  H+  H19  1  0.68353910  0.08758514  0.61646231  1
  H+  H20  1  0.16183879  0.77918741  0.50394566  1
  H+  H21  1  0.38213191  1.02307717  0.83395147  1
  H+  H22  1  0.11964188  0.63909595  0.33376428  1
  H+  H23  1  0.88763954  0.77168022  0.50332450  1
  H+  H24  1  0.28401404  0.88985954  0.15606501  1
  H+  H25  1  0.61331671  0.50393759  0.16553337  1
  H+  H26  1  0.84975719  0.39456894  0.01318031  1
  H+  H27  1  0.38303084  0.37066664  0.67370976  1
  H+  H28  1  0.61497056  0.37413129  0.50097136  1
  H+  H29  1  0.14479049  0.11695073  0.27790978  1
  H+  H30  1  0.60274377  0.17878195  0.60512248  1
  H+  H31  1  0.87802345  0.52828485  0.83587260  1
  H+  H32  1  0.29896532  0.62717407  0.48621778  1
  H+  H33  1  0.73386095  0.04628012  0.54988554  1
  H+  H34  1  0.64392428  0.77256539  0.81431106  1
  H+  H35  1  0.52267716  0.14525133  0.48078681  1
  H+  H36  1  0.23339142  0.61141409  0.67579494  1
  H+  H37  1  0.88975520  0.60740503  0.32360845  1
  H+  H38  1  0.14497332  0.61885318  0.16599504  1
  H+  H39  1  0.53168606  0.88291492  0.82351251  1
  H+  H40  1  0.14684135  0.85989256  0.16842889  1
  H+  H41  1  0.22801257  0.85724578  0.66233936  1
  H+  H42  1  0.63820604  0.53118452  0.66128646  1
  H+  H43  1  0.62198024  0.89159940  0.66658009  1
  H+  H44  1  0.71396701  0.36110835  0.84748980  1
  H+  H45  1  0.61636276  0.22799314  0.19751549  1
  H+  H46  1  0.26882256  0.38758515  0.68099537  1
  H+  H47  1  0.15765752  0.11642015  0.65941434  1
  H+  H48  1  0.82143418  0.40906062  0.11315851  1
  H+  H49  1  0.61497634  0.89724046  1.02838758  1
  H+  H50  1  0.89412288  0.72964872  0.15705262  1
  H+  H51  1  0.13331389  0.01505099  0.49844998  1
  H+  H52  1  0.12048185  0.97342083  0.83630298  1
  H+  H53  1  1.02115208  0.64073562  0.82981660  1
  H+  H54  1  0.52500287  0.64860245  0.67737327  1
  H+  H55  1  0.14473166  0.52679813  0.31786421  1
  H+  H56  1  0.66225312  0.08589890  0.22938700  1
  H+  H57  1  0.86412594  0.88274542  0.65979699  1
  H+  H58  1  0.48340093  0.68153107  0.46633128  1
  H+  H59  1  0.11458646  0.12445391  0.17156870  1
  H+  H60  1  0.97333457  0.11301650  0.85536037  1
  H+  H61  1  0.84753062  0.35702425  0.81757461  1
  H+  H62  1  0.89410246  0.78115128  0.85090296  1
  H+  H63  1  0.95651304  0.67620102  0.69020661  1
  H+  H64  1  0.88575263  0.10396707  0.64928933  1
  H+  H65  1  0.64814143  0.01834426  0.51646864  1
  H+  H66  1  0.59503826  0.71651558  0.33229431  1
  H+  H67  1  0.13880075  0.23708362  0.67328854  1
  H+  H68  1  0.90242632  0.30571621  -0.00439093  1
  H+  H69  1  0.14222451  0.86649607  0.33200980  1
  H+  H70  1  0.65837846  0.54556758  0.49038471  1
  H+  H71  1  0.62034462  0.65302375  0.84940300  1
  H+  H72  1  0.77887824  0.64484396  0.48990953  1
  H+  H73  1  0.24621783  0.61882957  0.15932939  1
  H+  H74  1  0.87658935  0.73024694  1.00892938  1
  H+  H75  1  0.10002109  0.73055447  0.67464355  1
  H+  H76  1  0.89803783  0.60690156  0.17151402  1
  H+  H77  1  0.96965384  0.69090088  0.55990654  1
  H+  H78  1  0.38505908  0.35935242  0.84706470  1
  H+  H79  1  0.23411786  0.85292202  0.99644109  1
  H+  H80  1  0.86753283  0.47060795  0.16911963  1
  H+  H81  1  0.88627351  0.03206103  0.17219275  1
  H+  H82  1  0.23146954  0.85928665  0.84139943  1
  H+  H83  1  0.88378302  0.75050565  0.32298580  1
  H+  H84  1  0.23574834  0.11533299  1.00430472  1
  H+  H85  1  0.13487552  0.27159249  0.32265338  1
  H+  H86  1  0.40234601  0.76997896  0.65820351  1
  H+  H87  1  0.78422369  0.14243846  0.48374099  1
  H+  H88  1  0.13078085  0.26443114  0.84920423  1
  H+  H89  1  0.61105457  0.14703619  0.83394571  1
  H+  H90  1  0.09840789  0.23992168  0.49505309  1
  H+  H91  1  0.36187065  0.63537836  0.32781347  1
  H+  H92  1  0.75876807  0.39095622  1.01699423  1
  H+  H93  1  0.06768825  0.18900059  0.43193773  1
  H+  H94  1  0.79309620  0.13246149  0.67686155  1
  H+  H95  1  0.26656211  0.12396111  0.17235534  1
  H+  H96  1  0.60270775  0.73010683  0.16169567  1
  H+  H97  1  0.49091526  0.61982040  0.99540874  1
  H+  H98  1  0.38248548  0.25987780  0.33322262  1
  H+  H99  1  0.99716283  0.58149811  0.64598972  1
  H+  H100  1  0.62046824  0.48994959  1.01682227  1
  H+  H101  1  0.01410182  0.63564739  0.00696175  1
  H+  H102  1  0.67132569  0.59379764  0.91037210  1
  H+  H103  1  0.44234014  0.31605205  0.42466859  1
  H+  H104  1  0.64625032  0.02867125  0.67375027  1
  H+  H105  1  0.46998445  0.60672209  0.16145451  1
  H+  H106  1  0.62375792  0.65620238  0.16510718  1
  H+  H107  1  0.55633545  0.65576785  0.38999608  1
  H+  H108  1  0.64602632  0.63321900  0.00143156  1
  H+  H109  1  0.87774198  0.15271902  0.32619978  1
  H+  H110  1  1.03903607  0.39430690  0.33161657  1
  H+  H111  1  0.74531045  0.91258230  0.02271675  1
  H+  H112  1  0.38978362  0.35352650  0.33294690  1
  H+  H113  1  0.62769211  0.40126197  0.29496551  1
  H+  H114  1  0.29102428  0.63856064  -0.01059116  1
  H+  H115  1  0.35565178  0.47768726  0.68906678  1
  H+  H116  1  0.86705172  0.14240717  0.15636945  1
  H+  H117  1  0.37111353  0.88843689  0.82728212  1
  H+  H118  1  0.11970155  0.88440577  0.83201849  1
  H+  H119  1  0.04059080  0.66176201  0.49025411  1
  H+  H120  1  0.13530936  0.36329440  0.66800371  1
  H+  H121  1  0.90711924  0.77473354  0.66130280  1
  H+  H122  1  0.37102751  -0.01845749  0.15967012  1
  H+  H123  1  0.13795940  0.37859151  0.50874354  1
  H+  H124  1  0.15489984  0.41006971  1.02093008  1
  H+  H125  1  0.13979523  0.10669644  1.00169061  1
  H+  H126  1  0.89685435  0.27391839  0.49712213  1
  H+  H127  1  0.26632638  0.12152678  0.31792193  1
  H+  H128  1  0.27407261  0.38091047  0.32453344  1
  H+  H129  1  0.64458534  0.14670731  0.99777319  1
  H+  H130  1  0.62968951  0.85929153  0.32925517  1
  H+  H131  1  0.53260301  0.89053731  0.66726423  1
  H+  H132  1  0.30862154  0.71886957  0.69880876  1
  H+  H133  1  0.10514081  0.37884077  0.83409552  1
  H+  H134  1  0.88660803  0.04543523  1.00701854  1
  H+  H135  1  0.74761046  0.35816368  0.21137432  1
  H+  H136  1  0.36680170  -0.03141903  0.66765297  1
  H+  H137  1  0.52482723  0.89318130  0.49556556  1
  H+  H138  1  0.36178356  -0.01899948  0.33826940  1
  H+  H139  1  0.37925275  0.51920076  0.31121580  1
  H+  H140  1  1.02967624  0.62815260  0.15990440  1
  H+  H141  1  0.11506566  0.11835340  0.84207400  1
  H+  H142  1  0.10289934  0.47582270  0.49566748  1
  H+  H143  1  0.12441830  0.97789550  0.17060155  1
  H+  H144  1  0.63940434  0.86287438  0.49736174  1
  H+  H145  1  0.37952545  0.50527091  0.52998945  1
  H+  H146  1  0.65679005  0.02904455  0.99242216  1
  H+  H147  1  0.88932990  0.27195673  0.16567634  1
  H+  H148  1  0.79151457  0.16416966  0.33169080  1
  H+  H149  1  0.28683359  0.88767848  0.49450102  1
  H+  H150  1  0.81728630  0.39690904  0.42498381  1
  H+  H151  1  0.37496120  0.02133347  0.99173627  1
  H+  H152  1  0.63858854  0.53283875  0.85029298  1
  H+  H153  1  0.62789442  0.36649152  1.00347002  1
  H+  H154  1  0.82498092  0.82539491  0.34875896  1
  H+  H155  1  0.36139648  0.36190615  0.47496298  1
  H+  H156  1  0.76567971  0.64389552  0.84021038  1
  H+  H157  1  0.94514237  0.59424108  0.56325405  1
  H+  H158  1  0.46718337  0.60780179  0.31205737  1
  H+  H159  1  0.61079734  0.64575990  0.66695340  1
  H+  H160  1  0.42610000  0.58429720  0.77487962  1
  H+  H161  1  0.62803372  0.21989249  1.01805860  1
  H+  H162  1  0.89276640  0.36402310  0.16800456  1
  H+  H163  1  0.63775394  0.02863948  0.83293197  1
  H+  H164  1  0.11039915  0.63466742  0.49691088  1
  H+  H165  1  0.86424757  0.46986033  0.33086880  1
  H+  H166  1  0.53856017  0.38362149  0.32615291  1
  H+  H167  1  0.22119605  0.36756456  0.51112593  1
  H+  H168  1  0.47978087  0.10437613  0.64517223  1
  H+  H169  1  0.24110108  0.10810513  0.65587537  1
  H+  H170  1  0.86666433  0.89208919  0.84185428  1
  H+  H171  1  0.98695805  0.86737833  0.84554541  1
  H+  H172  1  0.69071689  0.26916824  0.32121396  1
  H+  H173  1  0.63925526  0.52585697  0.31525489  1
  H+  H174  1  0.39250485  0.77581441  0.84298212  1
  H+  H175  1  0.08166739  0.57189836  0.98923309  1
  H+  H176  1  0.77143354  0.62793868  0.33757989  1
  H+  H177  1  0.86184305  0.14332115  0.84016840  1
  H+  H178  1  0.21823436  0.35389809  0.84935596  1
  H+  H179  1  0.23028578  0.10819525  0.85587122  1
  H+  H180  1  0.61405900  0.40130965  0.67980424  1
  H+  H181  1  0.14978979  0.85931875  -0.00193464  1
  H+  H182  1  0.38365480  0.85836325  0.33442085  1
  H+  H183  1  0.12358024  0.97863876  0.67492256  1
  H+  H184  1  0.39383103  0.10745016  0.65147639  1
  H+  H185  1  0.86499027  0.89893457  0.15814891  1
  H+  H186  1  0.13441843  -0.01872108  1.01304847  1
  H+  H187  1  0.91788781  0.96205827  0.32490842  1
  H+  H188  1  0.77634774  0.14088731  0.15967704  1
  H+  H189  1  0.25650812  0.11109010  0.48633817  1
  H+  H190  1  0.37678343  -0.02172977  0.48949594  1
  H+  H191  1  0.92199336  0.87219501  1.00220306  1
  H+  H192  1  0.11332706  0.72664100  0.83016977  1
  H+  H193  1  0.59494778  0.35809116  0.16674768  1
  H+  H194  1  0.64473458  0.86608300  0.80233113  1
  H+  H195  1  0.85183829  0.37654110  0.48357518  1
  H+  H196  1  0.64305309  1.02737687  0.17161175  1
  H+  H197  1  0.60606582  0.74158734  1.02393328  1
  H+  H198  1  0.27184556  0.63590909  0.83507014  1
  H+  H199  1  0.72435683  0.62033220  0.65314491  1
  H+  H200  1  0.93347172  -0.02272339  0.35677754  1
  H+  H201  1  0.37466601  0.63181987  -0.00117405  1
  H+  H202  1  0.05146321  0.10816835  0.78846891  1
  H+  H203  1  0.38005984  0.10323321  0.49331291  1
  H+  H204  1  0.11257454  0.47084357  0.68131511  1
  H+  H205  1  0.37813313  0.23125033  0.66976097  1
  H+  H206  1  0.86402722  0.87924666  0.49821357  1
  H+  H207  1  0.12260139  0.47919762  1.01512345  1
  H+  H208  1  0.12218491  0.22237907  0.01730140  1
  H+  H209  1  0.38156641  0.09780852  0.32491097  1
  H+  H210  1  0.63600942  0.77681876  0.65332333  1
  H+  H211  1  1.00226150  0.14475358  0.32800448  1
  H+  H212  1  0.61299234  0.89202551  0.16330230  1
  H+  H213  1  0.11049801  0.71738047  1.00412300  1
  H+  H214  1  0.07579699  0.12464335  0.35722880  1
  H+  H215  1  0.35288507  0.13340728  0.00995047  1
  H+  H216  1  0.88376096  0.10755251  0.49562349  1
  H+  H217  1  0.53336846  0.65488129  0.83577735  1
  H+  H218  1  0.88185735  0.21685415  0.66212825  1
  H+  H219  1  0.77410956  0.14424201  0.83183122  1
  H+  H220  1  0.13001377  0.51735683  0.83875358  1
  H+  H221  1  0.14326762  0.86555945  0.66061559  1
  H+  H222  1  0.63185478  0.12690261  0.32167244  1
  H+  H223  1  0.59824237  0.97597117  0.33956987  1
  H+  H224  1  0.62402257  0.14307659  0.66248870  1
  H+  H225  1  0.74921387  0.11774200  -0.01177856  1
  H+  H226  1  0.63392724  0.28907359  0.65643166  1
  H+  H227  1  0.10377790  0.96765334  0.31024529  1
  H+  H228  1  0.36834946  0.88091915  0.66975279  1
  H+  H229  1  0.36919692  0.88798014  1.00547247  1
  H+  H230  1  0.58043945  0.72031608  0.48540412  1
  H+  H231  1  0.81708179  0.90275542  -0.00914810  1
  H+  H232  1  0.58510782  0.91780790  0.76091387  1
  H+  H233  1  0.38198388  0.37084407  0.98142992  1
  H+  H234  1  0.17449160  0.82981165  0.90249746  1
  H+  H235  1  0.16945069  0.32824319  0.94277432  1
  H+  H236  1  0.35461253  0.21428065  0.16751645  1
  H+  H237  1  0.38539296  0.61787117  0.82277692  1
  H+  H238  1  0.61408718  0.14568310  0.17022078  1
  H+  H239  1  0.13863291  0.60305060  0.67544371  1
  H+  H240  1  0.41947750  0.84001163  0.27211751  1
  H+  H241  1  0.01789146  0.88923796  0.48049872  1
  H+  H242  1  0.73408764  0.63000883  0.00116139  1
  H+  H243  1  0.61279434  0.39620175  0.83751987  1
  H+  H244  1  0.26862456  0.30996342  0.45142300  1
  H+  H245  1  0.90815756  0.28568165  0.31955337  1
  H+  H246  1  0.77373889  0.88256393  0.65598142  1
  H+  H247  1  0.75234037  0.65508990  0.17834679  1
  H+  H248  1  0.39527128  0.87656385  0.18317105  1
  H+  H249  1  0.52686186  0.40380812  0.68420764  1
  H+  H250  1  0.39208235  0.77052205  0.50121396  1
  H+  H251  1  0.40660036  0.78563373  0.99277157  1
  H+  H252  1  0.01562450  0.37167952  0.15386638  1
  H+  H253  1  0.48432784  0.87777139  0.18721159  1
  H+  H254  1  0.04831101  0.53508674  0.56321501  1
  H+  H255  1  0.75877720  0.30072309  0.78563794  1
  H+  H256  1  0.62467027  0.27545213  0.85036226  1
  H+  H257  1  0.98563594  0.12278100  1.00651772  1
  H+  H258  1  0.46515609  0.32844841  0.16836033  1
  H+  H259  1  0.72081831  0.86361809  0.17493063  1
  H+  H260  1  0.13165179  0.25836569  0.17255523  1
  H+  H261  1  0.34727592  0.19977663  0.47374706  1
  H+  H262  1  0.02502869  0.38388892  0.48589618  1
  H+  H263  1  0.61981040  0.16697598  0.48383135  1
  H+  H264  1  0.37635858  0.61756673  0.67202070  1
  H+  H265  1  0.38806686  0.85811508  0.50432517  1
  H+  H266  1  0.87376417  0.38810155  0.32932408  1
  H+  H267  1  0.56126297  0.99521822  0.04564923  1
  H+  H268  1  0.33930902  0.47208838  0.12915628  1
  H+  H269  1  0.87718153  0.61589101  0.84095801  1
  H+  H270  1  0.87262674  0.51902599  1.00057885  1
  H+  H271  1  0.23208221  0.61686792  0.31893172  1
  H+  H272  1  0.63376227  0.85521424  0.97245153  1
  H+  H273  1  0.58250092  0.67186522  0.07532718  1
  H+  H274  1  0.91515799  0.48882146  0.63487538  1
  H+  H275  1  0.01746937  0.38189567  0.83121750  1
  H+  H276  1  0.04902644  0.88970213  0.01256349  1
  H+  H277  1  0.10661276  0.36231782  0.16144982  1
  H+  H278  1  0.14545162  0.77619073  0.33701973  1
  H+  H279  1  0.47602572  0.36416368  0.84338015  1
  H+  H280  1  0.25490169  0.88062025  0.34576057  1
  H+  H281  1  0.55884420  0.43567862  0.45169723  1
  H+  H282  1  0.88436132  0.27243735  0.84480824  1
  H+  H283  1  0.82386991  0.68683818  0.78131901  1
  H+  H284  1  0.47764527  0.11763744  0.18567481  1
  H+  H285  1  0.57336142  0.48693509  0.18440407  1
  H+  H286  1  0.36594291  0.23957094  0.82475409  1
  H+  H287  1  0.36488243  0.72691014  0.33451394  1
  H+  H288  1  0.85000185  0.67108034  0.09947348  1
  H+  H289  1  0.91033592  0.07016927  0.58311968  1
  H+  H290  1  0.85981193  0.62366479  0.71019757  1
  H+  H291  1  0.62473979  0.44195409  0.40341675  1
  H+  H292  1  0.32303586  0.15786987  0.07196871  1
  H+  H293  1  0.35414719  0.62084510  0.14958466  1
  H+  H294  1  0.14317759  0.36478202  0.32256446  1
  H+  H295  1  0.65927381  0.33747073  0.94536776  1
  H+  H296  1  0.82614949  0.39634775  0.71703904  1
  H+  H297  1  0.09900645  0.92422738  0.10682128  1
  H+  H298  1  0.87712784  1.00077773  0.64518707  1
  H+  H299  1  0.80052647  0.85878168  0.40828982  1
  H+  H300  1  0.72189270  0.85076067  0.49805111  1
  H+  H301  1  0.84467488  0.19135607  0.06517304  1
  H+  H302  1  0.28125052  0.18471167  0.78488927  1
  H+  H303  1  0.06730860  0.67266524  0.73614302  1
  H+  H304  1  0.88813226  0.05396246  0.31354885  1
  H+  H305  1  0.87014000  0.64686890  0.49176024  1
  H+  H306  1  0.17231503  0.06959449  0.56043079  1
  H+  H307  1  0.41136599  0.57436793  0.62322388  1
  H+  H308  1  0.84221969  0.17362237  0.42244647  1
  H+  H309  1  0.52566357  0.41643850  0.01129986  1
  H+  H310  1  0.33769284  0.91173800  0.76677863  1
  H+  H311  1  0.92272510  0.82949314  0.56464416  1
  H+  H312  1  0.16851397  0.34328387  0.60584399  1
  H+  H313  1  0.07395208  0.92351158  0.41980932  1
  H+  H314  1  0.54729372  0.05380868  0.29173597  1
  H+  H315  1  0.51765528  0.88395983  0.34558611  1
  H+  H316  1  0.10395539  0.42040840  0.09956736  1
  H+  H317  1  0.86283540  0.63504905  0.00734650  1
  H+  H318  1  0.16279247  0.32474554  0.22914689  1
  H+  H319  1  0.86150033  0.96696963  0.48927511  1
  H+  H320  1  0.58859637  0.43160110  0.77797227  1
  H+  H321  1  0.90372856  0.57453568  0.93800367  1
  H+  H322  1  0.92678870  0.32971087  0.55793581  1
  H+  H323  1  0.35481582  0.16960797  0.72615948  1
  H+  H324  1  0.48165321  0.31281586  0.49045111  1
  H+  H325  1  0.42104976  0.31901278  0.23249382  1
  H+  H326  1  0.14175399  0.56750878  0.58267994  1
  H+  H327  1  0.91698083  0.09175501  0.91467366  1
  H+  H328  1  0.17922119  0.59120675  0.22760147  1
  H+  H329  1  0.32016694  0.40561613  0.77801553  1
  H+  H330  1  0.34063653  0.91700676  0.06618888  1
  H+  H331  1  0.42039572  0.35419645  0.61343709  1
  H+  H332  1  0.14800873  0.77242345  0.16297570  1
  H+  H333  1  0.67254784  0.58952662  0.55561694  1
  H+  H334  1  0.83426187  0.65881442  0.39583434  1
  H+  H335  1  0.93688986  0.34063926  0.25794072  1
  H+  H336  1  0.27699629  0.38952253  0.04091192  1
  H+  H337  1  0.47172493  0.58480613  0.52583430  1
  H+  H338  1  0.69900521  0.88325245  0.90521933  1
  H+  H339  1  0.92609845  0.57948249  0.23280753  1
  H+  H340  1  0.38335325  0.10921652  0.17946352  1
  H+  H341  1  0.41737884  0.08268685  0.55421855  1
  H+  H342  1  0.63251296  0.61108109  0.32698677  1
  H+  H343  1  0.66298493  0.83075138  0.59082399  1
  H+  H344  1  0.97430246  0.40660477  0.98218551  1
  H+  H345  1  0.33260704  0.41346494  0.38299964  1
  H+  H346  1  0.10872228  0.53973405  0.93027684  1
  H+  H347  1  0.69479117  0.63089670  0.23831222  1
  H+  H348  1  0.57708256  0.92682582  0.10791230  1
  H+  H349  1  0.59208947  0.27748079  0.50727285  1
  H+  H350  1  0.17161046  0.07740874  0.91655907  1
  H+  H351  1  0.40014565  0.08077828  0.93329790  1
  H+  H352  1  0.12920626  0.60620706  0.83958912  1
  H+  H353  1  0.69713818  0.84110619  0.91094043  1
  H+  H354  1  0.64809848  0.22737610  0.38437269  1
  H+  H355  1  0.96274468  0.93471672  0.22007422  1
  H+  H356  1  0.32351366  0.66664990  0.77130527  1
  H+  H357  1  0.32301132  0.65169014  0.09016856  1
  H+  H358  1  0.67269108  0.08291274  0.89354763  1
  H+  H359  1  0.30808854  0.13871738  0.38580539  1
  H+  H360  1  0.93832156  0.84065499  0.93811593  1
  H+  H361  1  0.09176839  0.91905866  0.73473655  1
  H+  H362  1  0.13785201  0.19236503  0.73435841  1
  H+  H363  1  0.18518861  0.83505234  0.56473205  1
  H+  H364  1  0.43906319  0.58674603  0.93357233  1
  H+  H365  1  0.08327351  0.65669781  0.09741011  1
  H+  H366  1  0.42271737  0.82543108  0.59696779  1
  H+  H367  1  0.07647261  0.40695171  0.73829066  1
  H+  H368  1  0.92129131  0.10049786  0.22885209  1
  H+  H369  1  0.09022266  0.15988553  0.07515711  1
  H+  H370  1  0.56907490  0.37872622  0.10123403  1
  H+  H371  1  0.09549007  0.42514026  0.39286732  1
  H+  H372  1  0.82557961  0.92299217  0.10073363  1
  H+  H373  1  0.63906830  0.34486452  0.60007998  1
  H+  H374  1  0.42866696  0.47021981  0.98720334  1
  H+  H375  1  0.88635851  0.34613935  0.65067824  1
  H+  H376  1  0.40851049  0.06674584  0.26546562  1
  H+  H377  1  0.43056122  0.84087688  0.89950393  1
  H+  H378  1  0.33661664  0.92137122  0.40500826  1
  H+  H379  1  0.98708009  0.86774634  0.66080256  1
  H+  H380  1  0.58398825  0.92766441  0.43586234  1
  H+  H381  1  0.90720396  0.81844176  0.26724452  1
  H+  H382  1  0.91060917  0.34406662  0.89839066  1
  H+  H383  1  0.98196707  0.61319644  0.32473802  1
  O2-  O384  1  0.08766338  0.15634279  0.15175060  1
  O2-  O385  1  0.06812482  0.18210130  0.47650468  1
  O2-  O386  1  0.08278040  0.14528261  0.82270029  1
  O2-  O387  1  0.08053823  0.39805886  0.14440306  1
  O2-  O388  1  0.08774073  0.42146456  0.47393711  1
  O2-  O389  1  0.07845536  0.41068213  0.81612442  1
  O2-  O390  1  0.08946283  0.65844881  0.14270759  1
  O2-  O391  1  0.09744899  0.67456311  0.47379543  1
  O2-  O392  1  0.07987322  0.66715431  0.81260870  1
  O2-  O393  1  0.09043330  0.91853241  0.15198379  1
  O2-  O394  1  0.07702246  0.92353314  0.46445121  1
  O2-  O395  1  0.08904704  0.91495829  0.81768745  1
  O2-  O396  1  0.32494732  0.15226813  0.15333369  1
  O2-  O397  1  0.31623449  0.13838856  0.46337936  1
  O2-  O398  1  0.32643418  0.17888737  0.80500290  1
  O2-  O399  1  0.29835409  0.41710977  0.10978673  1
  O2-  O400  1  0.31148463  0.36815451  0.46363989  1
  O2-  O401  1  0.32037471  0.40667543  0.82357553  1
  O2-  O402  1  0.31985890  0.64842645  0.13536846  1
  O2-  O403  1  0.35319724  0.66888281  0.46764984  1
  O2-  O404  1  0.33090972  0.66735649  0.81805730  1
  O2-  O405  1  0.34594722  0.92203973  0.14276127  1
  O2-  O406  1  0.34709924  0.91729781  0.47510041  1
  O2-  O407  1  0.33662430  0.91427622  0.81199733  1
  O2-  O408  1  0.57899469  0.17287389  0.17726431  1
  O2-  O409  1  0.58325357  0.18868573  0.46904754  1
  O2-  O410  1  0.58431815  0.18181212  0.82224226  1
  O2-  O411  1  0.54825270  0.33904280  0.13609818  1
  O2-  O412  1  0.61901132  0.45095248  0.44805849  1
  O2-  O413  1  0.58593767  0.43057527  0.82319681  1
  O2-  O414  1  0.57953813  0.66952281  0.14746692  1
  O2-  O415  1  0.52907708  0.66706506  0.46981147  1
  O2-  O416  1  0.59476740  0.69101193  0.84684316  1
  O2-  O417  1  0.58425368  0.92585052  0.15359217  1
  O2-  O418  1  0.58585689  0.92626421  0.48159434  1
  O2-  O419  1  0.59117508  0.91452064  0.80604992  1
  O2-  O420  1  0.83640238  0.17312093  0.14260280  1
  O2-  O421  1  0.84356589  0.17020982  0.46832405  1
  O2-  O422  1  0.83718703  0.17782870  0.82431543  1
  O2-  O423  1  0.83359679  0.40839987  0.15736259  1
  O2-  O424  1  0.80772931  0.38956995  0.46960749  1
  O2-  O425  1  0.80045794  0.36088501  0.79405731  1
  O2-  O426  1  0.85518736  0.67042291  0.14511850  1
  O2-  O427  1  0.83944154  0.67338742  0.47218499  1
  O2-  O428  1  0.82798251  0.67568683  0.82425166  1
  O2-  O429  1  0.82723548  0.92215408  0.14577479  1
  O2-  O430  1  0.82908244  0.90413887  0.48124347  1
  O2-  O431  1  0.83168941  0.91801929  0.82957861  1
  O2-  O432  1  0.16414613  0.07522709  0.20121849  1
  O2-  O433  1  0.17276697  0.07404733  0.51571141  1
  O2-  O434  1  0.16995464  0.07565194  0.86952059  1
  O2-  O435  1  0.15603139  0.32058006  0.18383196  1
  O2-  O436  1  0.16372733  0.34569357  0.52858188  1
  O2-  O437  1  0.15762273  0.32333725  0.86525073  1
  O2-  O438  1  0.17935957  0.59133645  0.18146541  1
  O2-  O439  1  0.10561103  0.55450505  0.54516816  1
  O2-  O440  1  0.15709679  0.57565549  0.85788100  1
  O2-  O441  1  0.18197203  0.83277136  0.17634196  1
  O2-  O442  1  0.19595618  0.83821991  0.52044597  1
  O2-  O443  1  0.17103284  0.82986460  0.85681812  1
  O2-  O444  1  0.41422791  0.07915436  0.19474160  1
  O2-  O445  1  0.42071253  0.08422147  0.50885951  1
  O2-  O446  1  0.40911683  0.08362391  0.84849431  1
  O2-  O447  1  0.40865185  0.31364031  0.18914337  1
  O2-  O448  1  0.43679288  0.32023842  0.46934866  1
  O2-  O449  1  0.41438646  0.32579104  0.85349148  1
  O2-  O450  1  0.40739141  0.57456462  0.17147170  1
  O2-  O451  1  0.43037139  0.54047426  0.55444769  1
  O2-  O452  1  0.42056544  0.58783696  0.81887797  1
  O2-  O453  1  0.42538620  0.85019817  0.20472418  1
  O2-  O454  1  0.41878243  0.82838359  0.52048440  1
  O2-  O455  1  0.42812140  0.83785512  0.85374451  1
  O2-  O456  1  0.67652226  0.08909155  0.18565078  1
  O2-  O457  1  0.69645855  0.06890887  0.53859926  1
  O2-  O458  1  0.66485544  0.08801388  0.84879726  1
  O2-  O459  1  0.69673846  0.32779796  0.23889593  1
  O2-  O460  1  0.58509945  0.32303775  0.52795058  1
  O2-  O461  1  0.65604544  0.33803840  0.86481557  1
  O2-  O462  1  0.70738640  0.66179720  0.19876588  1
  O2-  O463  1  0.68278701  0.60139942  0.51170165  1
  O2-  O464  1  0.67137508  0.59430107  0.86440269  1
  O2-  O465  1  0.65973095  0.83449295  0.18803774  1
  O2-  O466  1  0.66001256  0.82353725  0.51074758  1
  O2-  O467  1  0.67737623  0.83385394  0.79384238  1
  O2-  O468  1  0.92251993  0.09394282  0.18234758  1
  O2-  O469  1  0.91233932  0.07641161  0.51242358  1
  O2-  O470  1  0.91318243  0.08489820  0.86922518  1
  O2-  O471  1  0.92613790  0.33406651  0.17853826  1
  O2-  O472  1  0.92838880  0.33394290  0.51271381  1
  O2-  O473  1  0.91382376  0.33738086  0.85348527  1
  O2-  O474  1  0.92719030  0.57596107  0.18690146  1
  O2-  O475  1  0.95029808  0.64022677  0.53439522  1
  O2-  O476  1  0.90841421  0.58546205  0.85387595  1
  O2-  O477  1  0.94201948  0.88343054  0.19487048  1
  O2-  O478  1  0.91846750  0.83196168  0.51967797  1
  O2-  O479  1  0.92868634  0.84155941  0.86528230  1
  O2-  O480  1  0.16373051  0.07549934  0.26935605  1
  O2-  O481  1  0.17949686  0.07803683  0.64479902  1
  O2-  O482  1  0.17197992  0.07881410  0.98631969  1
  O2-  O483  1  0.16985925  0.33123664  0.30622607  1
  O2-  O484  1  0.17112458  0.33940368  0.65110001  1
  O2-  O485  1  0.17431716  0.33053826  0.98857536  1
  O2-  O486  1  0.17216986  0.58712624  0.30187170  1
  O2-  O487  1  0.16842626  0.57470592  0.65868863  1
  O2-  O488  1  0.07987111  0.52033541  0.97063182  1
  O2-  O489  1  0.17922003  0.83962190  0.32852833  1
  O2-  O490  1  0.16788519  0.82930432  0.64671969  1
  O2-  O491  1  0.17295137  0.82370519  0.98058265  1
  O2-  O492  1  0.40817407  0.06346250  0.31204196  1
  O2-  O493  1  0.41766547  0.07230240  0.63438883  1
  O2-  O494  1  0.39663673  0.08108821  0.97798126  1
  O2-  O495  1  0.42269109  0.32285891  0.33863367  1
  O2-  O496  1  0.41833008  0.34536011  0.65724944  1
  O2-  O497  1  0.43888259  0.42191860  0.98134297  1
  O2-  O498  1  0.40666094  0.57946168  0.29614015  1
  O2-  O499  1  0.40726168  0.58501609  0.66753693  1
  O2-  O500  1  0.43183342  0.58280981  0.97759182  1
  O2-  O501  1  0.41593583  0.83100974  0.31924223  1
  O2-  O502  1  0.42786005  0.82952312  0.64261650  1
  O2-  O503  1  0.43010270  0.84427884  0.97664771  1
  O2-  O504  1  0.60547948  0.06751910  0.30252403  1
  O2-  O505  1  0.67962325  0.09085869  0.66140510  1
  O2-  O506  1  0.69679022  0.07731220  0.96545222  1
  O2-  O507  1  0.65880607  0.38242143  0.23337469  1
  O2-  O508  1  0.65955574  0.34960479  0.64304829  1
  O2-  O509  1  0.66147874  0.33873975  0.99051585  1
  O2-  O510  1  0.67034264  0.58982370  0.31111947  1
  O2-  O511  1  0.66485659  0.58817088  0.63969400  1
  O2-  O512  1  0.67392696  0.60123852  0.98550895  1
  O2-  O513  1  0.65001830  0.82219532  0.31091616  1
  O2-  O514  1  0.66744815  0.83716576  0.63599677  1
  O2-  O515  1  0.64234630  0.86043173  1.01646949  1
  O2-  O516  1  0.92167763  0.11311702  0.29955188  1
  O2-  O517  1  0.91008731  0.06616567  0.62970551  1
  O2-  O518  1  0.92619842  0.10332100  0.99049534  1
  O2-  O519  1  0.94194468  0.34550907  0.30308391  1
  O2-  O520  1  0.92223841  0.32129138  0.63753860  1
  O2-  O521  1  0.91432038  0.36093384  0.97591449  1
  O2-  O522  1  0.92321961  0.58121168  0.30706301  1
  O2-  O523  1  0.96470491  0.53794800  0.61414306  1
  O2-  O524  1  0.90636554  0.57915654  0.98285982  1
  O2-  O525  1  0.91130442  0.81333007  0.31155334  1
  O2-  O526  1  0.92686018  0.83286350  0.64522866  1
  O2-  O527  1  0.94215939  0.83608990  0.98410583  1
  O2-  O528  1  0.08741537  0.16114565  0.02952267  1
  O2-  O529  1  0.06486780  0.17162363  0.34985729  1
  O2-  O530  1  0.12366299  0.18012781  0.69139653  1
  O2-  O531  1  0.14680449  0.45300230  0.04372261  1
  O2-  O532  1  0.09998878  0.42476046  0.34767398  1
  O2-  O533  1  0.07870365  0.40845938  0.69273961  1
  O2-  O534  1  0.07470818  0.65718405  0.01978512  1
  O2-  O535  1  0.09059134  0.66955744  0.35072518  1
  O2-  O536  1  0.05490556  0.67356477  0.69168135  1
  O2-  O537  1  0.10794831  0.92058775  0.02942167  1
  O2-  O538  1  0.08112570  0.91489307  0.33489622  1
  O2-  O539  1  0.09088744  0.91746317  0.68952258  1
  O2-  O540  1  0.32137873  0.16194750  0.02691661  1
  O2-  O541  1  0.32061906  0.14984571  0.34113404  1
  O2-  O542  1  0.35404128  0.16996948  0.68106837  1
  O2-  O543  1  0.26811641  0.37019995  -0.00387702  1
  O2-  O544  1  0.33586884  0.41342757  0.33825092  1
  O2-  O545  1  0.32792247  0.41536899  0.69995739  1
  O2-  O546  1  0.34473516  0.66378682  0.01208524  1
  O2-  O547  1  0.33289317  0.66462213  0.34739249  1
  O2-  O548  1  0.31727173  0.66946385  0.69988656  1
  O2-  O549  1  0.33355395  0.91229393  0.02066793  1
  O2-  O550  1  0.32857353  0.91797162  0.35859413  1
  O2-  O551  1  0.33707583  0.90953624  0.68542134  1
  O2-  O552  1  0.62112967  0.16455170  0.03111860  1
  O2-  O553  1  0.67736953  0.22106850  0.34893174  1
  O2-  O554  1  0.59183591  0.17288572  0.64880645  1
  O2-  O555  1  0.58294254  0.42834467  0.02622200  1
  O2-  O556  1  0.60160061  0.41953566  0.32964118  1
  O2-  O557  1  0.58809567  0.43482760  0.69709623  1
  O2-  O558  1  0.58604147  0.67991482  0.02923028  1
  O2-  O559  1  0.56530383  0.65472790  0.34556118  1
  O2-  O560  1  0.58775527  0.68114079  0.68377450  1
  O2-  O561  1  0.56965509  0.94709454  0.03526814  1
  O2-  O562  1  0.57937567  0.91925765  0.35897858  1
  O2-  O563  1  0.59218358  0.92161239  0.68412638  1
  O2-  O564  1  0.85350185  0.19982614  0.02024013  1
  O2-  O565  1  0.84887564  0.18541833  0.34831854  1
  O2-  O566  1  0.85609587  0.15624509  0.67659092  1
  O2-  O567  1  0.82042205  0.42322438  0.03233415  1
  O2-  O568  1  0.83480054  0.40869421  0.34282163  1
  O2-  O569  1  0.83178481  0.40208298  0.67198218  1
  O2-  O570  1  0.83905474  0.67101846  0.02447637  1
  O2-  O571  1  0.83301484  0.65355196  0.35036972  1
  O2-  O572  1  0.90043481  0.67510949  0.68832782  1
  O2-  O573  1  0.80990858  0.93557140  0.02318711  1
  O2-  O574  1  0.77669420  0.82463149  0.37062567  1
  O2-  O575  1  0.83536931  0.91646952  0.66862927  1
