# generated using pymatgen
data_H2O
_symmetry_space_group_name_H-M   'P 1'
_cell_length_a   17.93505815
_cell_length_b   17.92300293
_cell_length_c   21.97402931
_cell_angle_alpha   89.95937141
_cell_angle_beta   90.01772477
_cell_angle_gamma   119.99424141
_symmetry_Int_Tables_number   1
_chemical_formula_structural   H2O
_chemical_formula_sum   'H384 O192'
_cell_volume   6117.57051960
_cell_formula_units_Z   192
loop_
 _symmetry_equiv_pos_site_id
 _symmetry_equiv_pos_as_xyz
  1  'x, y, z'
loop_
 _atom_type_symbol
 _atom_type_oxidation_number
  H+  1.0
  O2-  -2.0
loop_
 _atom_site_type_symbol
 _atom_site_label
 _atom_site_symmetry_multiplicity
 _atom_site_fract_x
 _atom_site_fract_y
 _atom_site_fract_z
 _atom_site_occupancy
  H+  H0  1  0.86787985  0.64519901  0.67330410  1
  H+  H1  1  0.32289095  0.18483226  0.09674494  1
  H+  H2  1  0.57089120  0.93164474  0.73551449  1
  H+  H3  1  0.77892184  0.64444546  -0.00223162  1
  H+  H4  1  0.36428043  0.86977538  0.85135245  1
  H+  H5  1  0.88847165  0.36880645  0.65589010  1
  H+  H6  1  -0.00182914  0.36546938  0.33978791  1
  H+  H7  1  0.86265948  0.23006897  0.67608419  1
  H+  H8  1  0.22498296  0.36482562  0.50648331  1
  H+  H9  1  0.36958075  0.50438848  0.86097196  1
  H+  H10  1  -0.02201390  0.12128589  0.83858730  1
  H+  H11  1  0.66087483  0.00758445  0.30593260  1
  H+  H12  1  0.75539938  0.88992173  0.32272674  1
  H+  H13  1  0.64497744  0.77590796  0.50669662  1
  H+  H14  1  0.14901575  0.69656469  0.51966540  1
  H+  H15  1  1.02179272  0.64341666  0.83202405  1
  H+  H16  1  0.63911011  0.61754130  0.84094771  1
  H+  H17  1  0.64260116  0.53240998  0.65419439  1
  H+  H18  1  0.78316805  0.64740636  0.49505285  1
  H+  H19  1  0.13029742  0.36265779  0.17634312  1
  H+  H20  1  0.60253193  0.40904463  0.00055428  1
  H+  H21  1  0.73293691  0.36741417  0.66709406  1
  H+  H22  1  0.27814231  0.50266247  0.39047085  1
  H+  H23  1  0.37272743  0.28696571  0.99435414  1
  H+  H24  1  1.02416533  0.14442249  0.67386273  1
  H+  H25  1  0.14424308  -0.00808032  0.15645453  1
  H+  H26  1  0.71684773  0.70385236  0.20555294  1
  H+  H27  1  0.60097357  0.87949954  0.33939927  1
  H+  H28  1  0.72449648  0.10837584  0.84982976  1
  H+  H29  1  0.80937451  0.65805067  0.34808433  1
  H+  H30  1  0.59770952  -0.02217516  0.83720916  1
  H+  H31  1  0.46508158  0.10642135  0.84909656  1
  H+  H32  1  0.67795127  0.82972567  0.59160903  1
  H+  H33  1  0.12700184  0.27556857  1.00031937  1
  H+  H34  1  0.14430399  0.55459641  0.51152264  1
  H+  H35  1  0.36835948  0.63928152  0.68192418  1
  H+  H36  1  0.64411383  0.34930167  0.32881362  1
  H+  H37  1  1.02985335  0.88819459  0.50063637  1
  H+  H38  1  0.63480118  0.77543945  -0.02221702  1
  H+  H39  1  0.88996624  0.62219206  0.99076634  1
  H+  H40  1  0.35472910  0.51630341  0.34894423  1
  H+  H41  1  0.61720157  0.63893145  0.49262659  1
  H+  H42  1  0.97811773  0.36861620  0.65280310  1
  H+  H43  1  0.02902100  0.63319895  0.40660871  1
  H+  H44  1  1.01219327  0.12158310  0.33106083  1
  H+  H45  1  0.89297557  0.13862084  0.34024746  1
  H+  H46  1  0.87252946  0.48180170  0.67812948  1
  H+  H47  1  0.40219390  0.63860768  0.32805495  1
  H+  H48  1  0.50027375  0.89444896  0.83537655  1
  H+  H49  1  0.32174989  0.93194040  0.78194395  1
  H+  H50  1  0.91710990  0.09245632  0.60118329  1
  H+  H51  1  0.32275005  0.23708186  0.34461336  1
  H+  H52  1  0.12880367  0.77520053  0.99841804  1
  H+  H53  1  0.89041230  0.88593822  0.14777612  1
  H+  H54  1  0.62394149  0.00551592  0.99886328  1
  H+  H55  1  0.62003137  0.39579849  0.67249667  1
  H+  H56  1  0.14243516  0.63019670  0.85017727  1
  H+  H57  1  0.13966549  0.96394014  0.33955041  1
  H+  H58  1  0.82690809  0.41845744  0.10673484  1
  H+  H59  1  0.89960468  0.77728077  0.31159352  1
  H+  H60  1  0.62377354  0.09534412  0.00285214  1
  H+  H61  1  0.25404548  0.89598091  0.83788981  1
  H+  H62  1  0.46796976  0.62568840  0.16912535  1
  H+  H63  1  0.10630194  0.72012806  0.15988942  1
  H+  H64  1  0.46707260  0.11497542  0.15361268  1
  H+  H65  1  0.36376643  0.15116715  0.83594833  1
  H+  H66  1  0.35159623  0.97477656  0.15221777  1
  H+  H67  1  0.65963614  0.54960400  0.34202153  1
  H+  H68  1  0.51747574  0.87922940  0.15860448  1
  H+  H69  1  0.38073457  0.77459497  0.17479708  1
  H+  H70  1  0.50360349  0.35752632  0.15910201  1
  H+  H71  1  0.10477079  0.47348271  0.16885984  1
  H+  H72  1  0.64123505  0.52394644  0.49761331  1
  H+  H73  1  0.89785019  0.01334871  0.18486291  1
  H+  H74  1  0.13939774  0.25056869  0.34701457  1
  H+  H75  1  0.38859780  0.13087609  0.66362890  1
  H+  H76  1  0.87557677  0.89493268  0.50377964  1
  H+  H77  1  0.62669788  0.37643599  0.83232219  1
  H+  H78  1  0.23161179  0.61608342  0.66877529  1
  H+  H79  1  0.32384425  0.90585529  0.06879218  1
  H+  H80  1  0.11480950  0.39058975  0.49166739  1
  H+  H81  1  0.60544587  0.87809323  0.00182157  1
  H+  H82  1  0.63087786  0.75082044  0.34223486  1
  H+  H83  1  0.22015796  0.39472028  0.32842770  1
  H+  H84  1  0.37147671  0.89353543  0.49851401  1
  H+  H85  1  0.78421654  0.56192990  0.78175002  1
  H+  H86  1  0.26392678  0.61970811  0.01109697  1
  H+  H87  1  0.57171820  0.52492042  0.13441757  1
  H+  H88  1  0.76129064  0.83333589  0.17169631  1
  H+  H89  1  0.73658173  0.86575809  0.50816731  1
  H+  H90  1  0.11442327  0.64068546  0.00809430  1
  H+  H91  1  0.11298037  0.14274555  0.82354878  1
  H+  H92  1  0.02477014  0.13950781  0.01085513  1
  H+  H93  1  0.36918079  0.38474773  0.66123843  1
  H+  H94  1  0.44292723  0.07358457  0.26307505  1
  H+  H95  1  0.23331061  0.11924694  0.17319038  1
  H+  H96  1  0.13353660  0.84283082  0.50758523  1
  H+  H97  1  0.14604333  0.84406622  0.89967655  1
  H+  H98  1  0.35696059  0.14779503  1.00698664  1
  H+  H99  1  0.77845383  0.14365858  0.49045485  1
  H+  H100  1  0.22900499  0.11325356  0.49820516  1
  H+  H101  1  0.36657383  0.97302722  0.33891913  1
  H+  H102  1  0.01457330  0.38349712  0.16533914  1
  H+  H103  1  0.02825811  0.39482483  0.49414326  1
  H+  H104  1  0.06968440  0.40694845  0.72792314  1
  H+  H105  1  0.13420273  0.27644751  0.65765289  1
  H+  H106  1  0.88051004  0.34869495  0.32800675  1
  H+  H107  1  0.00521854  0.36792123  0.82360243  1
  H+  H108  1  0.53225394  0.64440119  0.67402891  1
  H+  H109  1  0.61698163  0.14168237  0.49839633  1
  H+  H110  1  0.89324462  0.53335335  0.99890062  1
  H+  H111  1  0.52220496  0.14521485  0.67144388  1
  H+  H112  1  0.85558414  0.38531472  0.16548368  1
  H+  H113  1  0.35488216  0.64092087  0.16515131  1
  H+  H114  1  0.87414507  0.89457555  0.66614543  1
  H+  H115  1  0.51615716  0.39658057  0.82452781  1
  H+  H116  1  0.89084720  0.11388610  -0.01209847  1
  H+  H117  1  0.10549221  0.73922583  0.83232763  1
  H+  H118  1  0.60410953  0.20601176  1.02884320  1
  H+  H119  1  0.86008213  0.23106459  0.83627863  1
  H+  H120  1  0.61943481  0.23214281  0.50499632  1
  H+  H121  1  0.37507123  0.73779260  0.49641604  1
  H+  H122  1  0.52523172  0.38277048  0.49632925  1
  H+  H123  1  0.26500662  0.63919498  0.16468597  1
  H+  H124  1  0.66090991  0.07408009  0.90978786  1
  H+  H125  1  0.50035148  0.32765540  0.34717785  1
  H+  H126  1  0.76728228  0.90689645  0.80877082  1
  H+  H127  1  0.62749897  0.53607293  -0.00395053  1
  H+  H128  1  0.59939868  0.10721482  0.82908666  1
  H+  H129  1  0.37075805  0.02693190  0.85435326  1
  H+  H130  1  0.27317514  0.14835534  0.82945112  1
  H+  H131  1  0.57566096  0.63077302  0.12378677  1
  H+  H132  1  0.80578201  0.65549769  0.17713913  1
  H+  H133  1  0.38674901  0.86637386  0.17516629  1
  H+  H134  1  -0.01839499  0.10555933  0.18093036  1
  H+  H135  1  -0.00077125  0.64401900  0.49428329  1
  H+  H136  1  0.38052235  0.37041120  0.18017904  1
  H+  H137  1  0.09500556  0.37000705  0.82097052  1
  H+  H138  1  0.13165616  0.10965076  0.49922326  1
  H+  H139  1  0.51351158  0.12245135  0.01665895  1
  H+  H140  1  0.64968992  0.76932243  0.65783140  1
  H+  H141  1  0.62771005  0.28877341  0.84534346  1
  H+  H142  1  0.11576643  0.22687789  0.16704355  1
  H+  H143  1  0.57330201  0.65566322  0.76922411  1
  H+  H144  1  0.60718642  0.64646527  0.99118617  1
  H+  H145  1  0.37395190  0.27795607  0.17776398  1
  H+  H146  1  0.09703435  0.74385162  0.32716620  1
  H+  H147  1  0.38730685  0.36429467  0.50559228  1
  H+  H148  1  0.22286109  0.37485383  0.85129889  1
  H+  H149  1  -0.00778375  0.77199553  0.83288782  1
  H+  H150  1  0.61481649  0.72474497  0.14907729  1
  H+  H151  1  0.15680285  0.94276385  0.09901796  1
  H+  H152  1  0.77463897  0.89215359  0.01113164  1
  H+  H153  1  0.38099275  0.28629784  0.84214438  1
  H+  H154  1  0.35169720  0.87368095  0.00985070  1
  H+  H155  1  0.87310688  0.47041178  0.34106830  1
  H+  H156  1  0.86055000  0.82268770  0.27058112  1
  H+  H157  1  0.39157759  0.62124746  0.51032327  1
  H+  H158  1  0.07895627  0.66293854  0.09835529  1
  H+  H159  1  0.72773443  0.47731258  0.95515487  1
  H+  H160  1  0.87427916  0.59826647  0.84070451  1
  H+  H161  1  0.37492167  0.75358174  0.99760373  1
  H+  H162  1  0.37056325  0.73811230  0.34253082  1
  H+  H163  1  0.82678771  0.16002219  -0.07333025  1
  H+  H164  1  0.39478931  0.77769521  0.65784728  1
  H+  H165  1  0.27986598  0.88660304  0.49611310  1
  H+  H166  1  0.77411690  0.39136999  0.82639615  1
  H+  H167  1  0.22476672  0.36405043  0.65169121  1
  H+  H168  1  0.11707259  0.22480827  0.49972737  1
  H+  H169  1  0.42084418  0.59676783  0.23430627  1
  H+  H170  1  0.48549361  0.62950966  0.85931701  1
  H+  H171  1  0.98053782  0.60583078  0.16710847  1
  H+  H172  1  0.35562052  0.22883660  0.49564944  1
  H+  H173  1  0.09577547  0.93461437  0.74039943  1
  H+  H174  1  0.35682440  0.13948196  0.48897609  1
  H+  H175  1  0.14473212  0.78018715  0.66944391  1
  H+  H176  1  0.88421274  0.11588782  0.66262265  1
  H+  H177  1  0.76058530  0.07657962  0.30862654  1
  H+  H178  1  0.63303800  0.66332587  0.34628344  1
  H+  H179  1  0.22994044  0.62792461  0.84979993  1
  H+  H180  1  0.48365457  0.86690250  0.65724634  1
  H+  H181  1  0.88551511  0.62325482  0.16897491  1
  H+  H182  1  0.74966122  0.86682096  0.65350965  1
  H+  H183  1  0.71442589  0.35149844  0.17404636  1
  H+  H184  1  0.35937035  0.14966991  0.14717437  1
  H+  H185  1  0.53939329  0.27301491  0.37720385  1
  H+  H186  1  0.60716472  0.48518285  0.82656072  1
  H+  H187  1  0.37073050  0.65783678  0.84314054  1
  H+  H188  1  0.86413543  -0.02004091  1.01183689  1
  H+  H189  1  0.59829925  0.21021211  0.17922832  1
  H+  H190  1  0.86871497  0.14427449  0.49341943  1
  H+  H191  1  0.51804255  0.04883739  0.79104843  1
  H+  H192  1  0.35198906  0.40401058  0.00781438  1
  H+  H193  1  0.12094971  0.64271328  0.68324384  1
  H+  H194  1  0.39789015  0.52865430  0.66168059  1
  H+  H195  1  0.72552485  0.10186225  0.21894546  1
  H+  H196  1  0.10096262  0.37750058  0.33782990  1
  H+  H197  1  0.61354982  0.54211787  0.11673828  1
  H+  H198  1  0.72453896  0.11958903  0.65932268  1
  H+  H199  1  0.60252814  0.72838578  0.81582378  1
  H+  H200  1  0.99196575  0.62287286  0.67102890  1
  H+  H201  1  0.85716245  0.39143380  0.01258642  1
  H+  H202  1  0.36018220  0.48476466  0.16690932  1
  H+  H203  1  0.11875619  0.13901900  0.16759257  1
  H+  H204  1  0.48240015  0.87058326  0.50668961  1
  H+  H205  1  0.42621139  0.59222282  0.60503718  1
  H+  H206  1  0.24832815  0.09884004  0.32761948  1
  H+  H207  1  0.61123804  -0.01614576  0.67435855  1
  H+  H208  1  0.46263301  0.84458781  -0.00287282  1
  H+  H209  1  0.89751411  0.78628512  0.51542575  1
  H+  H210  1  0.62067750  0.64196496  0.67370182  1
  H+  H211  1  0.76381763  0.13035247  -0.01768874  1
  H+  H212  1  0.38537343  0.86632005  0.33063709  1
  H+  H213  1  0.11246249  0.23191337  0.82778418  1
  H+  H214  1  0.48923021  0.63335192  0.32842615  1
  H+  H215  1  0.29596007  0.18110219  0.40581710  1
  H+  H216  1  0.09624448  0.38544018  0.01176798  1
  H+  H217  1  0.98611368  0.60678762  0.31934420  1
  H+  H218  1  0.88440861  0.25882335  0.32390852  1
  H+  H219  1  0.10561301  0.88881214  0.99903368  1
  H+  H220  1  0.82496407  0.66081960  0.73120662  1
  H+  H221  1  0.12018286  0.90004658  0.67907165  1
  H+  H222  1  0.21834838  0.86360901  -0.00244889  1
  H+  H223  1  0.94484701  0.08306515  0.27402389  1
  H+  H224  1  0.13079294  0.61064561  0.17663511  1
  H+  H225  1  0.14351958  0.61978141  0.33898091  1
  H+  H226  1  0.87974666  0.36116796  0.84604765  1
  H+  H227  1  0.36121988  0.74075938  0.83346229  1
  H+  H228  1  0.84200855  0.41931004  0.73616617  1
  H+  H229  1  0.21035455  0.36993908  0.99745564  1
  H+  H230  1  0.14130771  0.03166054  0.83163583  1
  H+  H231  1  0.39108155  0.27886365  0.66150711  1
  H+  H232  1  0.64149673  0.27902147  0.66618532  1
  H+  H233  1  1.03710276  0.91125740  0.34007844  1
  H+  H234  1  0.14341009  0.85852192  0.17406634  1
  H+  H235  1  0.89301519  0.71719668  0.81762753  1
  H+  H236  1  0.88337597  0.51360962  0.17053860  1
  H+  H237  1  0.86646993  0.26997684  0.16884963  1
  H+  H238  1  0.04034901  0.91559943  0.82055195  1
  H+  H239  1  0.96655350  0.85986339  0.96036033  1
  H+  H240  1  0.16464205  0.58900728  0.23852480  1
  H+  H241  1  0.64297654  0.84055295  0.75201374  1
  H+  H242  1  0.50773295  0.39858162  1.00502438  1
  H+  H243  1  0.97881025  0.11774782  0.50639170  1
  H+  H244  1  0.40948122  0.08806751  0.09422646  1
  H+  H245  1  0.13518421  0.03253674  0.98571841  1
  H+  H246  1  0.86505955  0.98173500  0.66174750  1
  H+  H247  1  0.88215268  0.26915173  0.50430188  1
  H+  H248  1  0.64628679  0.03275149  0.50269100  1
  H+  H249  1  0.36229093  -0.00575233  0.68872584  1
  H+  H250  1  0.86662280  0.47681871  0.83193112  1
  H+  H251  1  0.48227797  0.36880742  0.65611313  1
  H+  H252  1  0.90648901  0.32599159  0.22873957  1
  H+  H253  1  0.27482764  0.15147104  0.67928095  1
  H+  H254  1  0.38351796  0.02998648  0.50600600  1
  H+  H255  1  0.61823857  0.33744588  0.17247034  1
  H+  H256  1  0.17596685  0.18749546  0.36010837  1
  H+  H257  1  0.09606933  0.17455092  0.43715285  1
  H+  H258  1  0.12082866  0.70411352  0.41794744  1
  H+  H259  1  0.27751949  0.90308200  0.68796501  1
  H+  H260  1  0.70791540  0.92649461  0.28362587  1
  H+  H261  1  0.90252518  0.73050766  0.15703467  1
  H+  H262  1  0.12804221  0.52540270  0.99720038  1
  H+  H263  1  0.12731951  0.88747237  0.83695217  1
  H+  H264  1  0.89805299  0.78483811  0.66747300  1
  H+  H265  1  0.51707631  0.88838738  0.33816123  1
  H+  H266  1  0.88947561  0.02928065  0.50908149  1
  H+  H267  1  -0.03344422  0.36667462  -0.00036666  1
  H+  H268  1  0.77907662  0.38628074  0.49599966  1
  H+  H269  1  0.62267916  0.89631107  0.49108498  1
  H+  H270  1  0.14412797  0.12623571  0.66778307  1
  H+  H271  1  0.60791167  0.21972421  0.35039596  1
  H+  H272  1  0.88533512  0.03441545  0.83570193  1
  H+  H273  1  0.89127772  0.99030224  0.34844395  1
  H+  H274  1  0.38016154  0.01626400  1.00020517  1
  H+  H275  1  0.87982546  0.89685799  0.34492455  1
  H+  H276  1  0.89049540  0.65004500  0.32907751  1
  H+  H277  1  0.28370494  0.65247273  0.50013224  1
  H+  H278  1  0.48044666  0.62003632  0.50880525  1
  H+  H279  1  0.41246161  0.37678986  0.33173096  1
  H+  H280  1  0.22237075  0.36730639  0.17664145  1
  H+  H281  1  0.26916119  0.88035113  0.16689922  1
  H+  H282  1  0.44432500  0.61333894  0.92552528  1
  H+  H283  1  0.36728500  0.48281339  0.50344149  1
  H+  H284  1  0.78111279  0.38349781  0.33970142  1
  H+  H285  1  0.98928390  0.87582831  0.67018637  1
  H+  H286  1  0.33034424  0.42809093  0.10673117  1
  H+  H287  1  0.60933752  0.86619869  0.80825635  1
  H+  H288  1  0.34057678  0.47260215  0.79554411  1
  H+  H289  1  0.75300542  0.75080186  0.75164083  1
  H+  H290  1  0.84405891  0.15991369  0.39318811  1
  H+  H291  1  0.41371165  0.08383624  0.94502839  1
  H+  H292  1  0.93228541  0.84716690  0.57490485  1
  H+  H293  1  0.33207559  0.43333550  0.44186424  1
  H+  H294  1  0.33867939  0.18408533  0.73779314  1
  H+  H295  1  0.84643654  0.92211763  0.44240100  1
  H+  H296  1  0.67496371  0.32808307  0.26644660  1
  H+  H297  1  0.33885414  0.67158618  0.74034979  1
  H+  H298  1  0.28224245  0.04135281  0.29830111  1
  H+  H299  1  0.86756345  0.14424487  0.83232914  1
  H+  H300  1  0.10953339  0.39002427  0.66765526  1
  H+  H301  1  0.13408191  0.01265041  0.49776669  1
  H+  H302  1  0.83097437  0.17238092  0.73654115  1
  H+  H303  1  0.68244739  0.38661281  0.92406673  1
  H+  H304  1  0.34283726  0.67812505  0.40282362  1
  H+  H305  1  0.34559116  0.55450276  1.01597296  1
  H+  H306  1  0.57267140  0.90024644  0.06419005  1
  H+  H307  1  0.17550131  0.60028723  0.57630923  1
  H+  H308  1  0.58949146  0.92400080  0.43214433  1
  H+  H309  1  0.66868074  0.58315255  0.55729092  1
  H+  H310  1  0.13958144  0.52789033  0.66476746  1
  H+  H311  1  0.92459397  0.57409308  0.26255202  1
  H+  H312  1  0.67424679  0.09193174  0.56267495  1
  H+  H313  1  0.26652431  0.14521045  0.00154928  1
  H+  H314  1  0.41594447  0.33185433  0.56433381  1
  H+  H315  1  0.16413225  0.34576772  0.26733212  1
  H+  H316  1  0.66385993  0.58891929  0.93349869  1
  H+  H317  1  0.32366143  0.65160486  0.07029536  1
  H+  H318  1  0.91054380  0.33628779  0.90769902  1
  H+  H319  1  0.93671615  0.59545016  0.61026982  1
  H+  H320  1  0.91793029  0.80414994  0.90301179  1
  H+  H321  1  0.87401479  0.36633648  0.50033827  1
  H+  H322  1  0.18965719  0.06726815  0.23376509  1
  H+  H323  1  0.69744898  0.61464403  0.28599370  1
  H+  H324  1  0.83873108  0.93485199  0.75951723  1
  H+  H325  1  0.40358783  0.34729001  0.93543709  1
  H+  H326  1  0.92485654  0.08325148  0.93387157  1
  H+  H327  1  0.72298181  0.60275967  0.83519194  1
  H+  H328  1  0.14346024  0.80828793  0.23408586  1
  H+  H329  1  0.91111440  0.33371626  0.56732693  1
  H+  H330  1  0.87744127  0.27663569  0.98891941  1
  H+  H331  1  0.59021449  0.67854590  0.43711919  1
  H+  H332  1  0.64625451  0.36919606  0.51072335  1
  H+  H333  1  0.78086299  0.77274750  0.77858744  1
  H+  H334  1  0.67943146  0.84928204  0.92708469  1
  H+  H335  1  0.67298503  0.60445147  0.18628600  1
  H+  H336  1  0.91607367  0.58221390  0.90197314  1
  H+  H337  1  0.41452877  0.83570730  0.26949786  1
  H+  H338  1  0.41159830  0.09501393  0.60392889  1
  H+  H339  1  0.60697248  0.96413643  0.15151714  1
  H+  H340  1  0.70047610  0.81385362  0.23026415  1
  H+  H341  1  0.58484219  0.42729591  0.72817318  1
  H+  H342  1  1.02406791  0.64037256  1.00610747  1
  H+  H343  1  0.15419481  0.33293223  0.90424853  1
  H+  H344  1  0.16183613  0.33378564  0.56377971  1
  H+  H345  1  0.92142135  0.54870035  0.48167246  1
  H+  H346  1  0.08980935  0.82742589  0.32039392  1
  H+  H347  1  0.83641417  0.40725659  0.43255274  1
  H+  H348  1  0.17498600  0.83359817  0.60841461  1
  H+  H349  1  0.38215566  0.37783344  0.84430678  1
  H+  H350  1  0.55839222  0.38577820  0.09743503  1
  H+  H351  1  0.56240566  0.67870660  0.03867348  1
  H+  H352  1  0.42392948  0.83633202  0.56759591  1
  H+  H353  1  0.16632355  0.59021198  0.93891534  1
  H+  H354  1  0.63579362  0.12024517  0.65605454  1
  H+  H355  1  0.08865584  0.67422354  0.74186457  1
  H+  H356  1  0.23433508  0.62727438  0.33033574  1
  H+  H357  1  0.46459744  0.11500880  0.32780031  1
  H+  H358  1  0.87460661  0.65751075  0.47808097  1
  H+  H359  1  0.95820648  0.84045626  0.21461883  1
  H+  H360  1  0.67930782  0.34418343  0.57158250  1
  H+  H361  1  0.58270479  0.14155580  0.12933362  1
  H+  H362  1  0.06884793  0.41609539  0.07174203  1
  H+  H363  1  0.86783655  0.72917783  -0.01613277  1
  H+  H364  1  0.39510502  0.83263926  0.90782056  1
  H+  H365  1  0.34069899  0.91962242  0.40092369  1
  H+  H366  1  0.57485147  0.38700025  0.43653869  1
  H+  H367  1  0.84138278  0.91532296  0.10002744  1
  H+  H368  1  0.16796623  0.09553207  0.89158895  1
  H+  H369  1  0.40877438  0.33075412  0.26849415  1
  H+  H370  1  0.14731907  0.03918564  0.66959054  1
  H+  H371  1  0.77888892  0.41136337  1.00968481  1
  H+  H372  1  0.06880969  0.40546994  0.40338484  1
  H+  H373  1  0.08524766  0.91094623  0.43817910  1
  H+  H374  1  0.47141674  0.11976111  0.50758628  1
  H+  H375  1  1.01544505  0.86573986  0.15387364  1
  H+  H376  1  0.13634880  0.12212573  0.99289470  1
  H+  H377  1  0.05231384  0.91386906  0.04524761  1
  H+  H378  1  0.32515135  0.39466306  0.71968566  1
  H+  H379  1  0.73188893  0.62184869  0.65347470  1
  H+  H380  1  0.56813865  0.17535313  0.41515912  1
  H+  H381  1  0.08316900  0.17779690  0.73359204  1
  H+  H382  1  0.08501783  0.16902706  0.07091777  1
  H+  H383  1  0.57743526  0.15779069  0.73116634  1
  O2-  O384  1  0.08802563  0.16704358  0.15036647  1
  O2-  O385  1  0.08817249  0.16481734  0.48251341  1
  O2-  O386  1  0.08059111  0.17261809  0.81019151  1
  O2-  O387  1  0.07638388  0.41342967  0.15225886  1
  O2-  O388  1  0.08551733  0.42176656  0.47478301  1
  O2-  O389  1  0.05761012  0.38645770  0.79854744  1
  O2-  O390  1  0.07472364  0.65920116  0.14440174  1
  O2-  O391  1  0.11822494  0.72565074  0.50228805  1
  O2-  O392  1  0.08248722  0.67842378  0.81759178  1
  O2-  O393  1  0.12182820  0.93318007  0.13532979  1
  O2-  O394  1  0.09057736  0.91563737  0.48351388  1
  O2-  O395  1  0.10127452  0.94280379  0.80989121  1
  O2-  O396  1  0.32646304  0.18122368  0.14219855  1
  O2-  O397  1  0.32250766  0.16847960  0.47828163  1
  O2-  O398  1  0.33668630  0.18306082  0.81834069  1
  O2-  O399  1  0.32998276  0.42368708  0.15191971  1
  O2-  O400  1  0.33620822  0.42309018  0.48573224  1
  O2-  O401  1  0.33771889  0.44969044  0.83622100  1
  O2-  O402  1  0.32522553  0.67090796  0.14810256  1
  O2-  O403  1  0.34226669  0.67553830  0.48241577  1
  O2-  O404  1  0.33870159  0.67976991  0.81966416  1
  O2-  O405  1  0.32709699  0.91155303  0.14700571  1
  O2-  O406  1  0.34019092  0.92334054  0.48304900  1
  O2-  O407  1  0.31744430  0.92741328  0.82833684  1
  O2-  O408  1  0.56114765  0.14757473  0.16904040  1
  O2-  O409  1  0.58432539  0.17228986  0.48911617  1
  O2-  O410  1  0.55191943  0.10841844  0.80507647  1
  O2-  O411  1  0.55016533  0.35521122  0.13663361  1
  O2-  O412  1  0.58474986  0.40949967  0.47939362  1
  O2-  O413  1  0.57647892  0.42487713  0.80854332  1
  O2-  O414  1  0.56386001  0.67837475  0.12711382  1
  O2-  O415  1  0.58829122  0.67317967  0.48227892  1
  O2-  O416  1  0.57543194  0.66441379  0.81408369  1
  O2-  O417  1  0.57573233  0.90378104  0.13945264  1
  O2-  O418  1  0.59324020  0.92771458  0.47760586  1
  O2-  O419  1  0.55867574  0.92251582  0.81586182  1
  O2-  O420  1  0.79614986  0.17162433  0.15262481  1
  O2-  O421  1  0.84064634  0.17652471  0.47665787  1
  O2-  O422  1  0.82904098  0.16876982  0.82249726  1
  O2-  O423  1  0.82652119  0.41870432  0.15246722  1
  O2-  O424  1  0.83939607  0.40839875  0.47894063  1
  O2-  O425  1  0.83511739  0.41643026  0.81427594  1
  O2-  O426  1  0.85905804  0.66621126  0.15434464  1
  O2-  O427  1  0.84479585  0.68936500  0.48800450  1
  O2-  O428  1  0.80512797  0.61752330  0.80154322  1
  O2-  O429  1  0.84892805  0.90676737  0.14577338  1
  O2-  O430  1  0.84193436  0.92212514  0.48764479  1
  O2-  O431  1  0.83023803  0.93860009  0.80351117  1
  O2-  O432  1  0.17547623  0.07782740  0.19188383  1
  O2-  O433  1  0.16423388  0.07751336  0.50971581  1
  O2-  O434  1  0.17054505  0.09692674  0.84650506  1
  O2-  O435  1  0.16248586  0.33455310  0.19326928  1
  O2-  O436  1  0.16268382  0.33337681  0.51770717  1
  O2-  O437  1  0.16120752  0.33420453  0.85909336  1
  O2-  O438  1  0.16186856  0.58185831  0.19296941  1
  O2-  O439  1  0.17724294  0.61132047  0.53093698  1
  O2-  O440  1  0.17132438  0.60021328  0.86753049  1
  O2-  O441  1  0.16402643  0.82041544  0.19021549  1
  O2-  O442  1  0.16667840  0.81551290  0.52371947  1
  O2-  O443  1  0.14622367  0.84276212  0.85473391  1
  O2-  O444  1  0.40387652  0.08716238  0.13855648  1
  O2-  O445  1  0.40932278  0.09179245  0.51857395  1
  O2-  O446  1  0.40887035  0.08864542  0.86876698  1
  O2-  O447  1  0.40638791  0.33644205  0.19696657  1
  O2-  O448  1  0.41464230  0.33011780  0.51859866  1
  O2-  O449  1  0.41335352  0.34776744  0.85711645  1
  O2-  O450  1  0.41104542  0.59058401  0.18936996  1
  O2-  O451  1  0.42081095  0.58949096  0.52582331  1
  O2-  O452  1  0.42997325  0.60756019  0.88209167  1
  O2-  O453  1  0.41569158  0.83496757  0.19073584  1
  O2-  O454  1  0.42166554  0.83847345  0.52060815  1
  O2-  O455  1  0.39813534  0.84084061  0.86267700  1
  O2-  O456  1  0.72581035  0.14467309  0.18910067  1
  O2-  O457  1  0.67716186  0.09419526  0.51694030  1
  O2-  O458  1  0.66319075  0.07795245  0.86389495  1
  O2-  O459  1  0.65636277  0.31789794  0.19262705  1
  O2-  O460  1  0.68099716  0.34304939  0.52592755  1
  O2-  O461  1  0.66167411  0.35101072  0.85040876  1
  O2-  O462  1  0.71983355  0.64814572  0.21121513  1
  O2-  O463  1  0.66950640  0.58480963  0.51183113  1
  O2-  O464  1  0.66353367  0.58201729  0.85605183  1
  O2-  O465  1  0.70815449  0.78536707  0.19370634  1
  O2-  O466  1  0.67554941  0.83625477  0.52359498  1
  O2-  O467  1  0.64397671  0.83813938  0.79642814  1
  O2-  O468  1  0.92726127  0.07104115  0.20391802  1
  O2-  O469  1  0.91845714  0.09147306  0.52153240  1
  O2-  O470  1  0.91806115  0.09292612  0.85565341  1
  O2-  O471  1  0.90608711  0.33159848  0.18394262  1
  O2-  O472  1  0.90923513  0.33219482  0.51981097  1
  O2-  O473  1  0.90779321  0.32913517  0.86222880  1
  O2-  O474  1  0.91908002  0.57701135  0.18508263  1
  O2-  O475  1  0.94983438  0.60849605  0.46730307  1
  O2-  O476  1  0.91399711  0.57726533  0.85632579  1
  O2-  O477  1  0.95564016  0.83180086  0.16981468  1
  O2-  O478  1  0.93185522  0.84848586  0.52917075  1
  O2-  O479  1  0.93942644  0.77480849  0.83142465  1
  O2-  O480  1  0.22946442  0.04479299  0.30277654  1
  O2-  O481  1  0.17957511  0.10036422  0.65583761  1
  O2-  O482  1  0.16820553  0.09482696  0.97466223  1
  O2-  O483  1  0.16223467  0.34958301  0.31349417  1
  O2-  O484  1  0.16356005  0.33608833  0.63892177  1
  O2-  O485  1  0.15005762  0.33520671  0.98323486  1
  O2-  O486  1  0.17404020  0.59680110  0.31531313  1
  O2-  O487  1  0.17163177  0.58975771  0.65181241  1
  O2-  O488  1  0.16391995  0.58703249  0.98551464  1
  O2-  O489  1  0.08941082  0.78009480  0.29685659  1
  O2-  O490  1  0.17382414  0.84001305  0.65287314  1
  O2-  O491  1  0.15684301  0.83690920  0.98488221  1
  O2-  O492  1  0.41560295  0.07625034  0.30075638  1
  O2-  O493  1  0.41881762  0.09997502  0.64878013  1
  O2-  O494  1  0.41198041  0.07962311  0.99093571  1
  O2-  O495  1  0.41045481  0.32549521  0.31493843  1
  O2-  O496  1  0.42133177  0.33793213  0.64122708  1
  O2-  O497  1  0.40040483  0.34836951  0.98095704  1
  O2-  O498  1  0.42913810  0.60404568  0.31297116  1
  O2-  O499  1  0.42892637  0.59062169  0.65055845  1
  O2-  O500  1  0.37431452  0.52118500  1.00244333  1
  O2-  O501  1  0.41754469  0.83631246  0.31504144  1
  O2-  O502  1  0.42589592  0.83407315  0.63732311  1
  O2-  O503  1  0.40045084  0.81502014  0.98498108  1
  O2-  O504  1  0.71451325  0.03359100  0.28146314  1
  O2-  O505  1  0.66650097  0.09058994  0.64016258  1
  O2-  O506  1  0.65437234  0.06732071  0.98427436  1
  O2-  O507  1  0.68460691  0.33211573  0.31190252  1
  O2-  O508  1  0.67292832  0.33985529  0.65077196  1
  O2-  O509  1  0.69705973  0.41587171  0.96470858  1
  O2-  O510  1  0.69024142  0.61055948  0.33128363  1
  O2-  O511  1  0.67094114  0.59269833  0.63818930  1
  O2-  O512  1  0.66375068  0.59508456  0.97889531  1
  O2-  O513  1  0.70209110  0.87072324  0.29760706  1
  O2-  O514  1  0.68386939  0.82955317  0.63896967  1
  O2-  O515  1  0.67006303  0.84063302  0.97078542  1
  O2-  O516  1  0.95031841  0.08999429  0.32055696  1
  O2-  O517  1  0.91530392  0.08682805  0.64647865  1
  O2-  O518  1  0.92462254  0.08495059  0.97951589  1
  O2-  O519  1  0.91365527  0.32158452  0.31154410  1
  O2-  O520  1  0.91654226  0.33784850  0.63699737  1
  O2-  O521  1  0.90593749  0.34016438  0.98341056  1
  O2-  O522  1  0.92513751  0.57479372  0.30813462  1
  O2-  O523  1  0.93045752  0.59126284  0.65432470  1
  O2-  O524  1  0.92284343  0.59085284  0.97886641  1
  O2-  O525  1  0.91370859  0.83507711  0.29119312  1
  O2-  O526  1  0.92862256  0.84560791  0.65252381  1
  O2-  O527  1  0.90900131  0.81857392  0.94508231  1
  O2-  O528  1  0.08601244  0.17255212  0.02547826  1
  O2-  O529  1  0.12317884  0.19254576  0.36343957  1
  O2-  O530  1  0.08492754  0.17871771  0.68776374  1
  O2-  O531  1  0.06662843  0.41682402  0.02631057  1
  O2-  O532  1  0.06189865  0.39866184  0.35702550  1
  O2-  O533  1  0.07683189  0.41809367  0.68202917  1
  O2-  O534  1  0.08388072  0.67127215  0.02381196  1
  O2-  O535  1  0.08491076  0.66533526  0.38484509  1
  O2-  O536  1  0.08930106  0.67296311  0.69594182  1
  O2-  O537  1  0.07590348  0.92393116  0.00418619  1
  O2-  O538  1  0.08799866  0.91446741  0.35901267  1
  O2-  O539  1  0.08936632  0.92983362  0.69310530  1
  O2-  O540  1  0.32681147  0.17901517  0.01902288  1
  O2-  O541  1  0.27396431  0.18621594  0.36504764  1
  O2-  O542  1  0.33844444  0.18419092  0.69234922  1
  O2-  O543  1  0.32072421  0.43272710  0.02608967  1
  O2-  O544  1  0.30326821  0.47060120  0.37211527  1
  O2-  O545  1  0.33560131  0.41289444  0.67726591  1
  O2-  O546  1  0.32458990  0.64101139  0.02565261  1
  O2-  O547  1  0.34327764  0.67642761  0.35730072  1
  O2-  O548  1  0.33537105  0.66735166  0.69495503  1
  O2-  O549  1  0.32569840  0.90908247  0.02322513  1
  O2-  O550  1  0.33768762  0.91394988  0.35591462  1
  O2-  O551  1  0.33244675  0.93826492  0.71004934  1
  O2-  O552  1  0.57202277  0.14404621  0.03557864  1
  O2-  O553  1  0.55330697  0.18354080  0.37234383  1
  O2-  O554  1  0.58317232  0.17149045  0.68700388  1
  O2-  O555  1  0.56736455  0.42907560  0.02219191  1
  O2-  O556  1  0.55055460  0.33301097  0.37029523  1
  O2-  O557  1  0.58815968  0.42672663  0.68280950  1
  O2-  O558  1  0.57402253  0.67785439  -0.00501434  1
  O2-  O559  1  0.59856818  0.69122109  0.35717009  1
  O2-  O560  1  0.59352622  0.67565041  0.68916257  1
  O2-  O561  1  0.57025453  0.90252669  0.01828267  1
  O2-  O562  1  0.57884022  0.91671918  0.35334051  1
  O2-  O563  1  0.58142750  0.92516514  0.69212891  1
  O2-  O564  1  0.82635298  0.16506134  -0.02896301  1
  O2-  O565  1  0.85065098  0.15883356  0.34840301  1
  O2-  O566  1  0.83136443  0.16984821  0.69129332  1
  O2-  O567  1  0.83405602  0.42757612  0.03038849  1
  O2-  O568  1  0.84116515  0.41070512  0.35803335  1
  O2-  O569  1  0.84108937  0.41996371  0.69045228  1
  O2-  O570  1  0.84136032  0.67196445  0.00598449  1
  O2-  O571  1  0.87235110  0.69099285  0.34337122  1
  O2-  O572  1  0.83465664  0.67328037  0.68574320  1
  O2-  O573  1  0.83080036  0.92306831  0.03198713  1
  O2-  O574  1  0.85256152  0.92856286  0.36180847  1
  O2-  O575  1  0.83514894  0.91930752  0.67470374  1
