# generated using pymatgen
data_H2O
_symmetry_space_group_name_H-M   'P 1'
_cell_length_a   17.93848124
_cell_length_b   17.95578417
_cell_length_c   21.92975158
_cell_angle_alpha   90.02307735
_cell_angle_beta   90.04251694
_cell_angle_gamma   119.96085139
_symmetry_Int_Tables_number   1
_chemical_formula_structural   H2O
_chemical_formula_sum   'H384 O192'
_cell_volume   6119.63171817
_cell_formula_units_Z   192
loop_
 _symmetry_equiv_pos_site_id
 _symmetry_equiv_pos_as_xyz
  1  'x, y, z'
loop_
 _atom_type_symbol
 _atom_type_oxidation_number
  H+  1.0
  O2-  -2.0
loop_
 _atom_site_type_symbol
 _atom_site_label
 _atom_site_symmetry_multiplicity
 _atom_site_fract_x
 _atom_site_fract_y
 _atom_site_fract_z
 _atom_site_occupancy
  H+  H0  1  0.40478923  0.01672057  0.65764474  1
  H+  H1  1  0.64141697  0.53175076  0.16911803  1
  H+  H2  1  0.39914065  0.40027544  0.16575315  1
  H+  H3  1  0.40336239  0.53572328  0.82783855  1
  H+  H4  1  0.02193227  0.52243644  0.40219617  1
  H+  H5  1  0.33190498  0.13305096  0.03419945  1
  H+  H6  1  0.38018534  0.28621768  0.18115002  1
  H+  H7  1  0.36575159  0.29937715  0.63021210  1
  H+  H8  1  0.22689815  0.35339512  0.99583407  1
  H+  H9  1  0.97401960  0.59991029  0.34649777  1
  H+  H10  1  0.60242083  0.86047109  0.83316323  1
  H+  H11  1  0.39179429  0.14743451  0.68668516  1
  H+  H12  1  0.59158540  0.13043067  0.00923614  1
  H+  H13  1  0.21759559  0.59527809  0.31933179  1
  H+  H14  1  0.54230209  0.89632784  0.49122520  1
  H+  H15  1  0.15176281  0.73313364  0.14197045  1
  H+  H16  1  0.81649748  0.90520541  0.24484057  1
  H+  H17  1  0.52642498  0.15970355  0.16677463  1
  H+  H18  1  0.73008985  0.84862890  0.66533360  1
  H+  H19  1  0.53615050  0.89867625  0.16345345  1
  H+  H20  1  0.12789705  0.63654723  0.15271074  1
  H+  H21  1  0.37167203  0.51700097  0.50242829  1
  H+  H22  1  0.94388120  0.47207232  0.48043963  1
  H+  H23  1  0.87022183  0.79150180  0.51222353  1
  H+  H24  1  0.30084524  0.58632202  0.48241486  1
  H+  H25  1  0.63300854  1.12458133  0.84496062  1
  H+  H26  1  0.35920602  0.60674607  0.65747838  1
  H+  H27  1  0.85572257  0.13437962  0.67294493  1
  H+  H28  1  0.11550916  0.36783744  0.32319222  1
  H+  H29  1  0.19881154  0.11530055  0.68287210  1
  H+  H30  1  0.16206954  0.04273581  0.83109862  1
  H+  H31  1  0.90116640  0.49324354  0.15740830  1
  H+  H32  1  1.02987184  0.88372703  0.66940115  1
  H+  H33  1  0.11446697  0.51988823  0.82530753  1
  H+  H34  1  0.72686068  0.59025812  0.83537880  1
  H+  H35  1  0.39459122  0.12210868  0.33550379  1
  H+  H36  1  0.60788484  0.35360026  0.84806679  1
  H+  H37  1  0.86351835  0.47385407  0.66500996  1
  H+  H38  1  0.31504088  0.66489490  0.77484757  1
  H+  H39  1  0.84059576  0.10640685  0.16306479  1
  H+  H40  1  0.38645749  0.57852024  0.96666962  1
  H+  H41  1  0.63310377  0.12867909  0.17307103  1
  H+  H42  1  0.75244889  0.65515075  0.49832024  1
  H+  H43  1  0.16775704  0.92251781  0.33537235  1
  H+  H44  1  0.90068553  0.61310388  0.64888628  1
  H+  H45  1  0.87734193  0.02131413  0.30818434  1
  H+  H46  1  0.65225453  0.13647422  0.33021498  1
  H+  H47  1  0.34595221  0.98336141  1.02084019  1
  H+  H48  1  0.36436930  0.22777461  0.34508645  1
  H+  H49  1  0.91050678  0.37004267  0.47263252  1
  H+  H50  1  0.85609762  0.21341276  0.83782445  1
  H+  H51  1  0.86654478  0.88841017  0.68225578  1
  H+  H52  1  0.32560558  0.63361766  -0.10913511  1
  H+  H53  1  0.76008933  0.13586345  0.00481833  1
  H+  H54  1  0.78083706  0.65163514  0.01625626  1
  H+  H55  1  0.09425898  0.67094305  0.05850587  1
  H+  H56  1  0.33531538  0.40903831  0.40112979  1
  H+  H57  1  -0.01094155  0.13897706  0.51095052  1
  H+  H58  1  0.36781350  0.38570097  0.50482178  1
  H+  H59  1  0.60324958  0.84201212  0.68392582  1
  H+  H60  1  0.37116191  0.79193085  0.00532851  1
  H+  H61  1  0.27634886  0.75641377  0.52133097  1
  H+  H62  1  0.49079579  0.83075900  0.34777754  1
  H+  H63  1  0.11904048  0.75275373  0.34277575  1
  H+  H64  1  0.85628661  0.76922076  0.86613941  1
  H+  H65  1  0.76770649  0.51586317  0.49800746  1
  H+  H66  1  0.11527765  0.85755580  0.16662216  1
  H+  H67  1  0.63526413  0.10736207  0.65355150  1
  H+  H68  1  0.13976713  0.26551153  0.32688803  1
  H+  H69  1  0.44532563  0.61470781  0.49714954  1
  H+  H70  1  0.65123712  0.38664355  0.16082578  1
  H+  H71  1  0.12045162  0.88272555  0.66292296  1
  H+  H72  1  0.60643690  0.72913249  0.00564128  1
  H+  H73  1  0.64330219  0.51861435  0.32824026  1
  H+  H74  1  0.86758099  0.64057463  0.34941065  1
  H+  H75  1  0.69153550  -0.02594445  0.28209239  1
  H+  H76  1  0.37437285  -0.01161676  0.82642375  1
  H+  H77  1  0.39708654  0.87081696  0.17754846  1
  H+  H78  1  0.88579717  0.86216116  0.31143703  1
  H+  H79  1  0.76803465  0.87798460  0.30687503  1
  H+  H80  1  0.39438493  0.86262725  0.67022239  1
  H+  H81  1  0.29750795  0.23042681  0.71426567  1
  H+  H82  1  0.14423031  0.36514362  0.49831763  1
  H+  H83  1  0.10918549  0.47078023  0.00120927  1
  H+  H84  1  0.87130623  0.10286685  0.00167462  1
  H+  H85  1  0.81827123  -0.00807309  0.17921611  1
  H+  H86  1  0.14885090  0.35476068  0.17624461  1
  H+  H87  1  0.25760708  0.39319360  0.66807079  1
  H+  H88  1  0.78040892  0.64074822  0.66516659  1
  H+  H89  1  0.51202456  0.36056019  0.00618365  1
  H+  H90  1  0.72835097  0.61136748  0.32935999  1
  H+  H91  1  0.62224253  0.87988286  0.48937294  1
  H+  H92  1  0.71414016  0.11231672  0.85609425  1
  H+  H93  1  0.09888411  0.13168735  1.00005126  1
  H+  H94  1  0.89194899  0.36030695  0.83342219  1
  H+  H95  1  0.34853969  0.72395848  0.67784311  1
  H+  H96  1  0.10771529  0.73222481  1.00178670  1
  H+  H97  1  0.62368955  0.26270615  -0.00309173  1
  H+  H98  1  0.88805732  0.78866041  1.01113007  1
  H+  H99  1  0.50822097  0.86018564  0.82937476  1
  H+  H100  1  0.72590205  0.36781818  0.64356051  1
  H+  H101  1  0.72137784  0.10455590  0.65611562  1
  H+  H102  1  0.17004636  0.83958902  0.46220005  1
  H+  H103  1  0.52929859  0.11897557  0.49674819  1
  H+  H104  1  0.88339050  0.47945967  0.82272575  1
  H+  H105  1  0.01668884  0.89105801  0.51249509  1
  H+  H106  1  0.20765160  0.08540982  0.18191252  1
  H+  H107  1  0.13198276  -0.01314581  0.17864969  1
  H+  H108  1  0.72546882  0.86655414  0.84307506  1
  H+  H109  1  0.18341835  0.61784209  0.49967248  1
  H+  H110  1  0.26184248  0.40335773  0.82208054  1
  H+  H111  1  0.59227652  0.17616811  0.72858387  1
  H+  H112  1  0.12644364  0.72814904  0.31793129  1
  H+  H113  1  0.91646767  1.08824359  0.60348133  1
  H+  H114  1  0.85365579  0.12487188  0.84865812  1
  H+  H115  1  0.62291625  0.64865670  0.16230903  1
  H+  H116  1  0.11361912  0.45823273  0.32066516  1
  H+  H117  1  0.28375957  0.74837695  0.48888162  1
  H+  H118  1  0.05853878  0.42824973  0.46780123  1
  H+  H119  1  0.14377396  0.11914696  0.51403036  1
  H+  H120  1  0.85276679  0.38066222  0.66273032  1
  H+  H121  1  0.65583882  0.82231904  0.26185392  1
  H+  H122  1  0.10192737  0.64992266  0.82348296  1
  H+  H123  1  0.54344502  0.63426565  0.81997736  1
  H+  H124  1  0.89064978  0.26986873  0.32198847  1
  H+  H125  1  0.60524578  0.88964025  0.00744700  1
  H+  H126  1  0.96201535  0.36052081  0.64088569  1
  H+  H127  1  1.00371993  0.65012616  0.19436283  1
  H+  H128  1  0.85004019  0.88452558  1.03190330  1
  H+  H129  1  0.39387323  0.11614881  0.87593115  1
  H+  H130  1  0.33764299  0.91873897  0.73765181  1
  H+  H131  1  0.13489226  0.02555340  0.34192094  1
  H+  H132  1  0.71859663  0.34634127  0.99582412  1
  H+  H133  1  0.24290123  0.63819189  0.82555250  1
  H+  H134  1  0.27490118  0.37678146  0.34121705  1
  H+  H135  1  0.11644926  0.38555054  1.00241611  1
  H+  H136  1  0.79061425  0.95661963  0.44632811  1
  H+  H137  1  0.10980634  0.74231767  0.83407287  1
  H+  H138  1  0.28514934  0.14173606  0.50238490  1
  H+  H139  1  0.58715129  0.64111641  0.49052308  1
  H+  H140  1  0.11943668  0.28236919  0.66017041  1
  H+  H141  1  0.77976058  0.15577538  0.33842622  1
  H+  H142  1  0.97621396  0.88059679  1.00565462  1
  H+  H143  1  0.87988127  0.47756771  0.32986347  1
  H+  H144  1  0.13894704  0.61706929  0.60005456  1
  H+  H145  1  0.47144202  0.34375428  0.56964958  1
  H+  H146  1  0.47925635  0.59753758  0.99181187  1
  H+  H147  1  0.23098197  0.61140717  0.17717605  1
  H+  H148  1  0.88679437  0.35029810  0.98927326  1
  H+  H149  1  0.65606877  0.63533506  -0.00632507  1
  H+  H150  1  0.63023359  0.75343055  0.31774473  1
  H+  H151  1  0.60711136  0.62404178  0.33857729  1
  H+  H152  1  0.84020539  0.65843116  0.51155419  1
  H+  H153  1  0.51637027  0.85213158  0.68099858  1
  H+  H154  1  0.10919176  0.39198018  0.81624459  1
  H+  H155  1  0.65176672  0.09316711  0.93674022  1
  H+  H156  1  0.11667990  1.01735471  -0.01772916  1
  H+  H157  1  0.85797019  0.97746781  0.83313100  1
  H+  H158  1  0.98572301  0.63085453  0.84443499  1
  H+  H159  1  0.36279818  0.15571788  0.70694879  1
  H+  H160  1  0.84998711  0.88535611  0.83501515  1
  H+  H161  1  0.12301341  0.37315430  0.65257944  1
  H+  H162  1  0.65253491  0.61594396  0.84024900  1
  H+  H163  1  0.51646034  0.62304584  0.33390348  1
  H+  H164  1  0.12177413  0.57683993  0.33317137  1
  H+  H165  1  0.89414806  0.55020317  1.05634979  1
  H+  H166  1  0.34797505  0.48314145  0.66542682  1
  H+  H167  1  0.65808892  0.23997197  0.49596810  1
  H+  H168  1  0.62656288  1.03121736  -0.00357001  1
  H+  H169  1  0.13168374  0.90874240  0.82767992  1
  H+  H170  1  0.10096323  0.88128138  0.51130806  1
  H+  H171  1  0.92391486  0.66201228  0.19397703  1
  H+  H172  1  0.88145958  0.11207104  0.32453095  1
  H+  H173  1  0.52407619  0.13643258  0.81525755  1
  H+  H174  1  0.62176280  0.54162661  0.50728120  1
  H+  H175  1  0.21625058  0.60645550  0.96598341  1
  H+  H176  1  -0.02631683  0.61513732  0.01484607  1
  H+  H177  1  0.88507513  0.20077388  0.50371642  1
  H+  H178  1  0.48917295  0.13108674  0.33318594  1
  H+  H179  1  0.72210943  0.84198033  0.50908331  1
  H+  H180  1  0.65098370  0.60501177  0.56540109  1
  H+  H181  1  0.37566637  0.10017774  0.96518864  1
  H+  H182  1  0.45110029  0.11450282  1.01232056  1
  H+  H183  1  0.39637180  0.49599945  0.15727085  1
  H+  H184  1  0.61874414  0.11217252  0.49493081  1
  H+  H185  1  0.36009248  0.89125315  0.82604380  1
  H+  H186  1  0.38881891  0.86261404  0.33075817  1
  H+  H187  1  0.26087192  0.92776394  0.33309584  1
  H+  H188  1  0.53488666  0.39602422  0.16026352  1
  H+  H189  1  0.50926141  0.36576268  0.65860299  1
  H+  H190  1  0.27594344  0.37981102  0.49859704  1
  H+  H191  1  0.46260753  0.39269789  0.84805380  1
  H+  H192  1  0.94195741  0.61570709  0.28264081  1
  H+  H193  1  0.38306410  0.11938549  0.18462447  1
  H+  H194  1  0.14083174  1.02845402  0.51791992  1
  H+  H195  1  0.10804857  0.12989425  0.34042219  1
  H+  H196  1  0.88326415  1.02048020  0.66051405  1
  H+  H197  1  0.65890452  0.88776950  0.16744288  1
  H+  H198  1  0.25171267  0.64763667  0.67815678  1
  H+  H199  1  0.39082889  0.99326526  0.34563747  1
  H+  H200  1  0.61918922  0.22922150  0.66461165  1
  H+  H201  1  0.69703313  0.33497833  0.43208925  1
  H+  H202  1  0.40303056  0.27238679  0.52031224  1
  H+  H203  1  0.40346342  0.32768390  0.92874080  1
  H+  H204  1  0.37503642  0.45852323  0.00451986  1
  H+  H205  1  0.60559776  0.37382018  0.01006179  1
  H+  H206  1  0.28370757  0.88599932  0.67494517  1
  H+  H207  1  0.37956802  0.60170203  0.32361080  1
  H+  H208  1  0.62703547  0.38853100  0.36524872  1
  H+  H209  1  0.48489741  0.36215672  0.33343809  1
  H+  H210  1  0.40143289  0.24139113  0.94123348  1
  H+  H211  1  0.36450342  0.36497290  0.01053687  1
  H+  H212  1  0.29461142  0.88961182  0.49725213  1
  H+  H213  1  0.92171412  0.32952018  0.89334612  1
  H+  H214  1  0.01953390  0.13204407  0.33792409  1
  H+  H215  1  0.41229686  0.88389512  0.51269226  1
  H+  H216  1  0.33503206  0.21847243  0.01428655  1
  H+  H217  1  0.12052823  0.14665203  0.82742276  1
  H+  H218  1  0.88625515  0.77530239  0.33125788  1
  H+  H219  1  0.61076298  0.66094953  0.76376264  1
  H+  H220  1  0.90068479  0.36840856  0.31406657  1
  H+  H221  1  0.79853931  0.44928493  0.13216656  1
  H+  H222  1  0.37531093  0.63944336  0.16498151  1
  H+  H223  1  0.51717083  0.89326508  0.01003660  1
  H+  H224  1  0.23835481  0.20433874  0.15164180  1
  H+  H225  1  0.13358382  0.27911916  0.83969425  1
  H+  H226  1  0.34781407  0.71111136  0.34007022  1
  H+  H227  1  0.20984157  0.87152135  0.00458038  1
  H+  H228  1  0.39823935  0.78170840  0.17526852  1
  H+  H229  1  0.58202613  0.42833196  0.40275323  1
  H+  H230  1  0.12123480  0.87379915  -0.00025755  1
  H+  H231  1  0.90683577  0.57098141  0.48839180  1
  H+  H232  1  -0.02160827  0.84334012  0.17452683  1
  H+  H233  1  0.35863317  0.36159629  0.67697814  1
  H+  H234  1  0.59304103  0.36962608  0.62837017  1
  H+  H235  1  0.97641843  0.10785210  0.85368968  1
  H+  H236  1  0.49385574  0.10809153  0.65516092  1
  H+  H237  1  0.85416001  0.59338117  0.81773850  1
  H+  H238  1  0.85617840  0.21826416  0.00250906  1
  H+  H239  1  0.83604155  0.64475662  0.72139697  1
  H+  H240  1  0.85253158  0.45220749  -0.00832755  1
  H+  H241  1  0.13056378  0.00430132  0.66075513  1
  H+  H242  1  0.86844858  0.64371895  0.02617974  1
  H+  H243  1  0.58408365  0.82870286  0.34261602  1
  H+  H244  1  0.88511912  0.88694007  0.51555823  1
  H+  H245  1  0.36999301  -0.01561923  0.17149221  1
  H+  H246  1  0.61284481  0.41705745  0.49551621  1
  H+  H247  1  0.63516182  1.03952437  0.17339417  1
  H+  H248  1  0.10111407  0.15025163  0.67810267  1
  H+  H249  1  0.73668560  0.12781814  0.51123496  1
  H+  H250  1  -0.02314889  0.35196064  -0.00864020  1
  H+  H251  1  0.74791772  0.37112825  0.36983238  1
  H+  H252  1  0.62487358  0.76496226  0.50392052  1
  H+  H253  1  0.14639634  0.76767180  0.64852607  1
  H+  H254  1  0.28486383  0.89313962  0.17876029  1
  H+  H255  1  0.61836869  0.24648707  0.15643351  1
  H+  H256  1  0.62453316  0.54198484  0.65138408  1
  H+  H257  1  1.03756407  0.62394248  0.65952321  1
  H+  H258  1  0.56876592  0.42355048  0.77680068  1
  H+  H259  1  0.23225521  0.87643828  0.84597971  1
  H+  H260  1  0.38145201  0.51315462  0.32541607  1
  H+  H261  1  0.91618942  0.84070485  0.60955620  1
  H+  H262  1  0.64495600  0.70255863  0.66286569  1
  H+  H263  1  0.51751664  0.39941126  0.49601747  1
  H+  H264  1  0.65011970  0.95383249  0.26467515  1
  H+  H265  1  0.02020576  0.88870891  0.35181411  1
  H+  H266  1  0.37500525  0.88052638  1.00103673  1
  H+  H267  1  0.99013228  0.35779449  0.31304723  1
  H+  H268  1  0.12369090  0.46753282  0.15903825  1
  H+  H269  1  0.64535359  0.77089956  0.84260271  1
  H+  H270  1  0.12268659  0.23024937  0.49401183  1
  H+  H271  1  0.71686935  0.86345242  1.00507536  1
  H+  H272  1  0.20255488  0.10756833  -0.00719560  1
  H+  H273  1  0.62362016  0.23673487  0.36420360  1
  H+  H274  1  0.39843530  0.11192953  0.51059280  1
  H+  H275  1  0.77117805  0.64178774  0.16562603  1
  H+  H276  1  0.85131831  0.21971416  0.66664109  1
  H+  H277  1  0.87341090  0.01605514  1.01246123  1
  H+  H278  1  0.49038987  0.62394496  0.17521808  1
  H+  H279  1  0.86713015  0.73898252  0.16785808  1
  H+  H280  1  0.76226236  0.47864870  0.51718628  1
  H+  H281  1  0.89465597  0.77547976  0.66496350  1
  H+  H282  1  0.84158256  0.41812552  0.05715240  1
  H+  H283  1  0.17531177  0.09809442  0.89122991  1
  H+  H284  1  0.62617076  0.73953875  0.15867761  1
  H+  H285  1  0.01295167  0.13459312  1.01377773  1
  H+  H286  1  0.09275475  0.48796084  0.66612451  1
  H+  H287  1  0.01606845  0.38217053  0.81740208  1
  H+  H288  1  0.66890726  0.81616093  0.60613287  1
  H+  H289  1  0.70329447  0.36744525  0.21137005  1
  H+  H290  1  0.83049225  0.67249498  0.40430786  1
  H+  H291  1  0.13739449  0.57361628  0.88778043  1
  H+  H292  1  0.07396330  0.91782287  0.41524663  1
  H+  H293  1  0.64606609  0.32371289  0.90200731  1
  H+  H294  1  0.39537737  0.36394217  0.33195170  1
  H+  H295  1  0.56886420  0.16713981  0.06897800  1
  H+  H296  1  0.58217507  0.41902186  0.09495626  1
  H+  H297  1  0.08087412  0.87353519  0.10198293  1
  H+  H298  1  0.42744034  0.83795706  0.60980758  1
  H+  H299  1  0.00910757  0.14112046  0.67767788  1
  H+  H300  1  0.38672348  0.58089918  0.59558798  1
  H+  H301  1  0.40693663  0.83573188  0.90092691  1
  H+  H302  1  0.56507257  0.66871670  0.42773143  1
  H+  H303  1  0.77871631  0.52691009  0.77655784  1
  H+  H304  1  0.36841082  0.76966390  0.84373915  1
  H+  H305  1  0.84397550  0.19340802  0.39749136  1
  H+  H306  1  0.09892567  0.40945734  0.41108993  1
  H+  H307  1  0.89372073  1.06435490  0.50428509  1
  H+  H308  1  0.60562442  0.48154324  0.83619776  1
  H+  H309  1  0.30743286  0.12684149  0.88419775  1
  H+  H310  1  0.07684610  0.95610868  0.05731547  1
  H+  H311  1  0.80358857  0.90199688  0.08981827  1
  H+  H312  1  0.15185547  0.26731785  0.17744408  1
  H+  H313  1  0.36482321  0.42261079  0.09629507  1
  H+  H314  1  0.00707622  0.60591669  0.50697482  1
  H+  H315  1  0.13405960  0.26930254  0.99402102  1
  H+  H316  1  0.27425036  0.13842605  0.34647825  1
  H+  H317  1  0.87655147  0.96357050  0.42728825  1
  H+  H318  1  0.16110172  0.06712805  0.27655366  1
  H+  H319  1  0.24324630  0.16323257  0.77022808  1
  H+  H320  1  0.16458366  0.33975422  0.89781379  1
  H+  H321  1  0.67248797  0.08013889  0.56776755  1
  H+  H322  1  0.46049438  0.06187112  0.88402645  1
  H+  H323  1  0.89066905  0.31620188  0.58677667  1
  H+  H324  1  0.07896641  0.61762301  0.42354347  1
  H+  H325  1  0.66648684  0.83687331  0.94030172  1
  H+  H326  1  0.41535774  0.83000568  0.27005844  1
  H+  H327  1  0.84620931  0.42078116  0.76283471  1
  H+  H328  1  0.10358790  0.16085409  0.09831383  1
  H+  H329  1  0.20557478  0.52786227  0.45623370  1
  H+  H330  1  0.83045313  0.91880495  0.73788611  1
  H+  H331  1  0.60648021  0.23145555  0.82140174  1
  H+  H332  1  0.37371486  0.39432879  0.84537158  1
  H+  H333  1  0.29926894  0.18769412  0.11047178  1
  H+  H334  1  0.34114954  0.17207142  0.44158676  1
  H+  H335  1  0.56855155  0.87393418  0.75865583  1
  H+  H336  1  0.44900584  0.57299976  0.89021828  1
  H+  H337  1  0.58889198  0.92997305  0.10112622  1
  H+  H338  1  0.42304498  0.58105755  0.23207305  1
  H+  H339  1  0.68210497  0.32459243  0.58034102  1
  H+  H340  1  0.30208252  0.63522243  0.39123982  1
  H+  H341  1  0.42886242  0.07707324  0.56965849  1
  H+  H342  1  0.19510853  0.88011460  0.25262884  1
  H+  H343  1  0.92266150  0.82338994  0.23550537  1
  H+  H344  1  0.10997153  0.11340869  0.15930787  1
  H+  H345  1  0.76138656  0.14192996  0.15679049  1
  H+  H346  1  0.83331716  0.67450317  0.09787944  1
  H+  H347  1  0.08689238  0.16500437  0.43694843  1
  H+  H348  1  0.43032744  0.34330741  0.24027304  1
  H+  H349  1  0.66839728  0.58403429  0.23285226  1
  H+  H350  1  0.89576434  0.83804226  0.91895396  1
  H+  H351  1  0.88179530  0.07410269  0.22690285  1
  H+  H352  1  0.34059016  0.66673761  0.10809248  1
  H+  H353  1  0.16815563  0.08333788  0.60444559  1
  H+  H354  1  0.17816387  0.83353341  0.59351583  1
  H+  H355  1  0.68195383  0.11050287  0.26904905  1
  H+  H356  1  0.56294200  0.86386984  0.41505421  1
  H+  H357  1  0.10800862  0.93376215  0.76424774  1
  H+  H358  1  0.89054580  0.42732121  0.38661233  1
  H+  H359  1  0.35789214  0.93055086  0.40423202  1
  H+  H360  1  0.31828049  0.42916345  0.76018162  1
  H+  H361  1  0.41474603  0.79765609  0.51330499  1
  H+  H362  1  0.58427481  0.15456818  0.40554298  1
  H+  H363  1  0.09370949  0.40781735  0.10145764  1
  H+  H364  1  0.42126232  0.09687237  0.24294128  1
  H+  H365  1  0.14295147  0.75623006  0.50203071  1
  H+  H366  1  0.69225181  0.60415780  0.93831874  1
  H+  H367  1  0.15897163  0.57490387  0.22892756  1
  H+  H368  1  0.15732958  0.78431047  0.22880445  1
  H+  H369  1  0.91512633  0.07142085  0.91303473  1
  H+  H370  1  0.82078604  0.15996356  0.09571618  1
  H+  H371  1  0.37974956  0.98474824  0.49943714  1
  H+  H372  1  0.91889000  0.58989100  0.90250911  1
  H+  H373  1  0.16918472  0.84952175  0.90513461  1
  H+  H374  1  0.32469730  0.91963998  0.07721568  1
  H+  H375  1  0.92874763  0.57382910  0.59314320  1
  H+  H376  1  0.16147100  0.33617329  0.56391250  1
  H+  H377  1  0.07630897  0.17150597  0.77395004  1
  H+  H378  1  0.17570904  0.32366078  0.26497134  1
  H+  H379  1  0.37567971  0.69178553  -0.05502108  1
  H+  H380  1  0.76033134  0.29593075  0.50439239  1
  H+  H381  1  0.58321919  0.66958092  0.06421066  1
  H+  H382  1  0.06990185  0.42276450  0.72148736  1
  H+  H383  1  0.13357842  0.61615653  0.98388836  1
  O2-  O384  1  0.12711943  0.16965076  0.14075707  1
  O2-  O385  1  0.09096032  0.16760766  0.48254622  1
  O2-  O386  1  0.08271375  0.17145378  0.81908493  1
  O2-  O387  1  0.10139172  0.40740371  0.14609262  1
  O2-  O388  1  0.11006915  0.42561472  0.45549447  1
  O2-  O389  1  0.07587303  0.41784907  0.79897532  1
  O2-  O390  1  0.10627119  0.67426239  0.13469402  1
  O2-  O391  1  0.09978359  0.65965070  0.49078767  1
  O2-  O392  1  0.07222575  0.68344389  0.81718439  1
  O2-  O393  1  0.08097102  0.88075082  0.14657890  1
  O2-  O394  1  0.07790332  0.91879583  0.49895974  1
  O2-  O395  1  0.11180365  0.94603382  0.80807952  1
  O2-  O396  1  0.29116003  0.19897975  0.15453477  1
  O2-  O397  1  0.34525790  0.17187540  0.48724601  1
  O2-  O398  1  0.36351385  0.14424110  0.90300518  1
  O2-  O399  1  0.37400292  0.43402738  0.14261339  1
  O2-  O400  1  0.33714038  0.41110183  0.48380914  1
  O2-  O401  1  0.32175440  0.43522599  0.80561447  1
  O2-  O402  1  0.34470022  0.67115518  0.15240557  1
  O2-  O403  1  0.25328819  0.58864022  0.46006529  1
  O2-  O404  1  0.30730558  0.66863782  0.81955348  1
  O2-  O405  1  0.34168251  0.92339103  0.15756078  1
  O2-  O406  1  0.35486860  0.92279899  0.48335962  1
  O2-  O407  1  0.33261078  0.92378719  0.81119744  1
  O2-  O408  1  0.58378472  0.18364945  0.14730688  1
  O2-  O409  1  0.58679069  0.14225865  0.47716088  1
  O2-  O410  1  0.58599448  0.17395480  0.80140003  1
  O2-  O411  1  0.59226399  0.43006588  0.14117569  1
  O2-  O412  1  0.57726636  0.44002967  0.47999754  1
  O2-  O413  1  0.56467825  0.42129184  0.82094906  1
  O2-  O414  1  0.59102110  0.67768827  0.14738329  1
  O2-  O415  1  0.55943680  0.67264810  0.47290736  1
  O2-  O416  1  0.60721372  0.66769663  0.80812289  1
  O2-  O417  1  0.59548860  0.93292814  0.14673036  1
  O2-  O418  1  0.59145860  0.90355678  0.46522957  1
  O2-  O419  1  0.56722142  0.88251954  0.81108452  1
  O2-  O420  1  0.82118951  0.15923541  0.14189463  1
  O2-  O421  1  0.84568352  0.21408578  0.48068070  1
  O2-  O422  1  0.81754474  0.15041666  0.83893423  1
  O2-  O423  1  0.85777942  0.47854874  0.11650921  1
  O2-  O424  1  0.94823842  0.43131996  0.45182168  1
  O2-  O425  1  0.85291341  0.41991045  0.80758296  1
  O2-  O426  1  0.83252366  0.67359602  0.14966326  1
  O2-  O427  1  0.81601680  0.68737106  0.48791100  1
  O2-  O428  1  0.80606305  0.58715343  0.78905886  1
  O2-  O429  1  0.77710895  0.89942856  0.17317285  1
  O2-  O430  1  0.84006153  0.95418115  0.46279495  1
  O2-  O431  1  0.82435897  0.91803829  0.81506847  1
  O2-  O432  1  0.15109238  0.04312063  0.19891271  1
  O2-  O433  1  0.17331997  0.08923674  0.53254377  1
  O2-  O434  1  0.19184747  0.10451245  0.84703972  1
  O2-  O435  1  0.17817568  0.32543159  0.19551924  1
  O2-  O436  1  0.16986209  0.33350544  0.51876279  1
  O2-  O437  1  0.16138157  0.34086252  0.85250322  1
  O2-  O438  1  0.16817107  0.58117759  0.18372805  1
  O2-  O439  1  0.13612866  0.61451066  0.52583225  1
  O2-  O440  1  0.14034829  0.57971824  0.84247535  1
  O2-  O441  1  0.18386880  0.84295525  0.21330903  1
  O2-  O442  1  0.16848217  0.82307682  0.50482858  1
  O2-  O443  1  0.17082316  0.84738511  0.85981350  1
  O2-  O444  1  0.41817219  0.09432121  0.19661898  1
  O2-  O445  1  0.42584471  0.07779828  0.52220947  1
  O2-  O446  1  0.43338075  0.07346972  0.84958349  1
  O2-  O447  1  0.42831479  0.34448701  0.19421687  1
  O2-  O448  1  0.43014705  0.33325810  0.53541702  1
  O2-  O449  1  0.40982757  0.37883121  0.87105435  1
  O2-  O450  1  0.42767087  0.58667383  0.18619286  1
  O2-  O451  1  0.38572487  0.57713783  0.51206255  1
  O2-  O452  1  0.44965900  0.58920310  0.84712689  1
  O2-  O453  1  0.42862539  0.84112501  0.19201442  1
  O2-  O454  1  0.44610407  0.85644560  0.52870215  1
  O2-  O455  1  0.41062246  0.83065075  0.85625289  1
  O2-  O456  1  0.66569915  0.10037874  0.18782447  1
  O2-  O457  1  0.67759781  0.08284316  0.52096503  1
  O2-  O458  1  0.65308471  0.09079257  0.86893158  1
  O2-  O459  1  0.68650022  0.35780106  0.16857176  1
  O2-  O460  1  0.70676742  0.30102044  0.50233614  1
  O2-  O461  1  0.64080318  0.32447352  0.85701195  1
  O2-  O462  1  0.67125304  0.59117939  0.18746961  1
  O2-  O463  1  0.65074842  0.60356111  0.51988123  1
  O2-  O464  1  0.67487427  0.57943569  0.85882323  1
  O2-  O465  1  0.68170705  0.85102496  0.18465291  1
  O2-  O466  1  0.66411790  0.82291252  0.52401807  1
  O2-  O467  1  0.66521069  0.82932080  0.85979870  1
  O2-  O468  1  0.86127454  0.05949294  0.18378628  1
  O2-  O469  1  0.92914905  0.11922173  0.52557168  1
  O2-  O470  1  0.91585174  0.07271077  0.86752130  1
  O2-  O471  1  0.95106980  0.51343160  0.20648668  1
  O2-  O472  1  0.85577459  0.29366675  0.50988833  1
  O2-  O473  1  0.92238406  0.32903005  0.84791628  1
  O2-  O474  1  0.97581493  0.67652679  0.21771726  1
  O2-  O475  1  0.94230560  0.56107871  0.51718722  1
  O2-  O476  1  0.92254206  0.58815118  0.85819272  1
  O2-  O477  1  0.91868916  0.82087120  0.19001327  1
  O2-  O478  1  0.90772161  0.85034719  0.52989079  1
  O2-  O479  1  0.88776092  0.83076649  0.87349479  1
  O2-  O480  1  0.16593247  0.08236110  0.32078136  1
  O2-  O481  1  0.15425203  0.07044324  0.65000448  1
  O2-  O482  1  0.14844887  0.08040268  0.96858058  1
  O2-  O483  1  0.17400671  0.32601286  0.31224613  1
  O2-  O484  1  0.15217606  0.34013145  0.64061272  1
  O2-  O485  1  0.16854502  0.32990759  0.97867553  1
  O2-  O486  1  0.15640867  0.56129558  0.30539983  1
  O2-  O487  1  0.13868345  0.60853281  0.64582707  1
  O2-  O488  1  0.15289855  0.57703229  0.96622084  1
  O2-  O489  1  0.21723287  0.93382193  0.30899269  1
  O2-  O490  1  0.17199919  0.82993657  0.63802973  1
  O2-  O491  1  0.15149972  0.84137322  0.98621175  1
  O2-  O492  1  0.42822813  0.09679184  0.31751231  1
  O2-  O493  1  0.43440622  0.07359709  0.63725630  1
  O2-  O494  1  0.38683941  0.08507645  1.00741790  1
  O2-  O495  1  0.42522723  0.33301968  0.31630512  1
  O2-  O496  1  0.37615915  0.31578841  0.67322037  1
  O2-  O497  1  0.40740150  0.29258865  0.96423887  1
  O2-  O498  1  0.41165003  0.57299716  0.30835122  1
  O2-  O499  1  0.38957588  0.57797956  0.64054441  1
  O2-  O500  1  0.42359045  0.55294000  0.97314004  1
  O2-  O501  1  0.40781249  0.82199575  0.31537756  1
  O2-  O502  1  0.42003190  0.82739175  0.65438518  1
  O2-  O503  1  0.40392815  0.84756410  0.98538880  1
  O2-  O504  1  0.68894481  0.11367055  0.31403826  1
  O2-  O505  1  0.66198168  0.07440620  0.63777146  1
  O2-  O506  1  0.65338860  0.09249663  0.98454115  1
  O2-  O507  1  0.68936678  0.34519681  0.38779055  1
  O2-  O508  1  0.66888693  0.33578337  0.62225093  1
  O2-  O509  1  0.65781533  0.32374262  0.98295105  1
  O2-  O510  1  0.66835060  0.57901859  0.31293751  1
  O2-  O511  1  0.66380098  0.60419441  0.64413319  1
  O2-  O512  1  0.69784626  0.61668912  0.98267058  1
  O2-  O513  1  0.65510127  0.81590426  0.30719726  1
  O2-  O514  1  0.67002985  0.80692640  0.65068491  1
  O2-  O515  1  0.65845849  0.83568683  0.98540852  1
  O2-  O516  1  0.91162692  0.08524330  0.30397242  1
  O2-  O517  1  0.91536864  0.08233738  0.64864201  1
  O2-  O518  1  0.90500765  0.07340402  0.99250760  1
  O2-  O519  1  0.92536341  0.32991326  0.30058573  1
  O2-  O520  1  0.89963552  0.32685940  0.63163655  1
  O2-  O521  1  0.91723606  0.31999387  0.97418301  1
  O2-  O522  1  0.92148027  0.58983982  0.32430255  1
  O2-  O523  1  0.93027003  0.58056380  0.63850417  1
  O2-  O524  1  0.90919798  0.58199815  1.01641103  1
  O2-  O525  1  0.92219187  0.83441198  0.31433502  1
  O2-  O526  1  0.92451127  0.83794465  0.65413478  1
  O2-  O527  1  0.90949930  0.84785659  0.99622617  1
  O2-  O528  1  0.07621969  0.16502822  0.02259618  1
  O2-  O529  1  0.07792880  0.16037883  0.35649126  1
  O2-  O530  1  0.07028724  0.17851142  0.69314210  1
  O2-  O531  1  0.08233638  0.41160890  0.01788121  1
  O2-  O532  1  0.08087903  0.39669571  0.33539239  1
  O2-  O533  1  0.06979948  0.42663878  0.67569793  1
  O2-  O534  1  0.08483753  0.67048541  0.01334646  1
  O2-  O535  1  0.05446911  0.58101339  0.38517477  1
  O2-  O536  1  0.10069185  0.65879663  0.66993015  1
  O2-  O537  1  0.07052113  0.92520785  0.01945170  1
  O2-  O538  1  0.07897652  0.92215827  0.37027842  1
  O2-  O539  1  0.09354574  0.91671019  0.67803101  1
  O2-  O540  1  0.29972806  0.16515216  0.03882628  1
  O2-  O541  1  0.33459508  0.16845340  0.36254992  1
  O2-  O542  1  0.24241319  0.17845356  0.72719022  1
  O2-  O543  1  0.34322964  0.40169520  0.02728645  1
  O2-  O544  1  0.33649699  0.41021443  0.35573614  1
  O2-  O545  1  0.31805856  0.42239179  0.68340246  1
  O2-  O546  1  0.33037815  0.63322758  -0.06368159  1
  O2-  O547  1  0.32052498  0.64823708  0.34751664  1
  O2-  O548  1  0.30999663  0.66415559  0.69297077  1
  O2-  O549  1  0.32048326  0.92044602  0.03193893  1
  O2-  O550  1  0.35668698  0.93164726  0.35865701  1
  O2-  O551  1  0.34264761  0.91347544  0.69169126  1
  O2-  O552  1  0.55923879  0.15981001  0.02407418  1
  O2-  O553  1  0.58819628  0.17296586  0.36119356  1
  O2-  O554  1  0.59156541  0.17094631  0.68229434  1
  O2-  O555  1  0.56870061  0.39707049  0.02547482  1
  O2-  O556  1  0.59110147  0.41659836  0.35977419  1
  O2-  O557  1  0.55200881  0.39235826  0.62586791  1
  O2-  O558  1  0.58020381  0.66759028  0.01899726  1
  O2-  O559  1  0.57666147  0.65586834  0.35028406  1
  O2-  O560  1  0.62129568  0.64227062  0.67964208  1
  O2-  O561  1  0.57762778  0.92198286  0.02422049  1
  O2-  O562  1  0.53730781  0.82520075  0.37067059  1
  O2-  O563  1  0.57314642  0.87095322  0.70169551  1
  O2-  O564  1  0.82046920  0.15922240  0.02043920  1
  O2-  O565  1  0.84361700  0.18429281  0.35285027  1
  O2-  O566  1  0.82084097  0.16095725  0.68349571  1
  O2-  O567  1  0.82943813  0.39708152  0.01317831  1
  O2-  O568  1  0.86075940  0.41846606  0.34618328  1
  O2-  O569  1  0.82606372  0.41392908  0.67960486  1
  O2-  O570  1  0.83968536  0.67785410  0.03893290  1
  O2-  O571  1  0.83332730  0.66958850  0.35943193  1
  O2-  O572  1  0.84089038  0.66447045  0.67811803  1
  O2-  O573  1  0.81317066  0.90945612  0.04498684  1
  O2-  O574  1  0.82782653  0.91114250  0.29068751  1
  O2-  O575  1  0.83136557  0.91559358  0.69196671  1
