# generated using pymatgen
data_H2O
_symmetry_space_group_name_H-M   'P 1'
_cell_length_a   17.98373573
_cell_length_b   17.99135970
_cell_length_c   22.00493971
_cell_angle_alpha   90.00513898
_cell_angle_beta   89.98567164
_cell_angle_gamma   120.00486382
_symmetry_Int_Tables_number   1
_chemical_formula_structural   H2O
_chemical_formula_sum   'H384 O192'
_cell_volume   6165.57254278
_cell_formula_units_Z   192
loop_
 _symmetry_equiv_pos_site_id
 _symmetry_equiv_pos_as_xyz
  1  'x, y, z'
loop_
 _atom_type_symbol
 _atom_type_oxidation_number
  H+  1.0
  O2-  -2.0
loop_
 _atom_site_type_symbol
 _atom_site_label
 _atom_site_symmetry_multiplicity
 _atom_site_fract_x
 _atom_site_fract_y
 _atom_site_fract_z
 _atom_site_occupancy
  H+  H0  1  0.13986382  0.12997294  0.49005811  1
  H+  H1  1  0.41835384  0.08561827  0.60317263  1
  H+  H2  1  0.12050608  0.72256739  0.48896713  1
  H+  H3  1  0.85666227  0.71811716  0.49746707  1
  H+  H4  1  0.33796620  0.92030931  0.43431803  1
  H+  H5  1  0.26874027  0.13450586  0.16568473  1
  H+  H6  1  0.54040548  0.39010255  0.15315338  1
  H+  H7  1  0.41421877  0.53865478  0.66145672  1
  H+  H8  1  0.35927332  0.50182350  0.16238086  1
  H+  H9  1  0.87953654  0.71522083  0.67440687  1
  H+  H10  1  0.14101716  0.86382675  0.16421631  1
  H+  H11  1  0.89201527  0.52826961  0.32622802  1
  H+  H12  1  0.72294519  0.86484848  0.32535259  1
  H+  H13  1  0.10834043  0.72369210  0.03230060  1
  H+  H14  1  0.69135681  0.09438988  1.03078860  1
  H+  H15  1  0.71547226  0.10094961  0.16359293  1
  H+  H16  1  0.22892781  0.85559417  0.49880896  1
  H+  H17  1  0.09463431  0.38183036  0.33295009  1
  H+  H18  1  0.69991585  0.34512740  0.93706947  1
  H+  H19  1  0.89692729  0.61809744  0.83857918  1
  H+  H20  1  0.89490621  0.03794963  0.49847479  1
  H+  H21  1  0.86826144  0.38698765  0.49079659  1
  H+  H22  1  0.63634374  0.11111602  0.50493844  1
  H+  H23  1  0.88347773  0.50804310  0.65636703  1
  H+  H24  1  0.77042571  0.88752732  0.16385719  1
  H+  H25  1  0.60114509  0.36485145  0.82436988  1
  H+  H26  1  0.48949285  0.85291347  1.01123255  1
  H+  H27  1  0.09491564  0.22526090  0.00996976  1
  H+  H28  1  0.00937557  0.62072423  0.67085795  1
  H+  H29  1  0.90181044  0.83345538  0.88454294  1
  H+  H30  1  0.72417797  0.34666737  0.12689869  1
  H+  H31  1  0.60659828  0.72430315  0.83376056  1
  H+  H32  1  0.32342045  0.08618129  0.67336328  1
  H+  H33  1  0.22648882  0.12204334  0.49714388  1
  H+  H34  1  0.15925620  0.57037849  0.59704972  1
  H+  H35  1  0.64438166  0.61352053  0.50712837  1
  H+  H36  1  0.38030781  0.62862394  1.02184279  1
  H+  H37  1  0.39008967  1.01877956  0.65729461  1
  H+  H38  1  0.88674438  0.53380628  0.13055747  1
  H+  H39  1  0.14654895  0.61105717  0.85321313  1
  H+  H40  1  0.01551509  0.13464385  0.33293982  1
  H+  H41  1  0.78465323  0.62676825  0.82743436  1
  H+  H42  1  0.41813415  0.36916734  0.99841685  1
  H+  H43  1  0.85460982  0.22123285  0.14043877  1
  H+  H44  1  0.22092339  0.36882222  0.17019261  1
  H+  H45  1  0.14421799  0.03666640  0.99705707  1
  H+  H46  1  0.27394015  0.62526123  0.17192077  1
  H+  H47  1  -0.06031281  0.35170273  -0.00650875  1
  H+  H48  1  0.37763233  0.02158940  0.82594354  1
  H+  H49  1  0.28661204  0.48796978  0.11692843  1
  H+  H50  1  0.84827171  0.23161861  0.65392476  1
  H+  H51  1  0.64515531  0.50993583  0.65624850  1
  H+  H52  1  0.53313373  0.28530226  0.29465630  1
  H+  H53  1  0.05406714  0.39865186  0.06976682  1
  H+  H54  1  0.39460848  0.62009029  0.84434755  1
  H+  H55  1  0.62771895  0.73371693  0.48878102  1
  H+  H56  1  0.32769224  0.42106426  0.40900263  1
  H+  H57  1  0.87850596  0.03417409  0.85028495  1
  H+  H58  1  0.55075949  0.63942603  0.68561095  1
  H+  H59  1  0.73969185  0.11589907  0.84749871  1
  H+  H60  1  0.23088386  0.86141313  0.16441484  1
  H+  H61  1  0.63399713  0.60457481  -0.00799367  1
  H+  H62  1  0.36107105  0.22047142  0.15984008  1
  H+  H63  1  0.10478046  0.22568955  0.33291037  1
  H+  H64  1  0.61224831  0.99581681  0.01949253  1
  H+  H65  1  0.35611678  0.12930517  0.83097665  1
  H+  H66  1  0.37956238  0.61691514  0.33027376  1
  H+  H67  1  0.86387922  0.03303822  0.64711002  1
  H+  H68  1  0.63974617  0.27012307  0.84680510  1
  H+  H69  1  0.15359526  0.26914622  0.65342700  1
  H+  H70  1  0.60969670  0.13248019  0.17107428  1
  H+  H71  1  0.61747600  0.97860173  0.48879278  1
  H+  H72  1  0.71606247  0.10791478  0.65158718  1
  H+  H73  1  0.34116946  0.65618303  0.11496591  1
  H+  H74  1  0.78006949  0.65511516  0.15343101  1
  H+  H75  1  0.85872496  0.47129243  0.82297609  1
  H+  H76  1  0.60975054  0.01535354  0.87969639  1
  H+  H77  1  0.14328358  0.88381633  0.67446639  1
  H+  H78  1  0.73557492  0.87447118  0.64693960  1
  H+  H79  1  0.86472897  0.38518739  0.82464222  1
  H+  H80  1  0.08151695  0.64144897  0.77136846  1
  H+  H81  1  0.63686335  0.38906119  0.00585138  1
  H+  H82  1  0.40218482  -0.03502891  1.03173589  1
  H+  H83  1  0.37537071  0.01323307  0.32936252  1
  H+  H84  1  0.14056575  0.04032448  0.34829340  1
  H+  H85  1  0.89084148  0.78551585  0.33104903  1
  H+  H86  1  0.85238751  0.37635227  0.13347025  1
  H+  H87  1  0.57847272  0.40286853  0.72180066  1
  H+  H88  1  0.72054807  0.11233939  0.32185764  1
  H+  H89  1  0.37139046  0.89128123  0.81770780  1
  H+  H90  1  0.88779685  0.11338550  0.16221187  1
  H+  H91  1  0.75868732  0.89830264  0.82914450  1
  H+  H92  1  0.65906792  0.84104684  0.89830299  1
  H+  H93  1  0.10102510  0.37679092  0.16303017  1
  H+  H94  1  0.63374501  0.77497907  0.32574922  1
  H+  H95  1  0.00248932  0.86432817  0.66461161  1
  H+  H96  1  0.11393948  0.38861242  0.82961481  1
  H+  H97  1  0.28468196  0.40896776  0.65776041  1
  H+  H98  1  0.53906682  0.37334971  1.00178618  1
  H+  H99  1  0.85169296  0.35059724  0.97993202  1
  H+  H100  1  0.03045121  0.63388367  0.49089664  1
  H+  H101  1  0.26635958  0.64393118  0.68608386  1
  H+  H102  1  0.96510831  0.35366182  0.16435431  1
  H+  H103  1  -0.02579909  0.36339277  0.65576990  1
  H+  H104  1  0.46452281  0.34691928  0.83460099  1
  H+  H105  1  0.01632053  0.88284967  0.81872056  1
  H+  H106  1  0.60539530  0.88050523  0.01678746  1
  H+  H107  1  0.98263049  0.36517005  0.49745500  1
  H+  H108  1  0.13352389  0.60253931  0.65675127  1
  H+  H109  1  0.77374630  0.62803387  0.49306613  1
  H+  H110  1  0.52010589  0.87546557  0.66302281  1
  H+  H111  1  0.12224883  0.88670284  0.38754467  1
  H+  H112  1  0.52002942  0.63625700  0.34155339  1
  H+  H113  1  1.04146907  0.94369561  0.41305014  1
  H+  H114  1  0.89878300  0.32262598  0.21880094  1
  H+  H115  1  0.60644596  0.97475312  0.33357306  1
  H+  H116  1  0.84049623  0.66060848  0.76547953  1
  H+  H117  1  0.28805244  0.65208629  0.84461558  1
  H+  H118  1  0.48066688  0.86676264  0.50665646  1
  H+  H119  1  0.52053661  0.13592497  0.17284282  1
  H+  H120  1  0.62525531  0.24923295  0.14537289  1
  H+  H121  1  0.51605215  0.12726176  0.34179976  1
  H+  H122  1  0.77749774  0.38410295  0.49341607  1
  H+  H123  1  0.02503453  0.63102245  0.33979572  1
  H+  H124  1  0.61481882  0.22425768  0.49373656  1
  H+  H125  1  0.15793428  0.76674505  0.65159394  1
  H+  H126  1  0.36687439  -0.02787417  0.16604020  1
  H+  H127  1  0.58981092  0.65669547  0.78210172  1
  H+  H128  1  0.12638969  0.85287332  0.82870821  1
  H+  H129  1  0.35799603  0.22933079  0.83689306  1
  H+  H130  1  0.17668759  0.83092866  1.08339136  1
  H+  H131  1  0.64606917  0.53564827  0.32679198  1
  H+  H132  1  -0.01813262  0.60807339  0.83910099  1
  H+  H133  1  0.58053432  0.16100599  0.43577916  1
  H+  H134  1  0.62667873  0.86934035  0.83866818  1
  H+  H135  1  0.91418242  0.86060709  0.67877369  1
  H+  H136  1  0.37549549  0.10173988  0.33207032  1
  H+  H137  1  0.39516219  0.60290595  0.50375046  1
  H+  H138  1  0.62849065  0.51064671  0.99296249  1
  H+  H139  1  0.10622726  0.46811395  0.16455203  1
  H+  H140  1  0.52375902  0.87938204  0.16467635  1
  H+  H141  1  0.38116618  0.77767711  0.65980624  1
  H+  H142  1  0.77649713  0.90194701  0.48616174  1
  H+  H143  1  -0.02270407  0.11505610  0.17005328  1
  H+  H144  1  0.77283082  0.13948406  0.49180946  1
  H+  H145  1  0.52775588  0.63767949  0.16583870  1
  H+  H146  1  0.36485083  -0.02168759  0.49469669  1
  H+  H147  1  0.64218889  0.61716282  0.17015710  1
  H+  H148  1  0.26601127  0.88137657  0.34722341  1
  H+  H149  1  0.21997787  0.35974012  0.84006434  1
  H+  H150  1  0.08032259  0.45981697  0.01139663  1
  H+  H151  1  0.47714797  0.11377778  0.50805405  1
  H+  H152  1  0.38034271  0.10657054  0.17362595  1
  H+  H153  1  0.53846788  0.06112683  0.02972769  1
  H+  H154  1  0.18492512  0.36866504  0.99333167  1
  H+  H155  1  0.96068410  0.11867405  1.00896910  1
  H+  H156  1  0.26405674  0.14437673  0.33960548  1
  H+  H157  1  0.26769643  0.14886732  0.00737385  1
  H+  H158  1  0.36848073  0.22770732  0.49905154  1
  H+  H159  1  0.46640948  0.11311232  0.83096637  1
  H+  H160  1  0.13721608  0.02413337  0.18112257  1
  H+  H161  1  0.63962062  0.77202855  0.99114708  1
  H+  H162  1  0.60421556  0.45236972  0.82271876  1
  H+  H163  1  0.35922713  0.47751004  0.82863553  1
  H+  H164  1  0.38853162  0.47822738  0.50158006  1
  H+  H165  1  0.61150418  0.63991497  0.33504428  1
  H+  H166  1  0.84614086  0.89557810  0.82429988  1
  H+  H167  1  0.21335534  0.46187737  0.60454199  1
  H+  H168  1  0.53497896  0.63869128  1.00398017  1
  H+  H169  1  0.14502157  0.89928069  0.02608421  1
  H+  H170  1  0.48039477  0.34983392  0.51214850  1
  H+  H171  1  0.84330087  0.68967479  0.00762851  1
  H+  H172  1  0.20937465  0.36222776  0.33430981  1
  H+  H173  1  0.63498088  0.86206746  0.17090243  1
  H+  H174  1  0.73566769  0.59907066  0.65764457  1
  H+  H175  1  0.86385555  0.14297456  0.48824766  1
  H+  H176  1  0.63656041  0.25842816  0.66169549  1
  H+  H177  1  0.39629596  0.27242309  -0.00375696  1
  H+  H178  1  0.13279426  0.12076838  0.32893629  1
  H+  H179  1  0.11498493  0.59422222  1.00679933  1
  H+  H180  1  0.47413442  0.09358819  1.00936702  1
  H+  H181  1  0.13912887  0.59890295  0.18220072  1
  H+  H182  1  0.41080260  0.52746276  0.98999104  1
  H+  H183  1  0.38512022  0.76481331  0.18183837  1
  H+  H184  1  0.90855464  0.97642855  0.69640693  1
  H+  H185  1  0.78252832  0.64619405  0.33780858  1
  H+  H186  1  0.40944184  0.36239551  0.19218353  1
  H+  H187  1  0.35586972  0.88206008  0.33950035  1
  H+  H188  1  0.40759368  0.37826324  0.33432493  1
  H+  H189  1  0.39570046  0.14814765  -0.01868373  1
  H+  H190  1  0.10183815  0.13969662  0.00785883  1
  H+  H191  1  0.10498521  0.21629462  0.82304972  1
  H+  H192  1  0.14155541  0.59911844  0.31853709  1
  H+  H193  1  0.25930612  0.61958689  0.32944912  1
  H+  H194  1  0.13768167  0.60722056  0.50666812  1
  H+  H195  1  0.61662248  0.37604976  0.66661383  1
  H+  H196  1  0.85697333  0.75801447  1.07742424  1
  H+  H197  1  0.34621576  0.71610446  0.33719143  1
  H+  H198  1  0.06818578  0.07413984  0.67388308  1
  H+  H199  1  0.35442455  0.38676842  0.82222876  1
  H+  H200  1  0.59703700  0.97536609  0.79546635  1
  H+  H201  1  0.32279879  0.68642362  0.74617902  1
  H+  H202  1  0.88054834  0.02348408  0.32202190  1
  H+  H203  1  0.10435299  0.46982270  0.67466702  1
  H+  H204  1  0.61525174  0.72753994  0.16154626  1
  H+  H205  1  0.24607929  0.85840437  0.65377434  1
  H+  H206  1  0.26088646  0.13172098  0.83790128  1
  H+  H207  1  0.86165845  0.89858877  0.49260099  1
  H+  H208  1  0.62769428  1.01090979  0.16828323  1
  H+  H209  1  0.12444044  0.39673320  0.47799172  1
  H+  H210  1  0.63474858  0.35233061  0.13634440  1
  H+  H211  1  0.53808284  0.40079667  0.34524163  1
  H+  H212  1  0.60625619  0.12367705  0.67679629  1
  H+  H213  1  0.37311458  0.86603098  1.01824764  1
  H+  H214  1  0.10921302  0.47809454  0.32810938  1
  H+  H215  1  0.09090326  0.35099142  0.99411499  1
  H+  H216  1  0.72192685  0.86532234  0.99322518  1
  H+  H217  1  0.85638031  0.38541082  0.33425423  1
  H+  H218  1  0.24131549  0.09651106  0.65946601  1
  H+  H219  1  0.71797539  0.36044440  0.34134073  1
  H+  H220  1  0.14359148  0.07558881  0.57565222  1
  H+  H221  1  0.12959315  0.51459251  0.50390691  1
  H+  H222  1  0.15138273  0.52670447  0.85165050  1
  H+  H223  1  0.13035405  0.75436116  0.33799125  1
  H+  H224  1  0.89068544  0.60983355  0.50551989  1
  H+  H225  1  0.13030678  1.02115996  0.84087236  1
  H+  H226  1  0.86234262  0.38329553  0.66895826  1
  H+  H227  1  0.12099876  1.00535922  0.62697619  1
  H+  H228  1  0.43311077  0.24028275  0.31040155  1
  H+  H229  1  0.13918087  0.27197771  0.17330133  1
  H+  H230  1  0.37242970  0.74539930  0.83643815  1
  H+  H231  1  0.39322164  0.61795467  0.18792088  1
  H+  H232  1  0.64275965  0.35998173  0.50867767  1
  H+  H233  1  0.96831448  0.61416291  0.15923751  1
  H+  H234  1  0.62300716  0.39903864  0.35498671  1
  H+  H235  1  0.33483234  0.23710686  0.36113212  1
  H+  H236  1  0.83485688  0.41637837  0.39707076  1
  H+  H237  1  0.81750912  0.40238568  0.07229271  1
  H+  H238  1  0.89076622  0.27678649  0.49993751  1
  H+  H239  1  0.42646286  0.87854653  0.88693709  1
  H+  H240  1  0.59779563  0.42219661  0.09286255  1
  H+  H241  1  0.12435183  1.01333566  0.44876908  1
  H+  H242  1  0.85988493  -0.02166259  0.16179149  1
  H+  H243  1  0.87294231  0.03049218  1.00631345  1
  H+  H244  1  0.10912441  0.72233091  0.18364090  1
  H+  H245  1  0.27675881  0.88501599  0.80984804  1
  H+  H246  1  0.31189466  0.38589492  0.00969762  1
  H+  H247  1  0.61861479  0.47446362  0.50267790  1
  H+  H248  1  0.88960476  0.52016958  0.50325850  1
  H+  H249  1  0.02589560  0.89359281  0.16565294  1
  H+  H250  1  0.37521668  0.71312325  1.02692049  1
  H+  H251  1  0.72132951  0.50796663  0.87715611  1
  H+  H252  1  0.80022774  0.78647627  0.55677141  1
  H+  H253  1  0.37504875  0.88569611  0.66275382  1
  H+  H254  1  0.38640035  0.85521680  0.17973916  1
  H+  H255  1  0.38751673  0.11368053  0.50920607  1
  H+  H256  1  0.84745689  0.88194096  0.01863953  1
  H+  H257  1  0.85436669  0.14690873  0.65459052  1
  H+  H258  1  0.39998942  0.36028874  0.36622341  1
  H+  H259  1  0.49140793  0.61774809  0.50474867  1
  H+  H260  1  -0.04075181  0.09840129  0.65827027  1
  H+  H261  1  1.03234031  0.15506610  0.48798763  1
  H+  H262  1  0.72914990  0.35834625  0.83798546  1
  H+  H263  1  0.59582006  0.13000631  0.84297868  1
  H+  H264  1  0.37276903  0.52781485  0.34161730  1
  H+  H265  1  -0.02278512  0.37659050  0.84302043  1
  H+  H266  1  0.89221385  0.87500485  0.17569043  1
  H+  H267  1  0.62989739  0.01335946  0.65571287  1
  H+  H268  1  0.06022447  0.65337052  0.23521886  1
  H+  H269  1  0.87190804  0.62263660  0.67161663  1
  H+  H270  1  0.98067495  0.61820175  0.99263878  1
  H+  H271  1  0.46574123  0.85889634  0.33093632  1
  H+  H272  1  0.64331541  0.86884163  0.49385819  1
  H+  H273  1  0.50401770  0.89135822  0.82225145  1
  H+  H274  1  0.58355189  0.91925293  0.42890842  1
  H+  H275  1  0.32248211  0.63803599  0.42767697  1
  H+  H276  1  0.24430249  0.85986269  1.02952845  1
  H+  H277  1  0.82957211  0.12701910  0.83378616  1
  H+  H278  1  0.65120691  0.53275975  0.16773623  1
  H+  H279  1  0.12616391  0.22339141  0.66374867  1
  H+  H280  1  0.87733947  0.77028207  0.82885149  1
  H+  H281  1  0.17005788  0.82749091  0.88059112  1
  H+  H282  1  0.84787968  0.13503752  0.04408909  1
  H+  H283  1  0.63012536  0.27003735  0.34923356  1
  H+  H284  1  0.06594841  0.89883752  -0.00468040  1
  H+  H285  1  0.86108004  0.89044148  0.33624099  1
  H+  H286  1  0.87931350  0.27404402  0.31820540  1
  H+  H287  1  0.11263676  0.71338091  0.82228064  1
  H+  H288  1  0.91709327  0.57058168  0.59583878  1
  H+  H289  1  0.92140919  0.84608778  0.27341326  1
  H+  H290  1  0.57635984  0.90520256  0.09920426  1
  H+  H291  1  0.17185596  0.82400418  0.55733977  1
  H+  H292  1  0.33893201  0.23285341  0.70759984  1
  H+  H293  1  0.12678770  0.10918395  0.84041907  1
  H+  H294  1  0.96727114  0.36426689  0.31544985  1
  H+  H295  1  0.33558981  0.16573071  0.43940442  1
  H+  H296  1  0.66966873  0.32275804  0.56557760  1
  H+  H297  1  0.07618463  0.42125312  0.42482744  1
  H+  H298  1  0.08926203  0.91468011  0.76597328  1
  H+  H299  1  0.92675712  0.58397554  0.92499677  1
  H+  H300  1  0.67318536  0.58069905  0.56708814  1
  H+  H301  1  0.35924219  0.32761529  0.69952146  1
  H+  H302  1  0.57680478  0.89804990  0.72266771  1
  H+  H303  1  0.64313991  0.86520120  0.64588719  1
  H+  H304  1  0.01531041  0.13178514  0.83585284  1
  H+  H305  1  0.39457574  0.35435231  0.51201098  1
  H+  H306  1  0.08321414  0.17610512  0.42560785  1
  H+  H307  1  0.42823340  0.58764130  0.93137535  1
  H+  H308  1  0.83196705  0.41139822  0.73026339  1
  H+  H309  1  0.39283380  0.86811457  0.50736467  1
  H+  H310  1  0.27075624  0.61139275  0.48992831  1
  H+  H311  1  0.41920975  0.58004449  0.24516272  1
  H+  H312  1  0.52091547  0.13032598  0.67966030  1
  H+  H313  1  0.82265498  0.92052839  0.07257029  1
  H+  H314  1  0.85622361  0.13659286  0.33520060  1
  H+  H315  1  0.25579377  0.94187121  0.92876428  1
  H+  H316  1  0.66113109  0.08039161  0.26214276  1
  H+  H317  1  0.60672698  0.13046158  0.33761403  1
  H+  H318  1  0.34169760  0.91477813  0.72243358  1
  H+  H319  1  0.24481062  0.42013496  0.41776064  1
  H+  H320  1  0.90746914  0.09266277  0.91003569  1
  H+  H321  1  0.82689016  0.16742027  0.39427627  1
  H+  H322  1  0.40870877  0.82851751  0.27124641  1
  H+  H323  1  0.63692707  0.07577092  0.93683634  1
  H+  H324  1  0.67839498  0.55896266  0.90143828  1
  H+  H325  1  0.05898587  0.70788380  0.70566017  1
  H+  H326  1  0.75727027  0.60162896  -0.00963463  1
  H+  H327  1  0.32516066  0.16667466  0.06788220  1
  H+  H328  1  0.16438790  0.33277726  0.26772600  1
  H+  H329  1  0.34516082  0.90859827  0.10883998  1
  H+  H330  1  0.08834046  0.92730754  0.10715351  1
  H+  H331  1  0.15165543  0.32588588  0.89552600  1
  H+  H332  1  0.44761814  0.59843401  0.60471764  1
  H+  H333  1  0.58228100  0.15885074  0.77566151  1
  H+  H334  1  0.87599876  0.60102833  0.98547376  1
  H+  H335  1  0.29429097  0.39703590  0.49456660  1
  H+  H336  1  0.16012393  0.08861548  0.93516183  1
  H+  H337  1  0.41794726  0.32655935  0.89940850  1
  H+  H338  1  0.93677753  0.82219498  1.03958619  1
  H+  H339  1  0.21982690  0.95175021  0.92684032  1
  H+  H340  1  0.08694528  0.42370274  0.77291615  1
  H+  H341  1  0.89412418  0.82261392  0.57977282  1
  H+  H342  1  0.15266185  0.56939123  0.94965652  1
  H+  H343  1  0.58915806  0.42033105  0.44243949  1
  H+  H344  1  0.18166301  0.98070173  0.69560792  1
  H+  H345  1  0.32372583  0.42355908  0.72468265  1
  H+  H346  1  0.03946990  0.64748790  0.07430716  1
  H+  H347  1  0.67819527  0.84494141  0.55410895  1
  H+  H348  1  0.66509598  0.83360318  0.23118175  1
  H+  H349  1  0.92165022  0.09694452  0.55779708  1
  H+  H350  1  0.62943338  0.62419476  0.68805058  1
  H+  H351  1  0.42447476  0.80248635  0.95230861  1
  H+  H352  1  0.08851626  0.65714801  0.39748427  1
  H+  H353  1  0.59057150  0.66595359  0.06530535  1
  H+  H354  1  0.16840555  0.56580031  0.24249483  1
  H+  H355  1  0.66193381  0.07710791  0.56378317  1
  H+  H356  1  0.45289669  0.31508174  0.22510931  1
  H+  H357  1  0.91058252  0.08451955  0.26322480  1
  H+  H358  1  0.60743698  0.88621639  0.33477665  1
  H+  H359  1  0.90666932  0.33685912  0.89644162  1
  H+  H360  1  0.71983230  0.28653857  0.24194876  1
  H+  H361  1  0.67474768  0.59103463  0.26502348  1
  H+  H362  1  0.48155204  0.61414042  0.84288777  1
  H+  H363  1  0.16492106  0.08301163  0.24090807  1
  H+  H364  1  0.42149059  0.11392079  0.92284658  1
  H+  H365  1  0.72529305  0.34884656  0.65955867  1
  H+  H366  1  0.35268752  0.43476510  0.07077158  1
  H+  H367  1  0.10801301  0.38594543  0.66926160  1
  H+  H368  1  0.08355432  0.16561246  0.10488432  1
  H+  H369  1  0.70195782  0.31556619  0.23619384  1
  H+  H370  1  0.86724464  0.65616164  0.13478652  1
  H+  H371  1  0.19004827  0.38331367  0.56190614  1
  H+  H372  1  0.11342479  0.13541849  0.16529013  1
  H+  H373  1  0.40762703  0.07777102  0.23478948  1
  H+  H374  1  0.82709863  0.92893077  0.73702308  1
  H+  H375  1  0.83973053  0.67064553  0.39768114  1
  H+  H376  1  0.59441948  0.67036526  0.43184295  1
  H+  H377  1  0.89418376  0.78755783  0.17611629  1
  H+  H378  1  0.92224640  0.34277916  0.59209592  1
  H+  H379  1  0.83294980  0.92498761  0.39397731  1
  H+  H380  1  0.15887018  0.30847197  0.48327851  1
  H+  H381  1  0.04549603  0.10292187  0.73835378  1
  H+  H382  1  0.41845614  0.83159176  0.59482813  1
  H+  H383  1  0.89843607  0.61943772  0.32631090  1
  O2-  O384  1  0.08433130  0.16702453  0.15041222  1
  O2-  O385  1  0.09148033  0.18258597  0.47059836  1
  O2-  O386  1  0.07252247  0.15322426  0.81508668  1
  O2-  O387  1  0.07151117  0.40746162  0.14794378  1
  O2-  O388  1  0.08082962  0.41862669  0.47000374  1
  O2-  O389  1  0.09129885  0.42729098  0.81792978  1
  O2-  O390  1  0.07282360  0.65942913  0.19163194  1
  O2-  O391  1  0.09005448  0.66012983  0.47515522  1
  O2-  O392  1  0.08407158  0.64990355  0.81604338  1
  O2-  O393  1  0.08795985  0.92313422  0.15193906  1
  O2-  O394  1  0.10404014  0.97457131  0.41181247  1
  O2-  O395  1  0.07937839  0.91166432  0.81099987  1
  O2-  O396  1  0.32703762  0.15986873  0.14636144  1
  O2-  O397  1  0.33250072  0.16408231  0.48407442  1
  O2-  O398  1  0.32358188  0.16350941  0.82528128  1
  O2-  O399  1  0.31447334  0.45732899  0.13306226  1
  O2-  O400  1  0.35697511  0.41711362  0.48672865  1
  O2-  O401  1  0.32310699  0.41752420  0.81290773  1
  O2-  O402  1  0.33683955  0.65833760  0.16117067  1
  O2-  O403  1  0.32692891  0.62777030  0.47138593  1
  O2-  O404  1  0.34578283  0.68301562  0.82523955  1
  O2-  O405  1  0.33691113  0.91017287  0.15424712  1
  O2-  O406  1  0.33673934  0.91797340  0.47952959  1
  O2-  O407  1  0.33764152  0.92085431  0.79869158  1
  O2-  O408  1  0.58450562  0.17104511  0.17197344  1
  O2-  O409  1  0.58141888  0.16231186  0.48112730  1
  O2-  O410  1  0.57411911  0.16335529  0.82030013  1
  O2-  O411  1  0.60081622  0.42139706  0.13872828  1
  O2-  O412  1  0.59032316  0.41394036  0.48727129  1
  O2-  O413  1  0.56878503  0.39248320  0.80870374  1
  O2-  O414  1  0.58618081  0.66624470  0.14722357  1
  O2-  O415  1  0.59903663  0.67167748  0.47709256  1
  O2-  O416  1  0.57976112  0.66192707  0.82667797  1
  O2-  O417  1  0.58295129  0.91031948  0.14769455  1
  O2-  O418  1  0.58787740  0.91776752  0.47413748  1
  O2-  O419  1  0.56925252  0.91404068  0.80607886  1
  O2-  O420  1  0.82563552  0.15801351  0.12897692  1
  O2-  O421  1  0.83168795  0.17153815  0.47343216  1
  O2-  O422  1  0.77501845  0.11309120  0.81458761  1
  O2-  O423  1  0.82103908  0.40509652  0.11841358  1
  O2-  O424  1  0.83724763  0.41740224  0.47676021  1
  O2-  O425  1  0.82951082  0.41201385  0.80721518  1
  O2-  O426  1  0.83977319  0.69256658  0.13767113  1
  O2-  O427  1  0.83540323  0.66103170  0.47891091  1
  O2-  O428  1  0.84299731  0.66826426  0.81090997  1
  O2-  O429  1  0.83103043  0.91733420  0.14764829  1
  O2-  O430  1  0.83950146  0.93318597  0.47345723  1
  O2-  O431  1  0.82039095  0.93105784  0.81391988  1
  O2-  O432  1  0.16688734  0.08524725  0.19551691  1
  O2-  O433  1  0.16219056  0.09011964  0.50197467  1
  O2-  O434  1  0.15984002  0.08104566  0.85662479  1
  O2-  O435  1  0.16404072  0.33207972  0.18904823  1
  O2-  O436  1  0.18962686  0.37062744  0.49076643  1
  O2-  O437  1  0.15731026  0.32520275  0.85079015  1
  O2-  O438  1  0.16816597  0.56629965  0.19197761  1
  O2-  O439  1  0.16193038  0.57247047  0.52435893  1
  O2-  O440  1  0.17892648  0.58499073  0.87086832  1
  O2-  O441  1  0.16680917  0.82666857  0.15768798  1
  O2-  O442  1  0.16814920  0.82080777  0.51262238  1
  O2-  O443  1  0.15855334  0.82139104  0.83704841  1
  O2-  O444  1  0.41212690  0.07848045  0.18962195  1
  O2-  O445  1  0.41702653  0.08255470  0.52411018  1
  O2-  O446  1  0.40335546  0.08234831  0.84140717  1
  O2-  O447  1  0.43591167  0.32752425  0.18429324  1
  O2-  O448  1  0.41888848  0.31691584  0.52375113  1
  O2-  O449  1  0.40664193  0.32064668  0.85477176  1
  O2-  O450  1  0.42315097  0.58462406  0.19943392  1
  O2-  O451  1  0.43310814  0.58265833  0.52243664  1
  O2-  O452  1  0.41864802  0.58326798  0.85739328  1
  O2-  O453  1  0.41728533  0.82603732  0.19576267  1
  O2-  O454  1  0.42224478  0.83849579  0.52441312  1
  O2-  O455  1  0.42019117  0.85572419  0.84558088  1
  O2-  O456  1  0.65808352  0.07300023  0.18271369  1
  O2-  O457  1  0.66829902  0.08166688  0.51820319  1
  O2-  O458  1  0.63183660  0.07528170  0.89080225  1
  O2-  O459  1  0.65770510  0.31306043  0.12458329  1
  O2-  O460  1  0.67229418  0.32721021  0.51997835  1
  O2-  O461  1  0.67208322  0.33175003  0.85950659  1
  O2-  O462  1  0.67820043  0.59206068  0.18414296  1
  O2-  O463  1  0.67358222  0.58160477  0.52107991  1
  O2-  O464  1  0.69839982  0.54398158  0.86302255  1
  O2-  O465  1  0.66714947  0.83241664  0.18570910  1
  O2-  O466  1  0.67820007  0.84232584  0.50775041  1
  O2-  O467  1  0.66071471  0.84278982  0.85284000  1
  O2-  O468  1  0.91541926  0.08441613  0.18268869  1
  O2-  O469  1  0.92509063  0.09910037  0.51242882  1
  O2-  O470  1  0.91655921  0.09358935  0.86563331  1
  O2-  O471  1  0.90180795  0.32060029  0.17337752  1
  O2-  O472  1  0.92237080  0.33740162  0.51484562  1
  O2-  O473  1  0.91492286  0.34600445  0.85118817  1
  O2-  O474  1  0.92206688  0.59704575  0.12852330  1
  O2-  O475  1  0.92095026  0.57971554  0.52084996  1
  O2-  O476  1  0.92176391  0.58328736  0.85520109  1
  O2-  O477  1  0.92622449  0.84838394  0.19066197  1
  O2-  O478  1  0.85904207  0.81016253  0.54231296  1
  O2-  O479  1  0.90541904  0.83314082  0.84027753  1
  O2-  O480  1  0.16636114  0.09035442  0.31972408  1
  O2-  O481  1  0.13640985  0.06544326  0.62101058  1
  O2-  O482  1  0.16263874  0.09463776  0.98048272  1
  O2-  O483  1  0.15392740  0.32607360  0.31236099  1
  O2-  O484  1  0.19446601  0.40098913  0.60740581  1
  O2-  O485  1  0.12873823  0.32663108  0.97800680  1
  O2-  O486  1  0.16925459  0.56664168  0.30495066  1
  O2-  O487  1  0.15855531  0.56804883  0.64352232  1
  O2-  O488  1  0.13722248  0.55696378  0.99333265  1
  O2-  O489  1  0.15416712  0.82069589  0.33306454  1
  O2-  O490  1  0.18275603  0.82741475  0.64073294  1
  O2-  O491  1  0.18058694  0.83421699  1.03740160  1
  O2-  O492  1  0.40682728  0.07526413  0.31473254  1
  O2-  O493  1  0.41491837  0.08156782  0.64853586  1
  O2-  O494  1  0.44345457  0.14525628  0.96135633  1
  O2-  O495  1  0.48037382  0.28859610  0.28896043  1
  O2-  O496  1  0.37212285  0.29076120  0.72477810  1
  O2-  O497  1  0.43578588  0.33101734  0.97859348  1
  O2-  O498  1  0.41065549  0.58312774  0.32119045  1
  O2-  O499  1  0.45067700  0.59950696  0.64970084  1
  O2-  O500  1  0.43520809  0.58778688  0.97729177  1
  O2-  O501  1  0.40483904  0.82966785  0.31687520  1
  O2-  O502  1  0.42065291  0.83521988  0.64141834  1
  O2-  O503  1  0.42255752  0.81248502  0.99461639  1
  O2-  O504  1  0.65940055  0.08144311  0.30756401  1
  O2-  O505  1  0.65259716  0.07317957  0.64054559  1
  O2-  O506  1  0.63629216  0.06124752  1.00964147  1
  O2-  O507  1  0.65371363  0.33166053  0.33900678  1
  O2-  O508  1  0.66594673  0.31672870  0.64251076  1
  O2-  O509  1  0.70230207  0.35036594  0.98276135  1
  O2-  O510  1  0.67396095  0.59518671  0.31021753  1
  O2-  O511  1  0.67651851  0.57216138  0.64160909  1
  O2-  O512  1  0.65793056  0.56931842  0.97427542  1
  O2-  O513  1  0.66251771  0.83501479  0.30959702  1
  O2-  O514  1  0.68051555  0.84622071  0.62558038  1
  O2-  O515  1  0.66309226  0.83183227  0.97596827  1
  O2-  O516  1  0.91136380  0.08525567  0.30848725  1
  O2-  O517  1  0.90840463  0.09115868  0.63473721  1
  O2-  O518  1  0.89902797  0.09291416  0.99753164  1
  O2-  O519  1  0.90608923  0.33254063  0.29999995  1
  O2-  O520  1  0.91608987  0.34080233  0.63749446  1
  O2-  O521  1  0.88583416  0.32255741  0.96983855  1
  O2-  O522  1  0.92855035  0.58870525  0.31275767  1
  O2-  O523  1  0.91779175  0.56986668  0.64183885  1
  O2-  O524  1  0.92300971  0.58314621  0.97166552  1
  O2-  O525  1  0.91624384  0.84657338  0.31822627  1
  O2-  O526  1  0.94010462  0.83204224  0.65621130  1
  O2-  O527  1  0.87461268  0.79109998  1.03789988  1
  O2-  O528  1  0.07089538  0.16646625  0.02744754  1
  O2-  O529  1  0.07635182  0.16444004  0.34805381  1
  O2-  O530  1  0.02100532  0.06905675  0.70057602  1
  O2-  O531  1  0.04734533  0.39693242  0.02464392  1
  O2-  O532  1  0.06741391  0.41580555  0.34479547  1
  O2-  O533  1  0.07545699  0.40943469  0.69061311  1
  O2-  O534  1  0.06562055  0.66064164  0.03376025  1
  O2-  O535  1  0.08790786  0.65963504  0.35185804  1
  O2-  O536  1  0.06673336  0.66052205  0.69220850  1
  O2-  O537  1  0.11139369  0.93135926  0.02457142  1
  O2-  O538  1  0.09621324  0.82498232  0.37818671  1
  O2-  O539  1  0.12548618  0.92433896  0.69209167  1
  O2-  O540  1  0.32766196  0.17558643  0.02294719  1
  O2-  O541  1  0.32680513  0.17991967  0.35387526  1
  O2-  O542  1  0.26996877  0.08123944  0.69130153  1
  O2-  O543  1  0.36713761  0.42350394  0.02863917  1
  O2-  O544  1  0.28627753  0.42954041  0.38396233  1
  O2-  O545  1  0.33711903  0.42290050  0.68123856  1
  O2-  O546  1  0.35019436  0.65377522  0.04392325  1
  O2-  O547  1  0.32134899  0.65465316  0.34775257  1
  O2-  O548  1  0.30913017  0.69841325  0.70491042  1
  O2-  O549  1  0.35055372  0.90341802  0.03404975  1
  O2-  O550  1  0.32888584  0.91602759  0.35514980  1
  O2-  O551  1  0.34092527  0.91421553  0.67676879  1
  O2-  O552  1  0.48219736  0.05603163  0.03909713  1
  O2-  O553  1  0.57616626  0.15829189  0.35696416  1
  O2-  O554  1  0.58092332  0.15703688  0.69566685  1
  O2-  O555  1  0.59803304  0.41145118  0.01864558  1
  O2-  O556  1  0.59523722  0.43532922  0.36316294  1
  O2-  O557  1  0.59234770  0.41293841  0.67819942  1
  O2-  O558  1  0.59544564  0.66617608  0.02017093  1
  O2-  O559  1  0.58226913  0.66977624  0.35267463  1
  O2-  O560  1  0.60514560  0.65638619  0.70819084  1
  O2-  O561  1  0.57042077  0.90327831  0.03413059  1
  O2-  O562  1  0.57613991  0.91521004  0.35042765  1
  O2-  O563  1  0.58160965  0.90458351  0.67794631  1
  O2-  O564  1  0.81098255  0.15652191  0.06296969  1
  O2-  O565  1  0.82495465  0.16653758  0.34875293  1
  O2-  O566  1  0.81535270  0.16929433  0.66294112  1
  O2-  O567  1  0.79120198  0.40036517  -0.00212369  1
  O2-  O568  1  0.82805183  0.41625774  0.35197805  1
  O2-  O569  1  0.83043364  0.41216816  0.68455792  1
  O2-  O570  1  0.81981166  0.62730208  0.00127555  1
  O2-  O571  1  0.84298578  0.67535854  0.35255612  1
  O2-  O572  1  0.84525190  0.65555438  0.68921489  1
  O2-  O573  1  0.82448131  0.92047541  0.02670569  1
  O2-  O574  1  0.82875573  0.92126244  0.34879010  1
  O2-  O575  1  0.84785154  0.92990085  0.69425612  1
