# generated using pymatgen
data_H2O
_symmetry_space_group_name_H-M   'P 1'
_cell_length_a   18.00407681
_cell_length_b   17.99841954
_cell_length_c   22.00713040
_cell_angle_alpha   89.99062212
_cell_angle_beta   90.02077799
_cell_angle_gamma   119.98696163
_symmetry_Int_Tables_number   1
_chemical_formula_structural   H2O
_chemical_formula_sum   'H384 O192'
_cell_volume   6176.69691789
_cell_formula_units_Z   192
loop_
 _symmetry_equiv_pos_site_id
 _symmetry_equiv_pos_as_xyz
  1  'x, y, z'
loop_
 _atom_type_symbol
 _atom_type_oxidation_number
  H+  1.0
  O2-  -2.0
loop_
 _atom_site_type_symbol
 _atom_site_label
 _atom_site_symmetry_multiplicity
 _atom_site_fract_x
 _atom_site_fract_y
 _atom_site_fract_z
 _atom_site_occupancy
  H+  H0  1  0.11239421  0.22516922  0.34027498  1
  H+  H1  1  0.64021234  0.78713660  0.66494668  1
  H+  H2  1  0.77495246  0.63592377  0.66677883  1
  H+  H3  1  0.64497686  0.04429387  0.95760140  1
  H+  H4  1  0.22955424  0.34573555  0.83713416  1
  H+  H5  1  0.49666131  0.63184495  0.32189591  1
  H+  H6  1  0.36478668  0.90314150  0.00721613  1
  H+  H7  1  0.64352086  0.60225653  0.49621425  1
  H+  H8  1  0.52676121  0.62465046  0.49411654  1
  H+  H9  1  0.61468369  0.15865142  0.81983300  1
  H+  H10  1  0.83798253  0.46445565  0.63700515  1
  H+  H11  1  0.38591555  0.37192070  0.17315597  1
  H+  H12  1  0.52057966  0.39888533  0.02058747  1
  H+  H13  1  0.11318998  0.47375401  0.15676643  1
  H+  H14  1  0.29833337  0.16817192  0.32860986  1
  H+  H15  1  0.15725560  0.77772141  0.65946988  1
  H+  H16  1  0.62844858  0.39486587  0.34333579  1
  H+  H17  1  1.00127469  0.14068057  0.66817371  1
  H+  H18  1  0.72815715  0.36107654  0.34811882  1
  H+  H19  1  0.51556605  0.13172083  0.66680854  1
  H+  H20  1  1.02487750  0.13903011  0.81604555  1
  H+  H21  1  0.33953617  0.70609929  0.01515657  1
  H+  H22  1  0.35859053  0.63704803  0.68215729  1
  H+  H23  1  0.81986426  0.48996199  0.62286776  1
  H+  H24  1  0.50579742  0.38431234  0.32059277  1
  H+  H25  1  0.40556345  0.66169543  0.84795630  1
  H+  H26  1  0.61307320  0.13984671  0.16466106  1
  H+  H27  1  0.86559966  0.96930596  0.01989718  1
  H+  H28  1  0.30399205  0.68449537  0.84214616  1
  H+  H29  1  0.78266281  0.63061061  0.49095834  1
  H+  H30  1  0.89118508  0.78476972  0.84117962  1
  H+  H31  1  0.43659520  0.34019880  0.56614753  1
  H+  H32  1  0.79033919  0.91011555  0.84307166  1
  H+  H33  1  0.63816585  0.86193030  0.18264977  1
  H+  H34  1  0.52611238  0.14527336  0.16781561  1
  H+  H35  1  0.72768887  0.85457038  0.33302306  1
  H+  H36  1  0.88360321  0.02962011  0.66123384  1
  H+  H37  1  0.89033884  0.27573118  0.17591437  1
  H+  H38  1  0.13949499  0.11545071  0.18526324  1
  H+  H39  1  0.83684254  0.92897258  0.73895794  1
  H+  H40  1  0.72528554  0.85248477  0.01849814  1
  H+  H41  1  0.40696641  0.41062500  0.33168880  1
  H+  H42  1  0.88664954  0.74586418  0.33012742  1
  H+  H43  1  0.86404364  0.87961536  0.01388267  1
  H+  H44  1  0.85423266  0.51363015  0.16919023  1
  H+  H45  1  0.36289343  0.34753475  0.81266519  1
  H+  H46  1  0.37503264  0.61440792  0.17923798  1
  H+  H47  1  0.08260354  0.70105495  0.19416011  1
  H+  H48  1  0.88122977  0.77196164  -0.00577122  1
  H+  H49  1  0.60532597  0.24267097  0.82343585  1
  H+  H50  1  0.28347271  0.90016058  0.81799192  1
  H+  H51  1  0.19866531  0.07488963  0.37226470  1
  H+  H52  1  0.87338274  0.77781668  0.66210134  1
  H+  H53  1  0.12338205  0.60117893  0.18793857  1
  H+  H54  1  0.02577437  0.37156251  0.00192984  1
  H+  H55  1  0.14730118  0.11871947  0.34657643  1
  H+  H56  1  0.63735571  0.52652791  0.99365173  1
  H+  H57  1  0.68914767  0.85668560  -0.07359446  1
  H+  H58  1  0.61243968  0.98658108  0.65743781  1
  H+  H59  1  0.47516678  0.86647501  0.65914845  1
  H+  H60  1  0.10777717  0.46535924  0.99992490  1
  H+  H61  1  0.56802392  0.66232340  0.10547798  1
  H+  H62  1  0.62806065  0.67914300  0.83773737  1
  H+  H63  1  0.35502188  0.97990650  0.33586117  1
  H+  H64  1  0.61702762  0.89960639  0.66298208  1
  H+  H65  1  0.44150688  0.83560191  0.36026032  1
  H+  H66  1  0.09968848  -0.02260704  0.49952532  1
  H+  H67  1  1.04519819  0.66367710  0.66607823  1
  H+  H68  1  0.13222656  0.74117007  0.35245057  1
  H+  H69  1  0.17605774  0.82555132  0.16088632  1
  H+  H70  1  0.13800172  0.26724495  0.99597237  1
  H+  H71  1  0.09694039  0.24195491  0.49632740  1
  H+  H72  1  0.59003473  0.93672354  0.01644206  1
  H+  H73  1  0.23164339  0.80649166  0.88172669  1
  H+  H74  1  0.91023484  0.34179157  0.26288627  1
  H+  H75  1  0.53725184  0.14711528  0.42799393  1
  H+  H76  1  -0.01552362  0.40037057  0.49240462  1
  H+  H77  1  0.22267904  0.11921392  -0.00543307  1
  H+  H78  1  1.03360858  0.64499648  0.50297383  1
  H+  H79  1  0.91468960  0.51434960  0.34496978  1
  H+  H80  1  0.87097175  0.24117232  0.00510049  1
  H+  H81  1  0.64427785  0.61101454  0.63099707  1
  H+  H82  1  0.62122840  0.28311208  -0.00237802  1
  H+  H83  1  -0.01882999  0.36135682  0.17537989  1
  H+  H84  1  0.89722349  0.33190925  0.92653350  1
  H+  H85  1  0.86723309  0.26581874  0.83351030  1
  H+  H86  1  0.87380634  0.28656345  0.32526679  1
  H+  H87  1  0.16502887  0.08800130  0.93353431  1
  H+  H88  1  0.86913203  0.89654369  0.49840766  1
  H+  H89  1  0.69039193  -0.00166570  0.92636811  1
  H+  H90  1  0.89501437  0.03431353  0.83333804  1
  H+  H91  1  0.86309002  0.14369004  0.80806134  1
  H+  H92  1  0.20849014  0.59420633  0.98839490  1
  H+  H93  1  0.35125761  0.72062897  0.15194919  1
  H+  H94  1  0.38659605  0.04354297  0.98861693  1
  H+  H95  1  1.01824954  0.62729788  1.00250540  1
  H+  H96  1  0.18950165  0.39519344  0.50943231  1
  H+  H97  1  0.64019938  0.52062256  0.18009663  1
  H+  H98  1  0.11082248  0.71093294  1.00590088  1
  H+  H99  1  -0.03642779  0.12795152  0.50314786  1
  H+  H100  1  0.25776004  0.61390072  0.50156363  1
  H+  H101  1  0.35745961  0.48237935  0.16791783  1
  H+  H102  1  0.47776873  0.12675287  0.83569151  1
  H+  H103  1  0.71957524  0.14055101  0.49415364  1
  H+  H104  1  0.85109408  0.63805644  0.15167131  1
  H+  H105  1  0.10857801  0.97713785  0.17134213  1
  H+  H106  1  0.63260589  1.00523210  0.48798501  1
  H+  H107  1  0.22096238  0.10566897  0.64684576  1
  H+  H108  1  0.12370886  0.64328041  0.67283846  1
  H+  H109  1  0.85999979  0.89484815  0.67820652  1
  H+  H110  1  0.38266328  0.52170728  -0.00586263  1
  H+  H111  1  0.86906507  0.22637557  0.65284892  1
  H+  H112  1  0.21740544  0.35986618  0.65573554  1
  H+  H113  1  0.85627412  0.72919768  0.15608475  1
  H+  H114  1  0.72216861  0.11557511  0.17183170  1
  H+  H115  1  0.62293829  0.37584012  0.83992860  1
  H+  H116  1  0.35241618  0.20644817  0.80217970  1
  H+  H117  1  0.75385014  0.38853558  0.17077324  1
  H+  H118  1  0.61073691  0.63863351  0.33119136  1
  H+  H119  1  0.87284730  0.65793402  0.66838663  1
  H+  H120  1  0.67144151  0.58819022  0.26154946  1
  H+  H121  1  0.87761010  0.11686886  0.65611933  1
  H+  H122  1  0.49180015  0.89285403  0.82319195  1
  H+  H123  1  0.22453281  0.86351287  0.00109324  1
  H+  H124  1  0.89090340  0.60123996  0.50477736  1
  H+  H125  1  0.07924824  0.63917436  0.82614684  1
  H+  H126  1  0.13214684  0.36336311  0.17218455  1
  H+  H127  1  0.00319212  0.39635068  0.33520199  1
  H+  H128  1  0.38252464  0.60447271  0.50875511  1
  H+  H129  1  0.40627418  0.53760950  0.32262820  1
  H+  H130  1  0.39975618  0.88967183  0.82407808  1
  H+  H131  1  0.83404950  0.38035010  0.01226566  1
  H+  H132  1  0.47110821  0.13413635  -0.00533659  1
  H+  H133  1  0.61518698  0.73122092  0.33661917  1
  H+  H134  1  0.84614060  0.38289461  0.83176990  1
  H+  H135  1  0.36060931  0.22064688  0.66190725  1
  H+  H136  1  0.65823251  0.09825553  0.59058125  1
  H+  H137  1  0.14147429  0.50456156  0.31880350  1
  H+  H138  1  0.21586614  0.68522964  0.37296162  1
  H+  H139  1  0.39372264  0.87430793  0.15613808  1
  H+  H140  1  0.34851179  0.11884873  0.81347508  1
  H+  H141  1  0.12577762  0.85922650  0.33064510  1
  H+  H142  1  0.09835988  0.47280432  0.68212666  1
  H+  H143  1  0.43354775  0.13838810  0.47663427  1
  H+  H144  1  0.61330058  0.88197499  0.34757487  1
  H+  H145  1  0.78691721  0.37517267  0.50897198  1
  H+  H146  1  0.71790281  0.10985661  0.32615763  1
  H+  H147  1  0.16679828  0.57931349  0.82892342  1
  H+  H148  1  0.38192649  0.76833817  0.49038713  1
  H+  H149  1  0.79046091  0.14807232  0.99735266  1
  H+  H150  1  0.36898422  0.43764067  0.82204829  1
  H+  H151  1  0.97339794  0.86256195  0.18078533  1
  H+  H152  1  -0.01906719  0.87117803  0.84684351  1
  H+  H153  1  0.85544234  -0.00364906  0.18602066  1
  H+  H154  1  0.31696019  0.40467406  0.32998285  1
  H+  H155  1  -0.00247164  0.61344850  0.18491574  1
  H+  H156  1  0.60437454  0.64916015  0.70363656  1
  H+  H157  1  0.65858563  0.83052276  0.85971410  1
  H+  H158  1  0.62779128  0.35427900  0.65837584  1
  H+  H159  1  0.85970638  0.38831200  0.34734228  1
  H+  H160  1  0.87299565  0.52433223  -0.00090447  1
  H+  H161  1  0.54221935  0.68367472  0.84332732  1
  H+  H162  1  0.54734095  0.38775454  0.49549285  1
  H+  H163  1  0.17992579  0.56189799  0.25483168  1
  H+  H164  1  0.87076586  0.94505008  0.34238275  1
  H+  H165  1  0.41800227  0.37440128  0.50419193  1
  H+  H166  1  -0.02604685  0.86378384  0.51138960  1
  H+  H167  1  0.11703946  0.22385745  0.81892105  1
  H+  H168  1  0.40925925  0.57832681  0.83358363  1
  H+  H169  1  0.26955067  0.39170315  0.16755323  1
  H+  H170  1  0.78226895  0.65876403  0.82736776  1
  H+  H171  1  0.25762852  0.87509426  0.66029316  1
  H+  H172  1  0.13717182  0.61766904  0.51981732  1
  H+  H173  1  0.88065955  0.61273158  0.84530186  1
  H+  H174  1  0.60347681  0.15416092  0.01608095  1
  H+  H175  1  0.62535439  0.12110703  0.47956956  1
  H+  H176  1  0.52098748  0.63021331  1.00834581  1
  H+  H177  1  0.06545551  0.64117442  0.35836698  1
  H+  H178  1  0.16355677  0.57951457  0.60964891  1
  H+  H179  1  0.15158018  0.77125646  0.83711263  1
  H+  H180  1  0.39340558  0.12890862  0.17684750  1
  H+  H181  1  0.39431636  0.12280785  0.32259599  1
  H+  H182  1  0.38495355  0.28161152  0.17388394  1
  H+  H183  1  0.83539319  0.17630024  0.74794306  1
  H+  H184  1  0.75986023  0.38788070  0.83003182  1
  H+  H185  1  0.73075986  0.87466348  0.66673960  1
  H+  H186  1  0.38965382  0.01008125  0.16010798  1
  H+  H187  1  0.90235799  0.57892166  0.93679421  1
  H+  H188  1  0.77214046  0.14422308  0.65880045  1
  H+  H189  1  0.80675796  0.03324432  0.22383840  1
  H+  H190  1  0.31848112  0.73263979  0.35140571  1
  H+  H191  1  0.49401004  0.36049561  0.81267038  1
  H+  H192  1  0.55370297  0.46140778  0.82910331  1
  H+  H193  1  0.30302987  0.92297902  0.15801936  1
  H+  H194  1  0.39071074  0.11404548  0.64744632  1
  H+  H195  1  0.09403474  0.37335409  0.50970454  1
  H+  H196  1  0.85456038  0.13310567  0.15895771  1
  H+  H197  1  0.61314242  0.47579578  0.66635054  1
  H+  H198  1  0.22222977  0.10776435  0.83337683  1
  H+  H199  1  0.03580532  0.12813986  0.34237810  1
  H+  H200  1  0.46842221  0.61524165  0.66855606  1
  H+  H201  1  0.38492141  0.36101889  0.65369354  1
  H+  H202  1  0.21758620  0.61130639  0.17021146  1
  H+  H203  1  0.62066169  0.09161465  0.32423934  1
  H+  H204  1  0.88632069  0.11889828  -0.00947062  1
  H+  H205  1  0.63282061  0.12029364  0.65459425  1
  H+  H206  1  1.02309543  0.13143697  1.01010854  1
  H+  H207  1  0.88569566  0.77471454  0.50842351  1
  H+  H208  1  0.27569091  0.14286391  0.16760486  1
  H+  H209  1  0.63109224  0.27085702  0.19011703  1
  H+  H210  1  0.09995541  0.23816319  0.66737163  1
  H+  H211  1  0.72429397  0.61426992  0.17374961  1
  H+  H212  1  0.86025382  0.16816207  0.35083967  1
  H+  H213  1  0.94588593  0.40929154  0.97193234  1
  H+  H214  1  0.02536741  0.13550909  0.16330214  1
  H+  H215  1  0.72615159  0.64075062  0.32139192  1
  H+  H216  1  0.39170558  0.52173633  0.51219792  1
  H+  H217  1  0.10121361  0.38751277  0.68399882  1
  H+  H218  1  0.14452449  0.78887051  0.51523532  1
  H+  H219  1  0.26794530  0.38515679  0.01172633  1
  H+  H220  1  0.73322639  0.13469691  0.81377763  1
  H+  H221  1  0.47572006  0.36436503  0.65993359  1
  H+  H222  1  0.11192542  0.10452638  0.50901050  1
  H+  H223  1  0.47327729  0.85843817  0.16019791  1
  H+  H224  1  0.34967266  0.62253212  0.00670208  1
  H+  H225  1  0.35458991  0.23507997  1.01455516  1
  H+  H226  1  0.07216594  0.92468435  0.10803898  1
  H+  H227  1  0.90056228  0.07235781  0.34487108  1
  H+  H228  1  0.41433652  0.58516986  0.60649525  1
  H+  H229  1  0.13000167  0.02168567  0.65559570  1
  H+  H230  1  0.86244412  0.87925186  0.17217730  1
  H+  H231  1  0.22386853  0.61200714  0.66942372  1
  H+  H232  1  0.84921337  0.26051684  0.49231262  1
  H+  H233  1  0.61044394  0.62954848  1.00833012  1
  H+  H234  1  0.44054528  0.35617510  0.26064416  1
  H+  H235  1  0.82540858  0.66930503  0.06089038  1
  H+  H236  1  0.09405354  0.96308382  0.34383841  1
  H+  H237  1  0.85811333  0.63713145  0.00356047  1
  H+  H238  1  0.79911563  0.59067014  0.34527080  1
  H+  H239  1  0.38615676  0.77722221  0.66689329  1
  H+  H240  1  0.39015586  0.25400574  0.32738472  1
  H+  H241  1  0.60968964  0.38311382  0.17268703  1
  H+  H242  1  0.98495564  0.71854665  0.61120564  1
  H+  H243  1  0.83792402  0.67852897  0.76708907  1
  H+  H244  1  0.73700290  0.88368878  0.50961284  1
  H+  H245  1  0.09869801  0.36806135  0.85080076  1
  H+  H246  1  0.38028248  0.37486761  0.00934793  1
  H+  H247  1  0.10087429  -0.01521218  1.01601357  1
  H+  H248  1  0.61403957  0.97596691  0.16823837  1
  H+  H249  1  0.75413472  0.33244360  0.67913340  1
  H+  H250  1  0.18899502  0.36984638  0.32769945  1
  H+  H251  1  0.64295545  0.91191964  0.49910352  1
  H+  H252  1  0.72677670  0.61572712  0.99105282  1
  H+  H253  1  0.28850667  0.91034605  0.49686450  1
  H+  H254  1  0.13833893  0.87507830  0.51545312  1
  H+  H255  1  0.63202862  0.48781952  0.33917531  1
  H+  H256  1  0.10962440  0.85710695  0.17490931  1
  H+  H257  1  0.13451054  0.10992123  0.83419501  1
  H+  H258  1  0.26550054  0.89133060  0.33870835  1
  H+  H259  1  0.11971439  0.59676674  0.99052268  1
  H+  H260  1  0.11541048  0.52046972  0.51420400  1
  H+  H261  1  0.46852009  0.61966976  0.17449685  1
  H+  H262  1  0.13472139  0.27498788  0.17544440  1
  H+  H263  1  0.16271717  0.83001392  0.94546613  1
  H+  H264  1  0.39058677  0.81948734  0.06985955  1
  H+  H265  1  0.58131015  0.69774425  0.75103532  1
  H+  H266  1  0.07977575  0.37808015  0.34189255  1
  H+  H267  1  0.89735509  0.62032667  0.34445329  1
  H+  H268  1  0.35549474  0.47168110  0.67120818  1
  H+  H269  1  0.14783657  0.33919563  0.60202284  1
  H+  H270  1  0.65733863  0.55588487  0.83375745  1
  H+  H271  1  0.86987330  0.51888104  0.84529265  1
  H+  H272  1  0.36954071  0.88543689  0.66859657  1
  H+  H273  1  0.29700069  0.36920812  0.47845670  1
  H+  H274  1  0.01193458  0.89208803  0.67801707  1
  H+  H275  1  0.39754391  0.23869993  0.48781428  1
  H+  H276  1  0.86778177  -0.01362069  0.49129769  1
  H+  H277  1  0.37250116  0.85981312  0.34054786  1
  H+  H278  1  0.97965500  0.35105487  0.64616485  1
  H+  H279  1  0.63659971  0.76072257  0.00954254  1
  H+  H280  1  0.39006314  0.85873759  0.48228605  1
  H+  H281  1  0.13847205  0.35587791  -0.00947925  1
  H+  H282  1  0.11610937  0.89032049  0.83414210  1
  H+  H283  1  0.61575297  0.00006564  0.80740380  1
  H+  H284  1  1.00920042  0.86969094  0.34416959  1
  H+  H285  1  0.57875203  0.42565596  0.73000606  1
  H+  H286  1  0.87399102  0.90057970  0.83399471  1
  H+  H287  1  0.66641823  0.36696421  0.50485093  1
  H+  H288  1  0.33690499  0.67690439  0.74070844  1
  H+  H289  1  0.60041249  0.92978843  0.43136927  1
  H+  H290  1  0.67975964  0.57566936  0.58152757  1
  H+  H291  1  0.07450932  0.91919859  0.73454228  1
  H+  H292  1  0.90491712  0.83758290  0.60283113  1
  H+  H293  1  0.14882261  0.07503803  0.56420380  1
  H+  H294  1  0.62060372  0.26148564  0.65593952  1
  H+  H295  1  0.58730295  0.42548111  0.07590112  1
  H+  H296  1  0.18220833  0.84488669  0.59921347  1
  H+  H297  1  0.42006540  0.09370141  0.23708563  1
  H+  H298  1  0.41886230  0.28831311  0.86628192  1
  H+  H299  1  0.57977685  0.65338890  0.43265409  1
  H+  H300  1  0.36773799  0.19019726  0.42492389  1
  H+  H301  1  0.80522766  0.41604387  0.10683685  1
  H+  H302  1  0.91084198  0.81912920  0.23849092  1
  H+  H303  1  0.65175253  0.51588885  0.49671628  1
  H+  H304  1  0.07343686  0.17220090  0.72958903  1
  H+  H305  1  0.68595961  0.10605770  0.87605229  1
  H+  H306  1  0.31627758  0.64821011  0.10074200  1
  H+  H307  1  0.94255365  0.62212179  0.59129818  1
  H+  H308  1  0.41690910  0.35325938  0.95097290  1
  H+  H309  1  0.41692255  0.58976560  0.93767188  1
  H+  H310  1  0.17324417  0.31938194  0.89809560  1
  H+  H311  1  0.85525855  0.17156171  0.49546900  1
  H+  H312  1  0.15238116  0.82855537  0.27005367  1
  H+  H313  1  0.30531880  0.64694872  0.43906655  1
  H+  H314  1  0.83567012  0.90946642  0.11069195  1
  H+  H315  1  0.32551990  0.42272613  0.07310653  1
  H+  H316  1  0.47205732  0.10003522  0.32508073  1
  H+  H317  1  0.36187128  0.42507948  0.42677489  1
  H+  H318  1  0.95755375  0.34586967  0.85171474  1
  H+  H319  1  0.87358185  0.82873510  0.33645836  1
  H+  H320  1  0.64945340  0.34315678  0.89972611  1
  H+  H321  1  0.87258179  0.57868532  0.22536132  1
  H+  H322  1  0.57773039  0.17912901  0.07852748  1
  H+  H323  1  0.33939966  0.92725744  0.72425469  1
  H+  H324  1  0.66481854  0.08220461  0.23313139  1
  H+  H325  1  0.67133525  0.59645643  0.90012354  1
  H+  H326  1  0.32965752  0.17272419  0.10557175  1
  H+  H327  1  0.52418779  0.38913095  0.16492378  1
  H+  H328  1  0.35737034  0.14817842  0.00821797  1
  H+  H329  1  0.08373819  0.44835040  0.85524950  1
  H+  H330  1  0.66958391  0.83196749  0.27216324  1
  H+  H331  1  0.11213258  0.13299857  0.00754051  1
  H+  H332  1  0.60274074  0.85653183  0.02301410  1
  H+  H333  1  0.41658515  0.09763352  0.89497135  1
  H+  H334  1  0.59770299  0.72340021  0.16437295  1
  H+  H335  1  0.07381539  0.91050083  0.44327124  1
  H+  H336  1  0.90394850  0.09163746  0.56083416  1
  H+  H337  1  0.14443866  0.32843468  0.26461659  1
  H+  H338  1  0.61118040  0.96886933  0.34156870  1
  H+  H339  1  0.05303992  0.42505261  0.43571978  1
  H+  H340  1  0.45328849  0.83677168  1.01778978  1
  H+  H341  1  0.62413873  0.37326787  0.99762849  1
  H+  H342  1  0.32546373  0.40139460  0.72438446  1
  H+  H343  1  0.67605595  0.85662612  0.56867684  1
  H+  H344  1  0.84318396  0.41237455  0.41499706  1
  H+  H345  1  0.85073750  0.66026333  0.43692739  1
  H+  H346  1  0.09013278  0.68618293  0.76303330  1
  H+  H347  1  0.33389399  0.92755356  0.43276129  1
  H+  H348  1  0.39120264  0.77648140  0.82734745  1
  H+  H349  1  0.39293132  0.02710911  0.64745846  1
  H+  H350  1  0.57500368  0.16803276  0.72794831  1
  H+  H351  1  0.08476486  0.41225673  0.09759505  1
  H+  H352  1  0.60013020  0.41684363  0.43293008  1
  H+  H353  1  0.75022814  0.38816737  0.00890087  1
  H+  H354  1  0.84302471  0.03323846  0.95406282  1
  H+  H355  1  0.91309915  0.05797727  0.27575705  1
  H+  H356  1  0.58457921  0.90744683  0.11340643  1
  H+  H357  1  0.68019599  0.33231508  0.56806776  1
  H+  H358  1  0.91550673  0.33473973  0.59030113  1
  H+  H359  1  0.08330774  0.16145604  0.10431218  1
  H+  H360  1  0.63795389  0.27490782  0.35574507  1
  H+  H361  1  0.92787188  0.10481718  0.88591886  1
  H+  H362  1  0.01256634  0.89540920  0.01750144  1
  H+  H363  1  0.11617294  0.97881250  0.83395907  1
  H+  H364  1  0.32467235  0.15184973  0.71603529  1
  H+  H365  1  0.97149787  0.56972365  0.28710298  1
  H+  H366  1  0.65904087  0.32645508  0.25199682  1
  H+  H367  1  0.83330187  0.90046014  0.40586026  1
  H+  H368  1  0.23081740  0.61157576  0.32789896  1
  H+  H369  1  0.72360241  0.85407000  0.17868094  1
  H+  H370  1  0.81040536  0.36781430  0.73663482  1
  H+  H371  1  0.13545069  0.56801499  0.89842676  1
  H+  H372  1  0.36810884  -0.00568496  0.81806325  1
  H+  H373  1  0.83501374  0.17061411  0.09906666  1
  H+  H374  1  0.17243726  0.08672126  0.24344618  1
  H+  H375  1  0.91401701  0.83771487  0.93763415  1
  H+  H376  1  0.90030549  0.51637484  0.51506861  1
  H+  H377  1  0.82069468  0.19260943  0.40617984  1
  H+  H378  1  0.34805642  0.94851962  0.06128162  1
  H+  H379  1  0.58531695  0.93470225  0.75218162  1
  H+  H380  1  0.07993668  0.18096299  0.43908024  1
  H+  H381  1  0.10410054  0.68452754  0.44996715  1
  H+  H382  1  0.42988235  0.04857845  0.47882019  1
  H+  H383  1  0.42250119  0.59642260  0.25893734  1
  O2-  O384  1  0.08510496  0.16489293  0.15009460  1
  O2-  O385  1  0.06990361  0.18117777  0.48336550  1
  O2-  O386  1  0.08478143  0.16529360  0.79944793  1
  O2-  O387  1  0.08567964  0.41262210  0.14295842  1
  O2-  O388  1  0.04906344  0.42405493  0.48066425  1
  O2-  O389  1  0.05929213  0.38706034  0.86576689  1
  O2-  O390  1  0.05725958  0.63875549  0.20059890  1
  O2-  O391  1  0.09646574  0.68156951  0.49518694  1
  O2-  O392  1  0.08330523  0.69083424  0.80751084  1
  O2-  O393  1  0.07388031  0.91829282  0.15461863  1
  O2-  O394  1  0.07427380  0.91313501  0.48818877  1
  O2-  O395  1  0.08343513  0.91709700  0.82048178  1
  O2-  O396  1  0.33499934  0.17596809  0.15100832  1
  O2-  O397  1  0.37113490  0.18129944  0.46874959  1
  O2-  O398  1  0.31421931  0.14276810  0.79486193  1
  O2-  O399  1  0.32930515  0.42255687  0.15127980  1
  O2-  O400  1  0.35441604  0.41757018  0.47175528  1
  O2-  O401  1  0.33164953  0.38204983  0.80350035  1
  O2-  O402  1  0.31931098  0.65696942  0.14599194  1
  O2-  O403  1  0.31486778  0.63644556  0.48150823  1
  O2-  O404  1  0.35736701  0.70603079  0.81953672  1
  O2-  O405  1  0.36043938  0.95006816  0.14079115  1
  O2-  O406  1  0.34520939  0.93402903  0.47736638  1
  O2-  O407  1  0.34106212  0.93583873  0.79894881  1
  O2-  O408  1  0.58620301  0.17433347  0.15103924  1
  O2-  O409  1  0.59140286  0.17318313  0.39967673  1
  O2-  O410  1  0.57678148  0.18206232  0.80838888  1
  O2-  O411  1  0.58563697  0.41651083  0.15256489  1
  O2-  O412  1  0.60688247  0.41728466  0.47784348  1
  O2-  O413  1  0.56340598  0.41938373  0.80785059  1
  O2-  O414  1  0.55686256  0.66496331  0.14931342  1
  O2-  O415  1  0.58354364  0.64235209  0.47605023  1
  O2-  O416  1  0.60096000  0.71320408  0.82538703  1
  O2-  O417  1  0.58605754  0.91311497  0.15846974  1
  O2-  O418  1  0.61236430  0.94290614  0.47750435  1
  O2-  O419  1  0.58526735  0.93818128  0.79754346  1
  O2-  O420  1  0.82926838  0.16720015  0.14401736  1
  O2-  O421  1  0.82355232  0.19805138  0.47746503  1
  O2-  O422  1  0.83243209  0.17347806  0.79400020  1
  O2-  O423  1  0.81098188  0.42427862  0.15156155  1
  O2-  O424  1  0.85116063  0.40777835  0.49193873  1
  O2-  O425  1  0.82036334  0.41662449  0.81589400  1
  O2-  O426  1  0.82277978  0.67103532  0.13758398  1
  O2-  O427  1  0.84609178  0.66226511  0.48155320  1
  O2-  O428  1  0.84193102  0.68383422  0.81220784  1
  O2-  O429  1  0.83103785  0.90877047  0.15621135  1
  O2-  O430  1  0.83941434  0.92477999  0.47870124  1
  O2-  O431  1  0.84499386  0.93284094  0.81945272  1
  O2-  O432  1  0.17083682  0.08579365  0.19880727  1
  O2-  O433  1  0.14022536  0.07126777  0.51810215  1
  O2-  O434  1  0.16463559  0.08275952  0.85421076  1
  O2-  O435  1  0.16166161  0.33409366  0.19233207  1
  O2-  O436  1  0.13335418  0.35082661  0.52351201  1
  O2-  O437  1  0.16985093  0.31892060  0.85285316  1
  O2-  O438  1  0.15991745  0.57319013  0.18928032  1
  O2-  O439  1  0.15752379  0.57737246  0.53235264  1
  O2-  O440  1  0.11643493  0.56029897  0.85445060  1
  O2-  O441  1  0.13358297  0.81977476  0.19062626  1
  O2-  O442  1  0.17404804  0.84972525  0.52956059  1
  O2-  O443  1  0.19754805  0.82611246  0.85976536  1
  O2-  O444  1  0.42523810  0.09955208  0.19046965  1
  O2-  O445  1  0.47062423  0.11109511  0.47672198  1
  O2-  O446  1  0.41645871  0.09214596  0.84997107  1
  O2-  O447  1  0.41807207  0.34306764  0.18720429  1
  O2-  O448  1  0.44706846  0.34474710  0.52099659  1
  O2-  O449  1  0.41595173  0.30436358  0.82446775  1
  O2-  O450  1  0.40816345  0.58710527  0.19513216  1
  O2-  O451  1  0.41763177  0.58109965  0.52746845  1
  O2-  O452  1  0.43364747  0.62680601  0.86153173  1
  O2-  O453  1  0.41074056  0.83011327  0.15073781  1
  O2-  O454  1  0.41724012  0.82460798  0.47161543  1
  O2-  O455  1  0.43090131  0.86123481  0.84065462  1
  O2-  O456  1  0.66213572  0.08307510  0.18702818  1
  O2-  O457  1  0.65746816  0.10106439  0.50419496  1
  O2-  O458  1  0.67444769  0.10978970  0.83306425  1
  O2-  O459  1  0.65553184  0.33001773  0.20701362  1
  O2-  O460  1  0.69634562  0.33925883  0.52379163  1
  O2-  O461  1  0.65142397  0.34380497  0.85446310  1
  O2-  O462  1  0.66965591  0.58011885  0.19668324  1
  O2-  O463  1  0.68059422  0.57805317  0.51076290  1
  O2-  O464  1  0.67535333  0.60986233  0.85508211  1
  O2-  O465  1  0.66475667  0.82722123  0.19632204  1
  O2-  O466  1  0.67737253  0.86339244  0.52369955  1
  O2-  O467  1  0.69799635  0.88082271  0.88447785  1
  O2-  O468  1  0.86426530  0.05026115  0.20889303  1
  O2-  O469  1  0.90190980  0.09472040  0.51576618  1
  O2-  O470  1  0.92437960  0.09860488  0.84140473  1
  O2-  O471  1  0.92321603  0.33353623  0.19381804  1
  O2-  O472  1  0.89278173  0.35831798  0.51306384  1
  O2-  O473  1  0.89365860  0.32154848  0.85611869  1
  O2-  O474  1  0.88861059  0.57875012  0.18311351  1
  O2-  O475  1  0.92738447  0.57946098  0.52292639  1
  O2-  O476  1  0.89966622  0.57617993  0.86549140  1
  O2-  O477  1  0.91160357  0.82806558  0.19371967  1
  O2-  O478  1  0.91145207  0.83426438  0.52403211  1
  O2-  O479  1  0.91946295  0.84360415  0.85988750  1
  O2-  O480  1  0.17520712  0.08406426  0.33471052  1
  O2-  O481  1  0.15956255  0.07900639  0.63557813  1
  O2-  O482  1  0.16247489  0.08925627  0.97893410  1
  O2-  O483  1  0.13579557  0.32407069  0.31066188  1
  O2-  O484  1  0.15470362  0.33109927  0.64600439  1
  O2-  O485  1  0.17096771  0.32625887  0.97873721  1
  O2-  O486  1  0.19527877  0.55070609  0.29797163  1
  O2-  O487  1  0.16305939  0.58307415  0.65512747  1
  O2-  O488  1  0.14823535  0.56362280  0.97306798  1
  O2-  O489  1  0.15865678  0.83186713  0.31497645  1
  O2-  O490  1  0.18903213  0.84004168  0.64524504  1
  O2-  O491  1  0.16520198  0.82131522  0.98928942  1
  O2-  O492  1  0.41177947  0.08195803  0.30690016  1
  O2-  O493  1  0.42644886  0.08811984  0.63593768  1
  O2-  O494  1  0.41341720  0.10505433  0.97547961  1
  O2-  O495  1  0.44412846  0.35850947  0.30644930  1
  O2-  O496  1  0.41731360  0.33222500  0.64094968  1
  O2-  O497  1  0.41324918  0.34550506  0.99491862  1
  O2-  O498  1  0.43072564  0.59823434  0.30727295  1
  O2-  O499  1  0.40955333  0.58198202  0.65202955  1
  O2-  O500  1  0.41523129  0.58375395  0.98263818  1
  O2-  O501  1  0.39137327  0.81676131  0.33361695  1
  O2-  O502  1  0.41237093  0.83623233  0.65044893  1
  O2-  O503  1  0.39180992  0.81712793  1.02457501  1
  O2-  O504  1  0.66169265  0.07082026  0.30738341  1
  O2-  O505  1  0.66392090  0.09289903  0.63477389  1
  O2-  O506  1  0.70072910  0.04918056  0.95013504  1
  O2-  O507  1  0.66777742  0.33017890  0.33307634  1
  O2-  O508  1  0.65459456  0.32255988  0.64128976  1
  O2-  O509  1  0.65135704  0.34136825  0.97929185  1
  O2-  O510  1  0.67026856  0.59303857  0.30997505  1
  O2-  O511  1  0.67530447  0.57973078  0.62794513  1
  O2-  O512  1  0.66559739  0.58520914  0.97538019  1
  O2-  O513  1  0.66767398  0.83005550  0.31794930  1
  O2-  O514  1  0.67236208  0.84536657  0.64744083  1
  O2-  O515  1  0.66630562  0.82460501  1.00094428  1
  O2-  O516  1  0.93289176  0.05544512  0.31827709  1
  O2-  O517  1  0.91306650  0.08898965  0.64366999  1
  O2-  O518  1  0.89803949  0.07483187  0.97204878  1
  O2-  O519  1  0.90695273  0.34621858  0.30917658  1
  O2-  O520  1  0.93798193  0.30693611  0.61739109  1
  O2-  O521  1  0.90880952  0.34695651  0.97215892  1
  O2-  O522  1  0.95711154  0.57415276  0.32940734  1
  O2-  O523  1  0.95845023  0.66076588  0.62818005  1
  O2-  O524  1  0.90630386  0.58372040  0.98323775  1
  O2-  O525  1  0.90885749  0.80610961  0.31706450  1
  O2-  O526  1  0.90249921  0.83868042  0.64818713  1
  O2-  O527  1  0.91034781  0.83462703  0.98315682  1
  O2-  O528  1  0.08135402  0.16196523  0.02667436  1
  O2-  O529  1  0.09329875  0.16833993  0.35971349  1
  O2-  O530  1  0.06505385  0.17608794  0.68364570  1
  O2-  O531  1  0.08448627  0.40561390  0.01781420  1
  O2-  O532  1  0.06350633  0.42142298  0.35256987  1
  O2-  O533  1  0.06479133  0.41198491  0.69476323  1
  O2-  O534  1  0.07859330  0.64839319  0.01507096  1
  O2-  O535  1  0.12085398  0.68742091  0.37442503  1
  O2-  O536  1  0.10235619  0.68389303  0.68506439  1
  O2-  O537  1  0.06781643  0.93081386  0.03899682  1
  O2-  O538  1  0.06955818  0.90423359  0.35971872  1
  O2-  O539  1  0.07300891  0.92047921  0.68984671  1
  O2-  O540  1  0.32440250  0.17376036  0.02712580  1
  O2-  O541  1  0.35835152  0.19292777  0.34129875  1
  O2-  O542  1  0.33019781  0.15824410  0.67099577  1
  O2-  O543  1  0.32817479  0.42090995  0.02763599  1
  O2-  O544  1  0.37335327  0.43965498  0.34821991  1
  O2-  O545  1  0.32391270  0.40863262  0.67961752  1
  O2-  O546  1  0.31052477  0.64277209  0.02222193  1
  O2-  O547  1  0.26418193  0.67387668  0.36520532  1
  O2-  O548  1  0.32888149  0.66819569  0.69602572  1
  O2-  O549  1  0.34214191  0.94210153  0.01628462  1
  O2-  O550  1  0.32550128  0.92099093  0.35388319  1
  O2-  O551  1  0.33715928  0.91856411  0.67891215  1
  O2-  O552  1  0.57275791  0.18146617  0.03233300  1
  O2-  O553  1  0.55857593  0.11741270  0.34588265  1
  O2-  O554  1  0.57723060  0.16282855  0.68318323  1
  O2-  O555  1  0.58278425  0.42766779  0.03040044  1
  O2-  O556  1  0.59820046  0.42765438  0.35392107  1
  O2-  O557  1  0.57886887  0.41837443  0.68498928  1
  O2-  O558  1  0.58028794  0.65904139  0.02545756  1
  O2-  O559  1  0.57938932  0.66762497  0.34706978  1
  O2-  O560  1  0.57532446  0.68246591  0.70627033  1
  O2-  O561  1  0.56502231  0.88103800  0.03614042  1
  O2-  O562  1  0.58496554  0.91304522  0.36383519  1
  O2-  O563  1  0.58312906  0.92725608  0.67489725  1
  O2-  O564  1  0.84587025  0.18065884  0.01837272  1
  O2-  O565  1  0.82014521  0.18790756  0.35973627  1
  O2-  O566  1  0.83209478  0.16828749  0.67398548  1
  O2-  O567  1  0.80906114  0.41448842  0.02748307  1
  O2-  O568  1  0.83730051  0.42140483  0.37041314  1
  O2-  O569  1  0.79988750  0.32971519  0.70172081  1
  O2-  O570  1  0.82656071  0.66859746  0.01528718  1
  O2-  O571  1  0.85522565  0.63990306  0.35463212  1
  O2-  O572  1  0.83118357  0.67227632  0.68711547  1
  O2-  O573  1  0.83520491  0.90976579  0.03464324  1
  O2-  O574  1  0.83104667  0.88855799  0.36066679  1
  O2-  O575  1  0.83302265  0.92849875  0.69373044  1
