# generated using pymatgen
data_H2O
_symmetry_space_group_name_H-M   'P 1'
_cell_length_a   17.98589822
_cell_length_b   17.97807438
_cell_length_c   22.00198302
_cell_angle_alpha   89.98943684
_cell_angle_beta   90.00813661
_cell_angle_gamma   119.97674112
_symmetry_Int_Tables_number   1
_chemical_formula_structural   H2O
_chemical_formula_sum   'H384 O192'
_cell_volume   6162.67822157
_cell_formula_units_Z   192
loop_
 _symmetry_equiv_pos_site_id
 _symmetry_equiv_pos_as_xyz
  1  'x, y, z'
loop_
 _atom_type_symbol
 _atom_type_oxidation_number
  H+  1.0
  O2-  -2.0
loop_
 _atom_site_type_symbol
 _atom_site_label
 _atom_site_symmetry_multiplicity
 _atom_site_fract_x
 _atom_site_fract_y
 _atom_site_fract_z
 _atom_site_occupancy
  H+  H0  1  0.51586411  0.12907972  0.66514524  1
  H+  H1  1  0.13039359  0.01833849  0.64883390  1
  H+  H2  1  0.88673119  0.38318504  0.50547400  1
  H+  H3  1  0.10838845  0.01449058  0.49744470  1
  H+  H4  1  0.62015341  0.73255259  0.82253176  1
  H+  H5  1  0.85466741  0.13503544  0.48152299  1
  H+  H6  1  1.02347315  0.88046249  0.33083268  1
  H+  H7  1  0.61857334  0.47966202  0.99919882  1
  H+  H8  1  0.06199617  0.39875987  0.16624068  1
  H+  H9  1  0.13197322  0.89802635  0.16987327  1
  H+  H10  1  0.31816562  0.13883843  0.74318971  1
  H+  H11  1  0.14276976  0.78258450  0.61467233  1
  H+  H12  1  0.62654587  0.52097500  0.63866037  1
  H+  H13  1  0.90366180  0.51818314  0.14869929  1
  H+  H14  1  0.74538718  0.11026355  0.32534266  1
  H+  H15  1  0.13038436  0.51935239  0.85685633  1
  H+  H16  1  0.27284453  0.89161545  0.67025611  1
  H+  H17  1  0.52068857  0.89334251  0.82944356  1
  H+  H18  1  0.46634943  0.86081672  1.00025273  1
  H+  H19  1  0.40600166  0.24535263  0.50597620  1
  H+  H20  1  0.73328239  0.86040109  0.17098055  1
  H+  H21  1  0.70632562  0.35335298  0.65573823  1
  H+  H22  1  0.89245148  0.83589903  0.67207145  1
  H+  H23  1  0.37316238  0.25286143  0.68712104  1
  H+  H24  1  0.14306171  1.02150149  -0.00520689  1
  H+  H25  1  0.60350456  0.12961357  0.00692368  1
  H+  H26  1  0.39584171  0.26898564  0.99438377  1
  H+  H27  1  0.17076295  0.13237578  0.66048191  1
  H+  H28  1  0.93070028  0.60115203  0.24793956  1
  H+  H29  1  0.63746107  0.97432623  0.34115607  1
  H+  H30  1  0.39912500  0.27884323  0.32306512  1
  H+  H31  1  0.38361171  1.01994956  0.17963969  1
  H+  H32  1  0.16657141  0.36808870  0.17055523  1
  H+  H33  1  0.15947480  1.02585903  0.82885936  1
  H+  H34  1  0.94756130  0.40401916  0.19234307  1
  H+  H35  1  0.50728259  0.37897435  0.65956915  1
  H+  H36  1  0.64745483  0.82672168  0.88856779  1
  H+  H37  1  0.89855836  0.77987961  0.16004229  1
  H+  H38  1  0.09788600  0.67426334  0.11418644  1
  H+  H39  1  0.63109414  0.89904103  0.15472722  1
  H+  H40  1  0.28954970  0.63837348  0.02166734  1
  H+  H41  1  0.35216610  0.68087084  0.73671798  1
  H+  H42  1  0.47010498  0.11010485  0.17801036  1
  H+  H43  1  0.83028278  0.61772696  0.32871203  1
  H+  H44  1  0.36501344  0.65440614  0.34150484  1
  H+  H45  1  0.25346724  0.38475163  -0.00823654  1
  H+  H46  1  0.12937734  0.73426157  0.33294177  1
  H+  H47  1  0.73276876  0.35983730  0.50502583  1
  H+  H48  1  0.41648708  0.08161163  0.27309593  1
  H+  H49  1  0.39114704  0.87271552  0.84355986  1
  H+  H50  1  0.11887988  0.60041013  0.86648164  1
  H+  H51  1  0.39260739  0.59993233  0.68882808  1
  H+  H52  1  0.05548516  0.65763576  0.18249546  1
  H+  H53  1  0.61056712  0.47151076  0.82509603  1
  H+  H54  1  0.57084668  0.73262699  0.97449091  1
  H+  H55  1  0.13014825  0.60256017  0.65671421  1
  H+  H56  1  0.62893833  0.74707254  0.33150833  1
  H+  H57  1  1.01822412  0.38012658  0.83135444  1
  H+  H58  1  0.73053884  0.13281311  0.17492846  1
  H+  H59  1  0.13168973  0.86447735  0.84218513  1
  H+  H60  1  0.18807895  0.10409428  0.48313970  1
  H+  H61  1  0.27228759  0.64307430  0.34518698  1
  H+  H62  1  0.37065669  0.73272779  1.01780016  1
  H+  H63  1  0.54491044  0.39128603  0.48534986  1
  H+  H64  1  0.59585727  -0.03787557  0.99776423  1
  H+  H65  1  0.92640848  0.09881199  0.64988807  1
  H+  H66  1  0.86633064  0.98438070  0.47940807  1
  H+  H67  1  0.03305955  0.15336815  0.66128990  1
  H+  H68  1  0.26593964  0.88553803  0.83267928  1
  H+  H69  1  0.57972214  0.86425314  -0.00282654  1
  H+  H70  1  0.03479140  0.63759006  0.01993270  1
  H+  H71  1  0.17429055  0.24423479  0.67348667  1
  H+  H72  1  0.10633516  0.47922766  0.49677530  1
  H+  H73  1  0.35898895  0.13693753  0.34780544  1
  H+  H74  1  0.85330373  0.10747740  0.19630415  1
  H+  H75  1  0.60902638  0.23302661  0.65802357  1
  H+  H76  1  0.36623927  0.37641762  0.33868851  1
  H+  H77  1  1.13918245  0.14432205  0.82762977  1
  H+  H78  1  0.01230850  0.39685670  -0.01517327  1
  H+  H79  1  0.85799357  0.23392368  1.02830483  1
  H+  H80  1  0.06588104  0.36335032  0.69624955  1
  H+  H81  1  0.04423047  0.65673440  0.69881111  1
  H+  H82  1  0.89902395  0.87745479  1.02029383  1
  H+  H83  1  0.00655831  0.39944855  0.67989635  1
  H+  H84  1  1.01913107  0.12262257  0.68811548  1
  H+  H85  1  0.14088956  0.14845333  0.00052100  1
  H+  H86  1  0.82400773  0.55590203  0.88898324  1
  H+  H87  1  1.04859857  0.14015869  0.81449684  1
  H+  H88  1  0.63155461  0.35897239  -0.01696324  1
  H+  H89  1  0.13892054  0.28335527  0.48933499  1
  H+  H90  1  0.27889032  0.13306114  0.01231567  1
  H+  H91  1  0.76992978  0.89437824  0.81842132  1
  H+  H92  1  0.40578900  0.11391448  0.51348372  1
  H+  H93  1  0.15458945  0.61668261  0.00905168  1
  H+  H94  1  0.85060507  0.36894492  0.34609184  1
  H+  H95  1  0.25326993  0.62230969  0.17225626  1
  H+  H96  1  0.41066255  0.78278942  0.17445903  1
  H+  H97  1  0.14863009  0.37045938  0.32615648  1
  H+  H98  1  0.14841212  0.24366455  0.00341679  1
  H+  H99  1  0.14612189  0.48971977  0.15859346  1
  H+  H100  1  0.63007842  0.48119274  0.48331248  1
  H+  H101  1  0.86779297  0.37438409  0.66089670  1
  H+  H102  1  0.39699524  1.01339983  0.66419028  1
  H+  H103  1  0.18259014  0.07731692  0.93369562  1
  H+  H104  1  0.27081488  0.52620785  0.44906624  1
  H+  H105  1  0.09338802  0.14159453  0.48408128  1
  H+  H106  1  0.82248966  0.89707110  0.64772615  1
  H+  H107  1  0.72958073  0.53476776  0.13640628  1
  H+  H108  1  0.89778338  0.86750960  0.16897999  1
  H+  H109  1  0.43030170  0.33522172  0.22439496  1
  H+  H110  1  0.33444739  0.85791658  0.68823556  1
  H+  H111  1  0.63456762  0.87074800  0.83093989  1
  H+  H112  1  0.12257646  0.77326757  0.85626002  1
  H+  H113  1  0.23061525  0.36624176  0.85229300  1
  H+  H114  1  0.45980780  0.55290826  0.97958488  1
  H+  H115  1  0.37515392  0.23460305  0.16322071  1
  H+  H116  1  0.39844844  0.51778900  0.67658384  1
  H+  H117  1  0.64252526  0.85614591  0.32950428  1
  H+  H118  1  0.87842979  0.24887530  0.18019557  1
  H+  H119  1  0.70009873  0.07622100  -0.01258056  1
  H+  H120  1  0.82763673  0.22325855  0.00169945  1
  H+  H121  1  0.41120205  0.36328515  0.15975128  1
  H+  H122  1  0.85973595  0.86979446  0.32293568  1
  H+  H123  1  0.84714865  0.60959371  0.65160656  1
  H+  H124  1  0.99238461  0.62716463  0.85862411  1
  H+  H125  1  0.61768543  0.50474192  0.32538788  1
  H+  H126  1  0.57639012  0.63468914  0.15572385  1
  H+  H127  1  0.87575674  0.86145171  0.50321066  1
  H+  H128  1  0.60421158  0.47457192  0.15907553  1
  H+  H129  1  0.47477017  0.63452249  0.31080878  1
  H+  H130  1  0.00603707  0.88115342  0.49037225  1
  H+  H131  1  0.88140168  0.87123187  0.80774143  1
  H+  H132  1  0.27451488  0.70587240  0.66695548  1
  H+  H133  1  0.61493968  0.13849697  0.66074040  1
  H+  H134  1  0.13085809  0.36109678  0.83664598  1
  H+  H135  1  0.78113572  0.02568677  0.22842811  1
  H+  H136  1  0.45285572  0.64829024  0.15139088  1
  H+  H137  1  0.41019381  0.87892029  0.32659177  1
  H+  H138  1  0.08595407  0.42202255  0.39798446  1
  H+  H139  1  0.65814862  0.32134572  0.59026549  1
  H+  H140  1  0.12437592  0.03702605  0.34582771  1
  H+  H141  1  0.83027449  0.47048861  0.66119336  1
  H+  H142  1  0.66772170  0.82632089  0.22654417  1
  H+  H143  1  0.63900065  0.61661263  0.83955514  1
  H+  H144  1  0.62920348  0.36144427  0.83170532  1
  H+  H145  1  0.30374215  0.39052165  0.14424967  1
  H+  H146  1  0.29037098  0.39754609  0.71798687  1
  H+  H147  1  0.14030606  0.52569375  0.32323061  1
  H+  H148  1  0.72832362  0.87761905  0.66514333  1
  H+  H149  1  0.62924009  0.39973421  0.15816691  1
  H+  H150  1  0.51586957  0.75276632  0.92948011  1
  H+  H151  1  0.41787460  0.37459578  0.52021689  1
  H+  H152  1  0.60649729  0.62905201  0.33447939  1
  H+  H153  1  0.02728470  0.38799836  0.33989872  1
  H+  H154  1  0.73297988  0.32833596  0.15885572  1
  H+  H155  1  1.04150894  0.89538872  0.16707711  1
  H+  H156  1  0.16852988  0.37962081  0.64081372  1
  H+  H157  1  0.75808789  0.36616270  0.34462847  1
  H+  H158  1  0.59773389  0.88833736  0.67382999  1
  H+  H159  1  0.48264807  0.35818525  0.99095446  1
  H+  H160  1  0.73485982  0.11970439  0.49810335  1
  H+  H161  1  0.49400708  0.86692348  0.62461237  1
  H+  H162  1  0.24297215  0.87140530  0.17981635  1
  H+  H163  1  0.48991554  0.36778827  0.31979315  1
  H+  H164  1  0.37945430  0.47274358  0.50552437  1
  H+  H165  1  0.16351068  0.62296737  0.17222399  1
  H+  H166  1  0.59622752  0.71510300  0.48888764  1
  H+  H167  1  0.36130500  0.97556637  0.01005135  1
  H+  H168  1  0.65492071  0.32635231  0.89256052  1
  H+  H169  1  0.20967062  0.12568036  0.35351921  1
  H+  H170  1  0.61847980  0.13327285  0.34135187  1
  H+  H171  1  0.08835261  0.29118238  0.62382079  1
  H+  H172  1  0.61767083  0.22204686  0.49256790  1
  H+  H173  1  0.51606748  0.13089828  1.00785878  1
  H+  H174  1  0.12055898  0.72856239  0.01636476  1
  H+  H175  1  0.42816824  0.31699344  0.89856768  1
  H+  H176  1  0.68489281  0.61031472  0.17948166  1
  H+  H177  1  0.27940961  0.88705240  0.48936083  1
  H+  H178  1  0.11895256  0.89264100  0.65442935  1
  H+  H179  1  0.87568578  0.28932667  0.66066815  1
  H+  H180  1  0.77700506  0.90760346  0.45936813  1
  H+  H181  1  0.88462593  0.74805069  0.65111909  1
  H+  H182  1  0.72689474  0.61733315  0.83088512  1
  H+  H183  1  0.37364973  0.88895078  0.16204228  1
  H+  H184  1  0.88152783  0.27407306  0.83764954  1
  H+  H185  1  0.60533583  0.14039983  0.16209835  1
  H+  H186  1  0.62119986  0.13425586  0.49384703  1
  H+  H187  1  0.91666038  0.35537964  0.57404675  1
  H+  H188  1  0.60708491  0.63000330  -0.00207097  1
  H+  H189  1  0.15417603  0.78275807  0.18413046  1
  H+  H190  1  0.37522648  0.63124969  0.78639830  1
  H+  H191  1  0.83665062  0.48778854  0.31981778  1
  H+  H192  1  0.85845841  0.63837809  0.81378659  1
  H+  H193  1  0.82585712  0.65257298  0.71226301  1
  H+  H194  1  0.14884827  0.88191253  0.32793768  1
  H+  H195  1  0.36948205  0.12628463  0.68839847  1
  H+  H196  1  0.64655189  0.36410413  0.49860188  1
  H+  H197  1  0.57194110  0.16319964  0.10136583  1
  H+  H198  1  0.63154444  0.61101629  0.49313499  1
  H+  H199  1  0.54452175  0.89237347  0.33902554  1
  H+  H200  1  0.08378491  0.14389829  0.34564787  1
  H+  H201  1  0.61289172  0.75898050  0.66819283  1
  H+  H202  1  0.45329870  0.11547314  0.84257786  1
  H+  H203  1  0.09713019  0.88404276  0.48509222  1
  H+  H204  1  0.89867699  0.26850231  0.33144119  1
  H+  H205  1  0.31913537  0.16349759  0.51999245  1
  H+  H206  1  0.27096775  0.88721561  1.01291123  1
  H+  H207  1  0.84238649  0.14870825  0.66748521  1
  H+  H208  1  0.36969072  0.97521779  0.49521649  1
  H+  H209  1  0.70311242  0.60569632  0.32328425  1
  H+  H210  1  0.02938587  0.89133448  0.02206198  1
  H+  H211  1  0.63022232  0.11568847  0.83623194  1
  H+  H212  1  0.37384175  0.58825151  0.51061769  1
  H+  H213  1  0.94372085  0.09289855  0.88115399  1
  H+  H214  1  0.84840452  0.38568725  0.82353879  1
  H+  H215  1  0.76973062  0.63643725  0.48350978  1
  H+  H216  1  0.36439579  0.13854689  0.16759527  1
  H+  H217  1  0.49427664  0.87610388  0.17018837  1
  H+  H218  1  0.90699525  1.01063874  0.00500783  1
  H+  H219  1  0.81324079  0.93289674  0.01005918  1
  H+  H220  1  0.29343403  0.38393247  0.49629042  1
  H+  H221  1  0.90052006  1.03301873  0.82329719  1
  H+  H222  1  0.80976328  0.10658587  0.04791800  1
  H+  H223  1  0.48568337  0.63761479  0.84488163  1
  H+  H224  1  0.82603735  0.59216144  0.15998773  1
  H+  H225  1  0.88109654  0.60888720  0.49663654  1
  H+  H226  1  0.02572376  -0.11870899  0.66083102  1
  H+  H227  1  0.18674524  0.86444971  0.57641154  1
  H+  H228  1  0.52116523  0.62812593  0.67743862  1
  H+  H229  1  0.36958495  0.99033044  0.34215903  1
  H+  H230  1  0.60389982  0.98051514  0.66756239  1
  H+  H231  1  0.24439513  0.12765858  0.17070327  1
  H+  H232  1  0.90404739  0.82834115  0.56294094  1
  H+  H233  1  1.01880838  0.64248307  0.52658586  1
  H+  H234  1  0.10886475  0.39061528  0.49215082  1
  H+  H235  1  0.13620829  0.86487906  1.00451911  1
  H+  H236  1  0.96690366  0.11879060  0.50012389  1
  H+  H237  1  0.86612450  0.48081827  0.48986397  1
  H+  H238  1  0.89377163  0.61269514  1.00957040  1
  H+  H239  1  0.60957379  0.26548092  0.17801434  1
  H+  H240  1  0.26285469  0.89552976  0.33767372  1
  H+  H241  1  0.83345944  0.01918698  0.64616453  1
  H+  H242  1  0.61375592  0.63569111  0.66926891  1
  H+  H243  1  0.86877083  0.46837090  1.03165473  1
  H+  H244  1  0.47939849  0.11022438  0.33167627  1
  H+  H245  1  0.65003990  0.02807881  0.50531377  1
  H+  H246  1  0.84577870  0.33752739  0.17763041  1
  H+  H247  1  0.15649607  0.81841111  0.44169095  1
  H+  H248  1  0.59032749  0.37668038  0.63773810  1
  H+  H249  1  0.51154811  0.62504801  0.48936314  1
  H+  H250  1  0.72021111  0.60643158  0.64660273  1
  H+  H251  1  0.54425279  0.90232559  0.49629054  1
  H+  H252  1  0.70402453  0.83676310  0.52945876  1
  H+  H253  1  0.41118857  0.59036720  0.89327271  1
  H+  H254  1  0.93713585  0.13819295  0.97354928  1
  H+  H255  1  1.02342085  0.13549329  0.98217551  1
  H+  H256  1  0.73181183  0.61797124  -0.00810041  1
  H+  H257  1  0.85228676  0.50334886  0.84561553  1
  H+  H258  1  0.14039407  0.23445103  0.15511677  1
  H+  H259  1  0.98149686  0.37767439  0.51148241  1
  H+  H260  1  0.52362637  0.38085147  0.82429595  1
  H+  H261  1  0.86311769  0.49726448  0.16724278  1
  H+  H262  1  0.86083281  0.13974966  0.82167050  1
  H+  H263  1  0.86367737  0.72263682  0.02859656  1
  H+  H264  1  0.38480544  0.10895570  1.00082595  1
  H+  H265  1  0.48899484  0.10513528  0.51098625  1
  H+  H266  1  0.17947200  0.55238374  0.66414704  1
  H+  H267  1  0.88449663  0.76254752  0.31861799  1
  H+  H268  1  0.63175385  0.02693425  0.83386018  1
  H+  H269  1  0.71904616  0.12512027  0.65847813  1
  H+  H270  1  0.36710142  0.77408235  0.64389100  1
  H+  H271  1  1.02914879  0.89752308  0.80787111  1
  H+  H272  1  0.22989461  0.35517140  0.33240949  1
  H+  H273  1  0.93090735  0.57441690  0.64130203  1
  H+  H274  1  0.62706977  0.26845670  0.98403364  1
  H+  H275  1  0.38469237  0.33685680  0.84538665  1
  H+  H276  1  0.35731589  0.44542252  0.88362219  1
  H+  H277  1  0.37707234  0.85905875  -0.00092955  1
  H+  H278  1  0.60124985  0.22633881  0.82528986  1
  H+  H279  1  0.96272077  0.14784813  0.34009802  1
  H+  H280  1  0.31265875  0.62281893  0.42315722  1
  H+  H281  1  0.10908710  0.64505860  0.52474631  1
  H+  H282  1  0.86376672  0.72910879  0.80264767  1
  H+  H283  1  0.62899726  0.85613427  0.50839222  1
  H+  H284  1  0.11794779  0.64161065  0.32724396  1
  H+  H285  1  0.37078045  0.02246880  0.84373515  1
  H+  H286  1  0.62973501  0.37015641  0.32472016  1
  H+  H287  1  0.40769792  0.87076988  0.52841729  1
  H+  H288  1  0.91708420  0.57361880  0.95349885  1
  H+  H289  1  0.59342835  0.92240578  0.09541036  1
  H+  H290  1  0.00487238  0.55943447  0.71617584  1
  H+  H291  1  0.12424379  0.76601457  0.50343862  1
  H+  H292  1  1.02208603  0.65740456  0.27596185  1
  H+  H293  1  0.86385868  0.20374673  0.11784010  1
  H+  H294  1  0.73250559  0.01943352  0.06797941  1
  H+  H295  1  0.41290213  0.62279418  0.25553752  1
  H+  H296  1  0.90723882  0.82437276  0.96779783  1
  H+  H297  1  0.57200062  0.92069487  0.76598515  1
  H+  H298  1  0.81460582  0.92148587  0.75327327  1
  H+  H299  1  0.85842654  0.72400650  0.48475147  1
  H+  H300  1  0.15770820  0.36488341  0.99636887  1
  H+  H301  1  0.41439282  0.57989965  0.57499467  1
  H+  H302  1  0.36666054  0.37921656  0.71046200  1
  H+  H303  1  0.58704312  0.66554056  0.76784199  1
  H+  H304  1  0.64881393  0.03838180  0.16989106  1
  H+  H305  1  0.92170661  0.82350714  0.25976247  1
  H+  H306  1  0.88156683  0.09247664  0.28950103  1
  H+  H307  1  0.65006312  0.32721998  0.23704063  1
  H+  H308  1  0.79941003  0.35296035  0.10161976  1
  H+  H309  1  0.85673657  0.94406095  0.11016866  1
  H+  H310  1  0.34545361  0.17745255  0.40725586  1
  H+  H311  1  0.59798201  0.91544607  0.43328724  1
  H+  H312  1  0.82299654  0.17802651  0.73166326  1
  H+  H313  1  0.44324240  0.85705121  0.26578949  1
  H+  H314  1  0.05649897  0.65122301  0.80474943  1
  H+  H315  1  0.62760854  0.81300806  0.60661093  1
  H+  H316  1  0.66811185  0.09200471  0.59455427  1
  H+  H317  1  0.18743337  0.33315606  0.23041477  1
  H+  H318  1  0.98530406  0.45552671  0.95012020  1
  H+  H319  1  0.76906979  0.13668942  0.82682048  1
  H+  H320  1  0.17542250  0.33822707  0.54838222  1
  H+  H321  1  0.58625768  0.15982297  0.40035563  1
  H+  H322  1  0.85894586  0.97626492  0.17812192  1
  H+  H323  1  0.82999382  0.16101146  0.41975845  1
  H+  H324  1  0.59920720  0.42638292  0.05998626  1
  H+  H325  1  0.82338851  0.66282904  0.38961876  1
  H+  H326  1  0.59029604  0.41942404  0.38395899  1
  H+  H327  1  0.10021780  0.41631439  0.06464434  1
  H+  H328  1  0.09641531  0.92143769  0.75503783  1
  H+  H329  1  0.65118259  0.07510002  0.92645440  1
  H+  H330  1  0.18759052  0.85413938  0.26886810  1
  H+  H331  1  0.14105485  0.27008171  0.83379472  1
  H+  H332  1  0.33654537  0.92335292  0.40287294  1
  H+  H333  1  0.67705924  0.08380607  0.27070317  1
  H+  H334  1  0.91211381  0.33555704  0.27891755  1
  H+  H335  1  0.88305015  0.39159325  0.01592540  1
  H+  H336  1  0.41879462  0.84092124  0.90195310  1
  H+  H337  1  0.40747940  0.07935653  0.93824135  1
  H+  H338  1  0.48851892  0.37249557  0.56774637  1
  H+  H339  1  0.17959507  0.58473237  0.26409574  1
  H+  H340  1  0.34243986  0.40158935  0.40201132  1
  H+  H341  1  0.75398041  0.37785717  0.82603940  1
  H+  H342  1  0.14723380  0.13423255  0.15901470  1
  H+  H343  1  0.84015687  0.91303677  0.37906542  1
  H+  H344  1  0.66446466  0.58832237  0.55419111  1
  H+  H345  1  0.62647138  0.27479421  0.32789576  1
  H+  H346  1  0.88719090  0.56588276  0.56007915  1
  H+  H347  1  0.57537859  0.66568790  0.39344900  1
  H+  H348  1  0.18037201  0.58654361  0.94819639  1
  H+  H349  1  0.34807825  0.42916839  0.81007131  1
  H+  H350  1  0.89511381  0.08005852  0.55398080  1
  H+  H351  1  0.36019893  0.43433001  0.08584511  1
  H+  H352  1  0.33725202  0.16479603  0.07291965  1
  H+  H353  1  0.17392484  0.58543437  0.56339828  1
  H+  H354  1  0.81440521  0.63792729  0.07033314  1
  H+  H355  1  0.92146021  0.34429391  0.89236497  1
  H+  H356  1  0.15613035  0.19060794  0.73532731  1
  H+  H357  1  0.09982556  0.23997747  0.33580474  1
  H+  H358  1  0.62913403  0.57965760  0.23923553  1
  H+  H359  1  0.16315664  0.83730774  0.94317551  1
  H+  H360  1  0.11398399  0.17772940  0.09211366  1
  H+  H361  1  0.42327064  0.07238437  0.60325659  1
  H+  H362  1  0.08212791  0.42371881  0.77637718  1
  H+  H363  1  0.59880590  0.73013741  0.14507078  1
  H+  H364  1  0.67601728  0.59069775  0.93011369  1
  H+  H365  1  0.80613250  0.41424646  0.72680764  1
  H+  H366  1  0.77457087  0.49535639  0.27413914  1
  H+  H367  1  0.31217675  0.11038762  0.84512696  1
  H+  H368  1  0.13707696  0.48316660  0.01066050  1
  H+  H369  1  0.15093120  1.03571737  0.17189926  1
  H+  H370  1  0.56883062  0.16363858  0.76853415  1
  H+  H371  1  0.32289473  0.91676858  0.77223662  1
  H+  H372  1  0.37421426  0.30800796  0.63117321  1
  H+  H373  1  0.91187261  0.84024051  0.86349393  1
  H+  H374  1  0.35676313  0.67493463  0.09990223  1
  H+  H375  1  0.09773299  0.92805179  0.07609930  1
  H+  H376  1  0.56195818  0.65185607  0.05279860  1
  H+  H377  1  0.15471397  0.08278842  0.58705109  1
  H+  H378  1  0.83313902  0.41058855  0.43350886  1
  H+  H379  1  0.73410229  0.85118611  0.32401947  1
  H+  H380  1  0.33749196  0.91664262  0.10439935  1
  H+  H381  1  0.06393084  0.17819818  0.42788869  1
  H+  H382  1  0.21588030  0.59280338  0.49787704  1
  H+  H383  1  0.07404103  0.91245182  0.39326343  1
  O2-  O384  1  0.11254110  0.17408859  0.13789803  1
  O2-  O385  1  0.06884182  0.17854260  0.47356178  1
  O2-  O386  1  0.11213181  0.17531087  0.80808749  1
  O2-  O387  1  0.11667369  0.42740130  0.14486409  1
  O2-  O388  1  0.07358176  0.41764414  0.48200540  1
  O2-  O389  1  0.08140963  0.41130181  0.82045199  1
  O2-  O390  1  0.11039323  0.67968769  0.15867314  1
  O2-  O391  1  0.08147248  0.67903125  0.53650280  1
  O2-  O392  1  0.05432882  0.65690700  0.84863234  1
  O2-  O393  1  0.10248130  0.92897788  0.15394684  1
  O2-  O394  1  0.06646478  0.91545960  0.47437905  1
  O2-  O395  1  0.09160006  0.92272251  0.79995554  1
  O2-  O396  1  0.33681581  0.17025433  0.15052278  1
  O2-  O397  1  0.36857215  0.18365679  0.49317155  1
  O2-  O398  1  0.27566928  0.12793843  0.82139960  1
  O2-  O399  1  0.36237548  0.41670142  0.12797622  1
  O2-  O400  1  0.35626661  0.41246632  0.49040871  1
  O2-  O401  1  0.32368400  0.40517167  0.85062686  1
  O2-  O402  1  0.36031747  0.67951532  0.14980864  1
  O2-  O403  1  0.29606893  0.58495106  0.46421376  1
  O2-  O404  1  0.34984826  0.62619294  0.74553454  1
  O2-  O405  1  0.33964486  0.91689455  0.15013599  1
  O2-  O406  1  0.33998356  0.91647875  0.47623901  1
  O2-  O407  1  0.32577819  0.91968765  0.81738573  1
  O2-  O408  1  0.56864594  0.16325498  0.14708142  1
  O2-  O409  1  0.58596606  0.16046583  0.47976260  1
  O2-  O410  1  0.56884939  0.16334312  0.81309380  1
  O2-  O411  1  0.63369341  0.45027502  0.13537045  1
  O2-  O412  1  0.60483773  0.42016373  0.46997861  1
  O2-  O413  1  0.58407073  0.41309894  0.80800009  1
  O2-  O414  1  0.55795417  0.67053339  0.13240651  1
  O2-  O415  1  0.56924021  0.65747526  0.46939523  1
  O2-  O416  1  0.58937959  0.66998558  0.81317158  1
  O2-  O417  1  0.60808989  0.93593559  0.13963813  1
  O2-  O418  1  0.60184403  0.91892466  0.47886984  1
  O2-  O419  1  0.58086654  0.92283520  0.81058222  1
  O2-  O420  1  0.85192905  0.19036174  0.16093010  1
  O2-  O421  1  0.82382430  0.16324935  0.46505474  1
  O2-  O422  1  0.82916760  0.16955005  0.81002591  1
  O2-  O423  1  0.77730517  0.31753923  0.13979762  1
  O2-  O424  1  0.83940138  0.41700837  0.47941377  1
  O2-  O425  1  0.81676552  0.41548330  0.81149579  1
  O2-  O426  1  0.78046586  0.59580229  0.13860951  1
  O2-  O427  1  0.83041295  0.66484950  0.46812499  1
  O2-  O428  1  0.83078668  0.66684214  0.79294635  1
  O2-  O429  1  0.84656775  0.92528381  0.15325586  1
  O2-  O430  1  0.83710210  0.92329347  0.46304383  1
  O2-  O431  1  0.82736553  0.92202904  0.79730476  1
  O2-  O432  1  0.17961857  0.09845411  0.18209660  1
  O2-  O433  1  0.13917316  0.07714377  0.51087109  1
  O2-  O434  1  0.18968813  0.08378222  0.84924893  1
  O2-  O435  1  0.19014235  0.33182182  0.18525038  1
  O2-  O436  1  0.17529338  0.34416605  0.50388127  1
  O2-  O437  1  0.16271315  0.33017539  0.85085527  1
  O2-  O438  1  0.19119718  0.58858612  0.18410066  1
  O2-  O439  1  0.16120917  0.58074029  0.51910834  1
  O2-  O440  1  0.15738280  0.57758351  0.87452729  1
  O2-  O441  1  0.18322938  0.84460575  0.19785756  1
  O2-  O442  1  0.15637939  0.82776840  0.48546642  1
  O2-  O443  1  0.15919835  0.83563229  0.86352709  1
  O2-  O444  1  0.41112139  0.07951972  0.19662824  1
  O2-  O445  1  0.42809866  0.07582731  0.52708744  1
  O2-  O446  1  0.39449026  0.08247467  0.85962141  1
  O2-  O447  1  0.43306751  0.32805667  0.17966695  1
  O2-  O448  1  0.45170645  0.34579652  0.53118439  1
  O2-  O449  1  0.42537995  0.31682789  0.85267021  1
  O2-  O450  1  0.39567383  0.62580339  0.17176975  1
  O2-  O451  1  0.41685574  0.57556327  0.53010154  1
  O2-  O452  1  0.43177003  0.63334583  0.86043469  1
  O2-  O453  1  0.43513432  0.84467677  0.18650575  1
  O2-  O454  1  0.46539113  0.89221122  0.54590762  1
  O2-  O455  1  0.42649227  0.84783399  0.85723108  1
  O2-  O456  1  0.67135096  0.09563164  0.18978201  1
  O2-  O457  1  0.67631734  0.08841612  0.51966874  1
  O2-  O458  1  0.66334934  0.08750183  0.84994619  1
  O2-  O459  1  0.64701206  0.32628397  0.19121512  1
  O2-  O460  1  0.67103299  0.32920590  0.51705139  1
  O2-  O461  1  0.65805046  0.32757326  0.84595101  1
  O2-  O462  1  0.62538881  0.58457932  0.19359649  1
  O2-  O463  1  0.66681508  0.58643992  0.50864852  1
  O2-  O464  1  0.67172793  0.58784857  0.85312484  1
  O2-  O465  1  0.67166918  0.83491109  0.18199738  1
  O2-  O466  1  0.64199175  0.81266125  0.52905533  1
  O2-  O467  1  0.66732165  0.84230698  0.84584636  1
  O2-  O468  1  0.84305565  0.05616456  0.22102749  1
  O2-  O469  1  0.90482779  0.07868240  0.50960282  1
  O2-  O470  1  0.93750029  0.09378532  0.83627349  1
  O2-  O471  1  0.90178923  0.34685166  0.20333369  1
  O2-  O472  1  0.92032491  0.35470500  0.52774322  1
  O2-  O473  1  0.91407537  0.33680219  0.84738772  1
  O2-  O474  1  0.98765870  0.64972518  0.23803177  1
  O2-  O475  1  0.90769776  0.57712968  0.51540291  1
  O2-  O476  1  0.87409463  0.56197020  0.86711771  1
  O2-  O477  1  0.92874932  0.83592215  0.17977395  1
  O2-  O478  1  0.90552702  0.83082913  0.51779369  1
  O2-  O479  1  0.91539553  0.84203861  0.81929003  1
  O2-  O480  1  0.14657287  0.09735999  0.35787910  1
  O2-  O481  1  0.16354686  0.07949357  0.63201227  1
  O2-  O482  1  0.17677145  0.08109770  0.97806703  1
  O2-  O483  1  0.17099360  0.33228083  0.31309031  1
  O2-  O484  1  0.15056317  0.32035673  0.62967872  1
  O2-  O485  1  0.19213528  0.33813608  0.98457381  1
  O2-  O486  1  0.17122779  0.58630042  0.30873519  1
  O2-  O487  1  0.18211273  0.60148445  0.64298629  1
  O2-  O488  1  0.18493991  0.58682057  0.99391403  1
  O2-  O489  1  0.18815425  0.85864637  0.31566793  1
  O2-  O490  1  0.17333377  0.84528220  0.61871065  1
  O2-  O491  1  0.16452640  0.83322922  0.98830151  1
  O2-  O492  1  0.41724033  0.08066421  0.31903234  1
  O2-  O493  1  0.42652815  0.07418735  0.64912843  1
  O2-  O494  1  0.41256957  0.07674306  0.98333835  1
  O2-  O495  1  0.42733689  0.33701157  0.30534410  1
  O2-  O496  1  0.39373023  0.31441873  0.67325631  1
  O2-  O497  1  0.42444439  0.32476431  0.97309631  1
  O2-  O498  1  0.41516376  0.61594824  0.29985748  1
  O2-  O499  1  0.41828672  0.57553104  0.65918045  1
  O2-  O500  1  0.40523344  0.51159301  0.95821186  1
  O2-  O501  1  0.45475610  0.86888526  0.30993480  1
  O2-  O502  1  0.45307547  0.82796055  0.59236920  1
  O2-  O503  1  0.40690264  0.82840748  0.98350305  1
  O2-  O504  1  0.68200170  0.07906885  0.31537691  1
  O2-  O505  1  0.66002415  0.09229986  0.64021716  1
  O2-  O506  1  0.64442249  0.06574045  0.97169051  1
  O2-  O507  1  0.66082723  0.33426804  0.31257718  1
  O2-  O508  1  0.64752210  0.31755446  0.63592267  1
  O2-  O509  1  0.65536177  0.32513796  0.96383062  1
  O2-  O510  1  0.64116361  0.57386735  0.31295997  1
  O2-  O511  1  0.65971800  0.58431535  0.63211635  1
  O2-  O512  1  0.67239473  0.58974975  0.97564380  1
  O2-  O513  1  0.66787143  0.81984934  0.31307356  1
  O2-  O514  1  0.63410334  0.81939652  0.65170055  1
  O2-  O515  1  0.57052114  0.78135678  0.95167426  1
  O2-  O516  1  0.89516093  0.11125248  0.33375756  1
  O2-  O517  1  0.86978985  0.08001956  0.63154353  1
  O2-  O518  1  0.96218964  0.10244664  0.96374612  1
  O2-  O519  1  0.91932434  0.33110418  0.32351586  1
  O2-  O520  1  0.90657011  0.35088835  0.64723046  1
  O2-  O521  1  0.96274683  0.39556246  0.96145809  1
  O2-  O522  1  0.83057477  0.52981096  0.29319277  1
  O2-  O523  1  0.87075848  0.55150389  0.63012409  1
  O2-  O524  1  0.92521082  0.58190596  0.99760191  1
  O2-  O525  1  0.91938414  0.82420231  0.30482900  1
  O2-  O526  1  0.91828853  0.81452159  0.64303159  1
  O2-  O527  1  0.91784607  0.83451040  1.01124334  1
  O2-  O528  1  0.11145599  0.17965083  0.01553596  1
  O2-  O529  1  0.05577436  0.17985957  0.35149773  1
  O2-  O530  1  0.18625718  0.20342461  0.69520346  1
  O2-  O531  1  0.10097379  0.41967690  0.01955485  1
  O2-  O532  1  0.08891752  0.42030684  0.35309974  1
  O2-  O533  1  0.06601558  0.41763982  0.69539290  1
  O2-  O534  1  0.09559490  0.66943711  0.03371026  1
  O2-  O535  1  0.08665714  0.67315728  0.33646494  1
  O2-  O536  1  0.03736684  0.60218111  0.68492922  1
  O2-  O537  1  0.09188145  0.92424911  0.03068588  1
  O2-  O538  1  0.08274005  0.91446683  0.34848905  1
  O2-  O539  1  0.08751445  0.92009301  0.67212536  1
  O2-  O540  1  0.33890445  0.16140131  0.02754188  1
  O2-  O541  1  0.33202732  0.16956036  0.36344782  1
  O2-  O542  1  0.33605332  0.15364239  0.70050756  1
  O2-  O543  1  0.34388599  0.47594267  0.00716059  1
  O2-  O544  1  0.32727588  0.39375784  0.35872051  1
  O2-  O545  1  0.35110173  0.42190934  0.72702619  1
  O2-  O546  1  0.34931381  0.67491359  0.03701510  1
  O2-  O547  1  0.32785355  0.66871809  0.36745864  1
  O2-  O548  1  0.32788683  0.75830515  0.67933253  1
  O2-  O549  1  0.33162125  0.91575403  0.02753969  1
  O2-  O550  1  0.33303189  0.92636577  0.35660099  1
  O2-  O551  1  0.32760085  0.90988379  0.69142851  1
  O2-  O552  1  0.57648688  0.16163328  0.02381073  1
  O2-  O553  1  0.58404774  0.15941707  0.35490255  1
  O2-  O554  1  0.58156422  0.16860815  0.67658368  1
  O2-  O555  1  0.59080142  0.42006420  0.01524578  1
  O2-  O556  1  0.58991314  0.42102720  0.33922270  1
  O2-  O557  1  0.55815117  0.40790185  0.63243523  1
  O2-  O558  1  0.56194632  0.64512386  0.00783542  1
  O2-  O559  1  0.58486597  0.67143964  0.34798182  1
  O2-  O560  1  0.58359151  0.66329559  0.68948468  1
  O2-  O561  1  0.57185696  0.90711201  0.02123007  1
  O2-  O562  1  0.60480159  0.91311821  0.35554866  1
  O2-  O563  1  0.56697552  0.92058459  0.68182887  1
  O2-  O564  1  0.77155068  0.04806947  0.03396674  1
  O2-  O565  1  0.85157637  0.16227891  0.34475142  1
  O2-  O566  1  0.81978945  0.18383152  0.68652124  1
  O2-  O567  1  0.84758571  0.40747464  0.04085729  1
  O2-  O568  1  0.81897677  0.39831018  0.36036295  1
  O2-  O569  1  0.80353407  0.40796225  0.68190725  1
  O2-  O570  1  0.83386688  0.65914185  0.02768727  1
  O2-  O571  1  0.81823389  0.66266445  0.34427791  1
  O2-  O572  1  0.82640458  0.65424191  0.66717978  1
  O2-  O573  1  0.87073552  0.95407748  0.02667920  1
  O2-  O574  1  0.82667732  0.89877888  0.33563066  1
  O2-  O575  1  0.79329348  0.91893373  0.67321381  1
