# generated using pymatgen
data_H2O
_symmetry_space_group_name_H-M   'P 1'
_cell_length_a   17.99718695
_cell_length_b   17.98611358
_cell_length_c   22.02044563
_cell_angle_alpha   89.99689370
_cell_angle_beta   89.99370801
_cell_angle_gamma   119.99652076
_symmetry_Int_Tables_number   1
_chemical_formula_structural   H2O
_chemical_formula_sum   'H384 O192'
_cell_volume   6173.25068921
_cell_formula_units_Z   192
loop_
 _symmetry_equiv_pos_site_id
 _symmetry_equiv_pos_as_xyz
  1  'x, y, z'
loop_
 _atom_type_symbol
 _atom_type_oxidation_number
  H+  1.0
  O2-  -2.0
loop_
 _atom_site_type_symbol
 _atom_site_label
 _atom_site_symmetry_multiplicity
 _atom_site_fract_x
 _atom_site_fract_y
 _atom_site_fract_z
 _atom_site_occupancy
  H+  H0  1  0.21670493  0.37272152  0.98707716  1
  H+  H1  1  0.81629608  0.38233471  0.41579481  1
  H+  H2  1  0.88565868  0.28164472  0.50973404  1
  H+  H3  1  0.14459909  0.28074506  0.83068812  1
  H+  H4  1  0.02336633  0.14133209  0.34186955  1
  H+  H5  1  0.37138967  0.86796675  -0.01572419  1
  H+  H6  1  0.36893832  0.37935404  0.35813850  1
  H+  H7  1  0.11450439  0.22797876  0.33863199  1
  H+  H8  1  0.63149715  0.91030385  0.32720778  1
  H+  H9  1  0.72816732  0.63008310  0.65840959  1
  H+  H10  1  0.66826858  0.04812189  0.66609111  1
  H+  H11  1  0.59272155  0.37692822  0.01262340  1
  H+  H12  1  0.88304365  0.60305390  0.85277844  1
  H+  H13  1  0.77715635  0.12914263  0.34134927  1
  H+  H14  1  0.36598126  0.40133166  0.15748056  1
  H+  H15  1  0.13800703  0.28060247  0.50572578  1
  H+  H16  1  0.64131977  0.37251242  0.51117405  1
  H+  H17  1  0.98423517  0.85271769  0.66249509  1
  H+  H18  1  0.01787540  0.63439494  -0.04051885  1
  H+  H19  1  0.36242576  0.64909017  0.34060338  1
  H+  H20  1  0.37443917  0.61849376  0.15463053  1
  H+  H21  1  0.45774114  0.35556031  0.99117982  1
  H+  H22  1  0.12712459  0.61349393  0.15519710  1
  H+  H23  1  0.72992166  0.85927151  -0.03048876  1
  H+  H24  1  0.65959902  0.28625217  0.66222399  1
  H+  H25  1  0.64655981  0.90809705  0.81885187  1
  H+  H26  1  0.63928840  1.03184254  0.33294239  1
  H+  H27  1  0.36045716  0.15059943  0.50120787  1
  H+  H28  1  0.62087237  0.47966226  0.50034136  1
  H+  H29  1  0.87897131  0.48765599  0.66992829  1
  H+  H30  1  0.64051904  0.74249410  0.81879850  1
  H+  H31  1  0.61623104  0.89692276  0.49736770  1
  H+  H32  1  0.12731108  0.11869222  0.31949953  1
  H+  H33  1  0.38084140  0.76195821  0.67822844  1
  H+  H34  1  0.11412665  0.71763363  0.68217634  1
  H+  H35  1  0.53160717  0.92181663  0.67706761  1
  H+  H36  1  0.28296076  0.38153871  0.34579704  1
  H+  H37  1  0.10604150  0.71752702  0.83106105  1
  H+  H38  1  0.10596578  0.88074029  0.16030368  1
  H+  H39  1  0.45566423  0.07533171  0.61092181  1
  H+  H40  1  0.13432773  0.36873371  0.51332861  1
  H+  H41  1  0.86282597  0.38040295  0.67392083  1
  H+  H42  1  0.15206944  0.56711111  0.30372752  1
  H+  H43  1  0.12599856  0.28718544  0.97761338  1
  H+  H44  1  0.10484345  0.96077766  0.00556529  1
  H+  H45  1  0.75691383  0.28779725  0.39355194  1
  H+  H46  1  0.23854639  0.64846147  0.32063436  1
  H+  H47  1  0.73147856  0.36210942  0.32767241  1
  H+  H48  1  0.96934651  0.87358791  0.50740396  1
  H+  H49  1  0.72445934  0.60186593  0.99329632  1
  H+  H50  1  0.62070528  0.38824020  0.67892637  1
  H+  H51  1  0.07376217  0.90783494  0.06887434  1
  H+  H52  1  0.37614766  0.54076395  0.83456473  1
  H+  H53  1  0.63739471  0.61354090  0.83549931  1
  H+  H54  1  0.64619368  1.00433261  0.82231750  1
  H+  H55  1  0.79419564  0.40070209  0.88675613  1
  H+  H56  1  0.47670843  0.09733019  0.16220624  1
  H+  H57  1  0.87050954  0.09573736  0.65898076  1
  H+  H58  1  0.41163552  0.11358458  0.31807495  1
  H+  H59  1  0.48297288  0.87989201  0.51347161  1
  H+  H60  1  0.58566774  0.59620058  0.19134218  1
  H+  H61  1  0.89045689  0.36321007  0.87090700  1
  H+  H62  1  0.52465074  0.51483614  0.23062956  1
  H+  H63  1  0.88151165  0.76216598  0.99453173  1
  H+  H64  1  0.92420029  0.79936297  0.84562940  1
  H+  H65  1  0.38547997  0.09364167  0.15985486  1
  H+  H66  1  0.91420635  0.04902682  0.97473405  1
  H+  H67  1  1.00390616  0.13206314  0.98883689  1
  H+  H68  1  0.49606086  0.90751392  -0.01105612  1
  H+  H69  1  0.28766950  0.12817805  0.83123844  1
  H+  H70  1  0.47639666  0.86389548  0.32056813  1
  H+  H71  1  0.71962097  0.86201377  0.50238171  1
  H+  H72  1  0.61503554  0.65504037  0.66877455  1
  H+  H73  1  0.14351814  0.75536735  0.52405850  1
  H+  H74  1  0.95945096  0.36208820  0.32763950  1
  H+  H75  1  0.13740164  0.00689669  0.66260494  1
  H+  H76  1  0.12291669  0.84735590  1.00422038  1
  H+  H77  1  0.77994580  0.14607822  0.49628217  1
  H+  H78  1  0.86510058  0.51897454  0.50029197  1
  H+  H79  1  0.09342010  0.46003042  0.36762896  1
  H+  H80  1  0.12715789  0.51909769  0.82777666  1
  H+  H81  1  0.29380276  0.64958796  0.50033618  1
  H+  H82  1  0.17901930  0.63688845  0.51094430  1
  H+  H83  1  0.01403297  0.38317457  0.81767753  1
  H+  H84  1  0.34048255  0.69368188  0.73353609  1
  H+  H85  1  0.23213325  0.85589620  0.68323410  1
  H+  H86  1  0.76675843  0.88268559  0.16658017  1
  H+  H87  1  0.85717155  0.73069241  0.34323310  1
  H+  H88  1  0.38852280  0.35253512  0.83322029  1
  H+  H89  1  0.39464912  0.13666295  0.41168748  1
  H+  H90  1  0.12338602  0.76629526  0.16681797  1
  H+  H91  1  0.86392290  0.73618442  0.49773050  1
  H+  H92  1  0.52474994  0.98976737  0.02802216  1
  H+  H93  1  0.57154022  0.90921286  0.08145496  1
  H+  H94  1  0.87554761  0.54097406  0.11154655  1
  H+  H95  1  0.40827008  0.38066825  0.67267534  1
  H+  H96  1  0.51713677  0.86795580  0.14149635  1
  H+  H97  1  0.47101199  0.69059289  0.28191984  1
  H+  H98  1  0.37876661  0.10357219  0.67614615  1
  H+  H99  1  0.07020501  0.40326205  0.07788831  1
  H+  H100  1  0.26381624  0.87488769  0.15877269  1
  H+  H101  1  0.38622086  0.77769545  0.32514247  1
  H+  H102  1  0.59152313  0.60174896  0.35142179  1
  H+  H103  1  0.10005917  0.37796984  0.00845876  1
  H+  H104  1  0.10555793  -0.01807171  0.33017036  1
  H+  H105  1  0.88972698  0.60205768  0.66208779  1
  H+  H106  1  0.53153095  0.39033369  0.50687666  1
  H+  H107  1  0.16186413  0.06856609  0.93013153  1
  H+  H108  1  0.86240313  0.39721157  0.50453591  1
  H+  H109  1  0.60586467  0.94322381  0.75975884  1
  H+  H110  1  0.86859078  0.89580130  0.34006705  1
  H+  H111  1  0.51224044  0.64428475  0.15815846  1
  H+  H112  1  0.34450320  0.37697966  -0.00405754  1
  H+  H113  1  0.22540124  0.10908374  0.16128946  1
  H+  H114  1  0.72698864  0.92319525  0.63513368  1
  H+  H115  1  0.52036173  0.14802003  0.65439934  1
  H+  H116  1  0.38922550  0.02053394  -0.00028950  1
  H+  H117  1  0.64415171  0.76994736  0.96697229  1
  H+  H118  1  0.76923894  0.36624371  0.14529249  1
  H+  H119  1  0.11708821  0.58921533  -0.01660186  1
  H+  H120  1  0.35153415  0.21696803  0.99606900  1
  H+  H121  1  0.05792237  0.65191497  0.08814226  1
  H+  H122  1  0.63939723  0.77935238  0.17261139  1
  H+  H123  1  0.31025233  0.10873570  0.37499581  1
  H+  H124  1  0.39566624  0.11025265  -0.00855742  1
  H+  H125  1  0.86606699  0.62050069  0.49896548  1
  H+  H126  1  0.04342202  0.50833685  0.38450575  1
  H+  H127  1  0.61918078  0.19384871  0.73605892  1
  H+  H128  1  0.38603585  0.07845348  0.84713890  1
  H+  H129  1  0.64724523  0.16467944  0.82303624  1
  H+  H130  1  0.53328174  0.38198707  0.35517923  1
  H+  H131  1  0.46748591  0.60926604  -0.01433198  1
  H+  H132  1  0.87051483  0.89192398  -0.01290745  1
  H+  H133  1  0.77760782  0.39296185  0.66960350  1
  H+  H134  1  0.36107229  0.72955331  0.14794726  1
  H+  H135  1  0.66447726  0.16501259  0.00412802  1
  H+  H136  1  0.63372805  0.51322522  0.99243415  1
  H+  H137  1  0.26393052  0.88182398  1.00952444  1
  H+  H138  1  0.11357407  0.14303361  0.50182497  1
  H+  H139  1  0.11854332  0.21607128  0.66988233  1
  H+  H140  1  0.10633280  -0.00381302  0.49399753  1
  H+  H141  1  0.76816183  0.63892686  0.34589759  1
  H+  H142  1  0.87357579  0.22512233  0.16174326  1
  H+  H143  1  0.94561939  0.33033271  0.66488124  1
  H+  H144  1  0.60615597  0.60694710  0.01320753  1
  H+  H145  1  0.71272529  0.38214376  1.00208596  1
  H+  H146  1  -0.04387364  0.61264940  0.51292145  1
  H+  H147  1  0.86768395  0.60185156  0.15988629  1
  H+  H148  1  0.85625714  0.88929404  0.49584959  1
  H+  H149  1  0.16511125  0.32746956  0.60195212  1
  H+  H150  1  0.60045715  0.21389036  0.15834823  1
  H+  H151  1  0.60771244  0.73932436  0.67481645  1
  H+  H152  1  0.10417180  0.38558379  0.81394804  1
  H+  H153  1  0.21615096  0.12218751  0.31451020  1
  H+  H154  1  0.59464841  0.41442560  0.41334024  1
  H+  H155  1  0.61855221  0.14696530  0.49656704  1
  H+  H156  1  0.13486592  0.27486679  0.17282649  1
  H+  H157  1  0.88348557  0.90551524  0.83668996  1
  H+  H158  1  0.15156306  0.36357661  0.32195381  1
  H+  H159  1  0.07880055  0.35379412  0.66664821  1
  H+  H160  1  0.37468017  0.20238057  0.13724191  1
  H+  H161  1  0.63724058  0.51257530  0.34312776  1
  H+  H162  1  0.34297956  0.13363955  0.77362141  1
  H+  H163  1  0.15186861  0.02652286  0.83858921  1
  H+  H164  1  0.26403550  0.47759541  0.72416773  1
  H+  H165  1  0.97247594  0.86677590  0.33099089  1
  H+  H166  1  0.00204105  0.61857336  0.14713317  1
  H+  H167  1  0.97145892  0.85123561  1.00060335  1
  H+  H168  1  0.16574913  0.21457917  0.02929539  1
  H+  H169  1  0.88048525  0.61416019  0.35711720  1
  H+  H170  1  0.35914450  0.49131090  0.49839336  1
  H+  H171  1  0.88546324  0.85900586  0.18471598  1
  H+  H172  1  0.40286129  0.59213352  0.21659104  1
  H+  H173  1  0.10785851  0.64360341  0.36019465  1
  H+  H174  1  0.64592454  0.03706619  0.51274901  1
  H+  H175  1  -0.01921193  0.60419781  0.66741845  1
  H+  H176  1  0.26678309  0.12205843  0.99493941  1
  H+  H177  1  0.13133412  0.09278934  0.99238483  1
  H+  H178  1  0.67314191  0.78041260  0.31509125  1
  H+  H179  1  0.00625276  0.60728026  0.37378738  1
  H+  H180  1  0.65027048  0.28235951  0.00512647  1
  H+  H181  1  0.28417922  0.89069942  0.48782502  1
  H+  H182  1  0.82210810  0.19771742  0.66790917  1
  H+  H183  1  0.84554385  0.16324826  0.10445130  1
  H+  H184  1  0.62875051  0.77283818  0.50490018  1
  H+  H185  1  0.15238320  0.11717517  0.83934605  1
  H+  H186  1  0.84080830  0.17127042  0.43790254  1
  H+  H187  1  0.39186590  0.62243042  0.51000214  1
  H+  H188  1  0.91416622  0.04786839  0.83598564  1
  H+  H189  1  0.35661488  0.96188979  0.15846707  1
  H+  H190  1  0.65198169  0.16324741  0.67772762  1
  H+  H191  1  0.36250599  0.88601614  0.33112645  1
  H+  H192  1  0.84358223  0.60638405  0.02023670  1
  H+  H193  1  0.79015917  0.87914481  0.68560997  1
  H+  H194  1  0.37768699  0.52475459  -0.01857445  1
  H+  H195  1  0.61373685  0.90915845  0.66863271  1
  H+  H196  1  0.40089809  0.26614150  0.34407232  1
  H+  H197  1  0.75048321  0.92406652  0.30530872  1
  H+  H198  1  0.73478708  0.12387153  0.17701891  1
  H+  H199  1  0.38237396  0.85607983  0.16652250  1
  H+  H200  1  0.97773256  0.11461234  0.50965253  1
  H+  H201  1  0.47873050  0.36233406  0.18647882  1
  H+  H202  1  0.22525751  0.36410602  0.16891680  1
  H+  H203  1  0.97589837  0.37022963  0.17202857  1
  H+  H204  1  0.78442137  0.46856779  0.18135380  1
  H+  H205  1  -0.00489958  0.34044485  0.02567591  1
  H+  H206  1  0.82691888  0.68947379  0.81493455  1
  H+  H207  1  0.14710103  0.10014380  0.66550178  1
  H+  H208  1  0.15139324  0.62444089  0.66185575  1
  H+  H209  1  -0.02940903  0.37053858  0.52526640  1
  H+  H210  1  0.88712628  0.11046675  0.17880981  1
  H+  H211  1  0.21420007  0.61213739  0.82954262  1
  H+  H212  1  0.39456065  0.87816801  0.50610818  1
  H+  H213  1  0.91173855  0.83178650  0.27311641  1
  H+  H214  1  0.76845788  0.64694438  0.16388800  1
  H+  H215  1  0.60980808  0.46836126  0.83119857  1
  H+  H216  1  0.86869101  0.71674788  0.67265660  1
  H+  H217  1  0.39455015  0.89584350  0.67409114  1
  H+  H218  1  0.73886051  0.10422188  0.99185811  1
  H+  H219  1  0.13709881  0.86863898  0.31889729  1
  H+  H220  1  0.49090355  0.37062631  0.67376388  1
  H+  H221  1  0.25048546  0.64593941  0.65986473  1
  H+  H222  1  0.80934616  0.19931721  0.83342114  1
  H+  H223  1  0.86740024  0.21751411  0.33499723  1
  H+  H224  1  0.89076159  0.11778601  0.51042832  1
  H+  H225  1  0.22364134  0.84152298  0.85618064  1
  H+  H226  1  0.02110379  0.13343839  0.16701330  1
  H+  H227  1  0.64503119  0.56759167  0.28368249  1
  H+  H228  1  0.63217727  0.61267527  0.50733730  1
  H+  H229  1  0.62990016  0.40877771  0.16358757  1
  H+  H230  1  0.51734582  0.63359324  0.50404161  1
  H+  H231  1  0.37106286  0.97770966  0.33006600  1
  H+  H232  1  0.26170890  0.64818011  0.99161623  1
  H+  H233  1  0.26316634  0.39586881  0.49630090  1
  H+  H234  1  0.47226411  0.61815623  0.31976041  1
  H+  H235  1  0.68706444  0.10236467  0.56886755  1
  H+  H236  1  0.04654819  0.14837112  0.82423239  1
  H+  H237  1  0.41855305  0.05919534  0.90990845  1
  H+  H238  1  0.11482508  0.48319673  0.15737762  1
  H+  H239  1  0.97658058  0.61507300  0.84938457  1
  H+  H240  1  0.10252576  0.90796061  0.48099463  1
  H+  H241  1  0.22027461  0.11913126  0.51833614  1
  H+  H242  1  0.85000863  0.34417075  0.14145092  1
  H+  H243  1  0.88366653  1.01835217  0.18296917  1
  H+  H244  1  0.15272565  0.84519521  0.53289566  1
  H+  H245  1  0.03071397  0.12812718  0.67556489  1
  H+  H246  1  0.21212924  0.36542534  0.66505648  1
  H+  H247  1  0.67426224  0.84907252  0.88461497  1
  H+  H248  1  0.89296000  0.54687347  0.31950603  1
  H+  H249  1  0.12060916  0.48704557  0.51651677  1
  H+  H250  1  0.65512063  0.37371810  0.85022806  1
  H+  H251  1  0.76944380  0.39168717  0.50082509  1
  H+  H252  1  0.52775541  0.37448240  0.83243774  1
  H+  H253  1  0.06412610  0.60375287  0.52940632  1
  H+  H254  1  0.12940636  0.88732287  0.83368185  1
  H+  H255  1  0.74813340  0.88938422  0.83293565  1
  H+  H256  1  0.39349526  0.64153858  0.66120158  1
  H+  H257  1  0.87100401  -0.02641699  0.67565314  1
  H+  H258  1  0.05616635  0.39568830  0.72176305  1
  H+  H259  1  0.22538833  0.86906472  0.31734675  1
  H+  H260  1  0.54132631  0.14452108  0.32924748  1
  H+  H261  1  0.59072223  0.46996984  0.17231654  1
  H+  H262  1  0.11762166  0.87297416  0.67894546  1
  H+  H263  1  0.74838492  0.59965066  0.82090134  1
  H+  H264  1  0.72416523  0.61923283  0.50671916  1
  H+  H265  1  0.88575153  1.01693050  0.33185626  1
  H+  H266  1  0.35589527  0.48363837  0.15051840  1
  H+  H267  1  0.64783850  0.25296874  0.82786046  1
  H+  H268  1  0.11419130  0.39226140  0.16366971  1
  H+  H269  1  0.11189871  0.13582651  0.16312496  1
  H+  H270  1  0.86076298  0.73099588  0.16542708  1
  H+  H271  1  0.33769075  0.67839713  0.40334672  1
  H+  H272  1  0.47407521  0.62652288  0.66264307  1
  H+  H273  1  0.32966029  0.97757932  0.71514366  1
  H+  H274  1  0.91324855  0.07664211  0.60287925  1
  H+  H275  1  0.89421804  0.16033808  0.00442961  1
  H+  H276  1  0.37230974  0.77953506  -0.02223705  1
  H+  H277  1  0.34828620  0.65039091  0.82409893  1
  H+  H278  1  0.66432705  0.79609426  0.34482715  1
  H+  H279  1  0.62482971  0.23793995  0.32838909  1
  H+  H280  1  0.12303199  0.75858183  1.00315866  1
  H+  H281  1  0.64853711  0.12471082  0.33298620  1
  H+  H282  1  0.04780595  0.89958792  0.83535312  1
  H+  H283  1  0.10802091  -0.02826276  0.15825161  1
  H+  H284  1  0.28016404  0.07857742  0.68177040  1
  H+  H285  1  0.88064226  0.11291295  0.32961552  1
  H+  H286  1  0.37770252  0.74297140  0.49818530  1
  H+  H287  1  0.89900297  0.85861934  0.66513157  1
  H+  H288  1  0.56672488  0.83894758  0.37166751  1
  H+  H289  1  0.40193302  0.59913498  0.89220498  1
  H+  H290  1  0.26944833  0.64334165  0.14231454  1
  H+  H291  1  0.32063335  0.41105923  0.05610130  1
  H+  H292  1  0.42333582  0.87033284  0.61085835  1
  H+  H293  1  0.16809785  0.08524312  0.22226618  1
  H+  H294  1  0.10641842  0.17129438  0.76588500  1
  H+  H295  1  0.07870902  0.65388353  0.73836733  1
  H+  H296  1  0.15735204  0.82656113  0.22703913  1
  H+  H297  1  0.06818231  0.43010246  0.46072191  1
  H+  H298  1  0.84671920  0.43816852  -0.02088565  1
  H+  H299  1  0.59764510  0.67707415  0.76477103  1
  H+  H300  1  0.72029008  0.39061095  0.22722630  1
  H+  H301  1  0.84318651  0.91006294  0.11900557  1
  H+  H302  1  0.85461459  0.27377997  0.99030777  1
  H+  H303  1  0.63667617  0.86348296  0.15218698  1
  H+  H304  1  0.17474081  0.33147530  0.26219478  1
  H+  H305  1  0.66774422  0.60312113  0.60038071  1
  H+  H306  1  0.91667371  0.83615161  0.56949027  1
  H+  H307  1  0.32879427  0.90635881  0.75982412  1
  H+  H308  1  0.62767974  0.17947116  0.06657665  1
  H+  H309  1  0.63792583  0.03357949  0.98238641  1
  H+  H310  1  0.97488212  0.85909782  0.17846171  1
  H+  H311  1  0.66738880  0.33572062  0.91172205  1
  H+  H312  1  0.58033696  0.65525914  0.10866172  1
  H+  H313  1  0.65943872  0.57702520  0.89643557  1
  H+  H314  1  0.16299607  0.34651853  0.88556229  1
  H+  H315  1  0.33918684  0.42966617  0.77208743  1
  H+  H316  1  0.33589431  0.91811661  0.42432846  1
  H+  H317  1  0.44222683  0.35595132  0.58261780  1
  H+  H318  1  0.09067566  0.90725167  0.73694219  1
  H+  H319  1  0.88404555  0.48856738  0.88945261  1
  H+  H320  1  0.83150967  0.67867412  0.43542338  1
  H+  H321  1  0.61906682  0.13632879  0.16474394  1
  H+  H322  1  0.88561332  0.31253628  0.60772900  1
  H+  H323  1  0.69801553  0.09903427  0.89512518  1
  H+  H324  1  0.59004448  0.93144029  0.44006982  1
  H+  H325  1  0.33580021  0.73495440  0.82351129  1
  H+  H326  1  0.90841682  0.33402650  0.22787651  1
  H+  H327  1  0.66314917  0.85005638  0.59262094  1
  H+  H328  1  0.92818557  0.30378517  0.88857813  1
  H+  H329  1  0.32557486  0.90712051  0.06713314  1
  H+  H330  1  0.68160010  0.34529740  0.60203117  1
  H+  H331  1  0.08696039  0.16988782  0.43944067  1
  H+  H332  1  0.85855738  0.97913793  0.49488236  1
  H+  H333  1  0.09088335  0.16729224  0.07645483  1
  H+  H334  1  0.40239268  0.29481851  0.52668272  1
  H+  H335  1  0.17290695  0.60855197  0.21525985  1
  H+  H336  1  0.56649458  0.41288851  0.06969690  1
  H+  H337  1  0.94677429  0.11693881  0.88841676  1
  H+  H338  1  0.64177796  0.28263620  0.50890038  1
  H+  H339  1  0.59698445  0.69081700  0.35154122  1
  H+  H340  1  0.82652380  0.64639521  0.72624294  1
  H+  H341  1  0.07846003  0.93255015  0.39324927  1
  H+  H342  1  0.34267208  0.50805345  0.68054365  1
  H+  H343  1  0.32467650  0.14548791  0.08177886  1
  H+  H344  1  0.19277151  0.60445930  0.57837472  1
  H+  H345  1  0.97115483  0.58022657  1.01603485  1
  H+  H346  1  0.38212139  0.84349826  0.89228980  1
  H+  H347  1  0.41746198  0.82911723  0.22400239  1
  H+  H348  1  0.81904334  0.38001707  0.07815210  1
  H+  H349  1  0.67937482  0.09793964  0.23789229  1
  H+  H350  1  0.82320245  0.65962402  0.06680021  1
  H+  H351  1  0.85779182  0.93019945  0.77403819  1
  H+  H352  1  0.51838603  0.55290132  0.04540539  1
  H+  H353  1  0.37865114  0.29468634  0.19543638  1
  H+  H354  1  0.83730821  0.92732342  0.39972375  1
  H+  H355  1  0.28059996  0.39123337  0.82828305  1
  H+  H356  1  0.47912899  0.12677939  0.48137511  1
  H+  H357  1  0.59000620  0.40767066  0.74147108  1
  H+  H358  1  0.32706682  0.68408478  0.04723686  1
  H+  H359  1  0.39062861  0.26310759  0.83414783  1
  H+  H360  1  0.06713996  0.63701152  0.46111520  1
  H+  H361  1  0.32944997  0.19863700  0.45878481  1
  H+  H362  1  0.41061298  0.58757588  0.57244977  1
  H+  H363  1  0.15636376  0.81778637  0.90977783  1
  H+  H364  1  0.86293446  0.33269956  0.32937568  1
  H+  H365  1  0.56720071  0.65182420  0.44156068  1
  H+  H366  1  0.65107780  0.37554111  0.32359410  1
  H+  H367  1  0.38920108  0.03679215  0.47654519  1
  H+  H368  1  0.59783918  0.17834168  0.43393648  1
  H+  H369  1  0.42425361  0.33091688  0.28767534  1
  H+  H370  1  0.69105514  0.89794500  0.24675319  1
  H+  H371  1  0.33104682  0.42437006  0.43360032  1
  H+  H372  1  0.15867445  0.07609601  0.57484371  1
  H+  H373  1  0.43109931  0.07994110  0.25542404  1
  H+  H374  1  0.83151731  0.93681917  0.02766207  1
  H+  H375  1  0.93157168  0.84111219  0.90978230  1
  H+  H376  1  0.91323878  0.07993531  0.26563546  1
  H+  H377  1  0.15962197  0.57301637  0.92677959  1
  H+  H378  1  0.99214821  0.71780572  0.27155437  1
  H+  H379  1  0.97533390  0.68830827  0.24471327  1
  H+  H380  1  0.18797792  0.82234972  0.61802230  1
  H+  H381  1  0.36561954  0.95396871  0.85143488  1
  H+  H382  1  0.40656351  0.32484738  0.92801552  1
  H+  H383  1  0.10325408  0.62680441  0.82884024  1
  O2-  O384  1  0.08087098  0.16711935  0.15096704  1
  O2-  O385  1  0.08484085  0.17383430  0.48424413  1
  O2-  O386  1  0.10934785  0.17698336  0.81102257  1
  O2-  O387  1  0.08271612  0.42018520  0.14616724  1
  O2-  O388  1  0.08144638  0.42611263  0.50376359  1
  O2-  O389  1  0.07256124  0.41482294  0.79977584  1
  O2-  O390  1  0.06233956  0.65342633  0.13274354  1
  O2-  O391  1  0.06198640  0.64882366  0.50572879  1
  O2-  O392  1  0.07289439  0.65821982  0.81425442  1
  O2-  O393  1  0.07376475  0.91020398  0.14619832  1
  O2-  O394  1  0.07150957  0.93820144  0.47246994  1
  O2-  O395  1  0.10450450  0.92143173  0.81553650  1
  O2-  O396  1  0.32815592  0.14459585  0.12845175  1
  O2-  O397  1  0.32708458  0.18133797  0.50113404  1
  O2-  O398  1  0.34773380  0.15304182  0.81663853  1
  O2-  O399  1  0.32883955  0.42101189  0.13915178  1
  O2-  O400  1  0.32529920  0.43014179  0.48065381  1
  O2-  O401  1  0.34202034  0.41948047  0.81589068  1
  O2-  O402  1  0.33056796  0.67016650  0.12983179  1
  O2-  O403  1  0.35184847  0.68344154  0.48103737  1
  O2-  O404  1  0.31527017  0.67734798  0.80528963  1
  O2-  O405  1  0.32420733  0.90118659  0.14371180  1
  O2-  O406  1  0.34164489  0.92597922  0.46976497  1
  O2-  O407  1  0.32766155  0.88810289  0.83489113  1
  O2-  O408  1  0.58106160  0.15605655  0.14341668  1
  O2-  O409  1  0.58990920  0.17726530  0.47851121  1
  O2-  O410  1  0.62103940  0.19679661  0.80615548  1
  O2-  O411  1  0.57902867  0.41442420  0.15387901  1
  O2-  O412  1  0.59193302  0.41806001  0.48712405  1
  O2-  O413  1  0.58954311  0.40709950  0.82078557  1
  O2-  O414  1  0.57544729  0.66661957  0.15266500  1
  O2-  O415  1  0.57624536  0.66452792  0.48579647  1
  O2-  O416  1  0.61399753  0.68142105  0.80826383  1
  O2-  O417  1  0.57307464  0.88593917  0.12169624  1
  O2-  O418  1  0.59029312  0.93271015  0.48490710  1
  O2-  O419  1  0.61472814  0.94291756  0.80578124  1
  O2-  O420  1  0.84461005  0.16357051  0.14976706  1
  O2-  O421  1  0.84155476  0.17610380  0.48264832  1
  O2-  O422  1  0.78529382  0.13658573  0.82950851  1
  O2-  O423  1  0.80051942  0.34364544  0.11752396  1
  O2-  O424  1  0.83146255  0.42463162  0.48471966  1
  O2-  O425  1  0.85428136  0.42650562  0.90312958  1
  O2-  O426  1  0.82595827  0.67190345  0.14685731  1
  O2-  O427  1  0.83319255  0.67563168  0.48126522  1
  O2-  O428  1  0.81010814  0.63040863  0.80525972  1
  O2-  O429  1  0.83330599  0.91268742  0.16219463  1
  O2-  O430  1  0.82755566  0.91949639  0.47765599  1
  O2-  O431  1  0.85392110  0.93449381  0.81896264  1
  O2-  O432  1  0.16553099  0.08285684  0.17708788  1
  O2-  O433  1  0.15800976  0.08527455  0.52923547  1
  O2-  O434  1  0.17892816  0.08473889  0.85776375  1
  O2-  O435  1  0.16628023  0.33594680  0.18724198  1
  O2-  O436  1  0.16978915  0.34102928  0.52151809  1
  O2-  O437  1  0.16756458  0.34317606  0.84118943  1
  O2-  O438  1  0.16324825  0.59022681  0.17217912  1
  O2-  O439  1  0.19217332  0.59565356  0.52953391  1
  O2-  O440  1  0.15467317  0.57735045  0.84663865  1
  O2-  O441  1  0.15602487  0.82654904  0.18092615  1
  O2-  O442  1  0.18582287  0.81595274  0.53474324  1
  O2-  O443  1  0.16146406  0.82035702  0.86465242  1
  O2-  O444  1  0.41659738  0.06726591  0.17914947  1
  O2-  O445  1  0.41616037  0.10072925  0.47357048  1
  O2-  O446  1  0.40736987  0.04241537  0.86555290  1
  O2-  O447  1  0.42417206  0.35188148  0.20693249  1
  O2-  O448  1  0.44286369  0.35504950  0.53665959  1
  O2-  O449  1  0.41711775  0.32249399  0.85133352  1
  O2-  O450  1  0.40426500  0.58718962  0.17188900  1
  O2-  O451  1  0.41189936  0.58336645  0.52653661  1
  O2-  O452  1  0.39338548  0.59955144  0.84737319  1
  O2-  O453  1  0.41536404  0.82714532  0.17890869  1
  O2-  O454  1  0.42214215  0.84917084  0.52740146  1
  O2-  O455  1  0.37696753  0.84410196  0.84575389  1
  O2-  O456  1  0.67676025  0.10386396  0.19352046  1
  O2-  O457  1  0.67772975  0.09925894  0.52406880  1
  O2-  O458  1  0.69541044  0.10076172  0.84883943  1
  O2-  O459  1  0.73157052  0.40955469  0.18380973  1
  O2-  O460  1  0.67470466  0.34276632  0.52419114  1
  O2-  O461  1  0.68762343  0.34737206  0.86872416  1
  O2-  O462  1  0.58363628  0.54682889  0.21564345  1
  O2-  O463  1  0.66429915  0.58384102  0.52122031  1
  O2-  O464  1  0.65712285  0.57309573  0.85140407  1
  O2-  O465  1  0.67131069  0.84287197  0.17723767  1
  O2-  O466  1  0.65930809  0.83467797  0.51776662  1
  O2-  O467  1  0.68425607  0.86042264  0.83944755  1
  O2-  O468  1  0.91573278  0.07935523  0.19764719  1
  O2-  O469  1  0.91683839  0.08286528  0.52390642  1
  O2-  O470  1  0.95008638  0.11012755  0.84429400  1
  O2-  O471  1  0.91391658  0.33376837  0.18269820  1
  O2-  O472  1  0.90694157  0.33894020  0.52944146  1
  O2-  O473  1  0.90933309  0.32335127  0.85371583  1
  O2-  O474  1  0.88003238  0.55395725  0.15752457  1
  O2-  O475  1  0.89168886  0.58217777  0.51500307  1
  O2-  O476  1  0.92419152  0.59263829  0.87558578  1
  O2-  O477  1  0.91540558  0.82702689  0.19629939  1
  O2-  O478  1  0.91047597  0.83783134  0.52407453  1
  O2-  O479  1  0.94237473  0.85456196  0.86483200  1
  O2-  O480  1  0.15691889  0.08883841  0.30067423  1
  O2-  O481  1  0.17241904  0.06703050  0.64717585  1
  O2-  O482  1  0.15897699  0.06155846  0.97614926  1
  O2-  O483  1  0.17597112  0.32877643  0.30819261  1
  O2-  O484  1  0.15776276  0.31996813  0.64664442  1
  O2-  O485  1  0.15525892  0.34953592  0.97191357  1
  O2-  O486  1  0.18250970  0.62931765  0.29927225  1
  O2-  O487  1  0.19210704  0.60970620  0.64163214  1
  O2-  O488  1  0.15968138  0.57265477  0.97193154  1
  O2-  O489  1  0.16574158  0.83877263  0.30174000  1
  O2-  O490  1  0.17521942  0.82283500  0.66158884  1
  O2-  O491  1  0.15492419  0.81843420  0.98933237  1
  O2-  O492  1  0.43918093  0.08261577  0.30075743  1
  O2-  O493  1  0.46545458  0.12735622  0.63142794  1
  O2-  O494  1  0.42696269  0.07926597  0.98337179  1
  O2-  O495  1  0.42438337  0.32694488  0.33269087  1
  O2-  O496  1  0.43045230  0.34543788  0.65636244  1
  O2-  O497  1  0.39885767  0.32425527  0.97348904  1
  O2-  O498  1  0.43350953  0.63112064  0.29463545  1
  O2-  O499  1  0.41346248  0.60101688  0.64731393  1
  O2-  O500  1  0.41075981  0.58420549  0.96682250  1
  O2-  O501  1  0.41681806  0.83521245  0.30486319  1
  O2-  O502  1  0.42983559  0.87281887  0.65574713  1
  O2-  O503  1  0.40201774  0.84238376  0.96192933  1
  O2-  O504  1  0.67768874  0.09139478  0.32099522  1
  O2-  O505  1  0.70583262  0.10658915  0.64751221  1
  O2-  O506  1  0.68709322  0.09018496  0.96813341  1
  O2-  O507  1  0.68185068  0.35037453  0.30137379  1
  O2-  O508  1  0.68733400  0.34770577  0.64720255  1
  O2-  O509  1  0.65419483  0.33791533  0.98980090  1
  O2-  O510  1  0.65990002  0.57333386  0.32754828  1
  O2-  O511  1  0.67316498  0.62243845  0.64307158  1
  O2-  O512  1  0.66409145  0.57380082  0.97745448  1
  O2-  O513  1  0.70922800  0.93520246  0.28361463  1
  O2-  O514  1  0.67431659  0.86758949  0.63680661  1
  O2-  O515  1  0.66893417  0.83063370  0.95724820  1
  O2-  O516  1  0.91428014  0.08159094  0.31334023  1
  O2-  O517  1  0.90808656  0.07213613  0.64815062  1
  O2-  O518  1  0.94621599  0.11257444  0.97208789  1
  O2-  O519  1  0.90494619  0.32073829  0.30786126  1
  O2-  O520  1  0.88241054  0.30596009  0.65272379  1
  O2-  O521  1  0.89035377  0.26790395  1.02166040  1
  O2-  O522  1  0.90656294  0.57631513  0.35853495  1
  O2-  O523  1  0.92089332  0.57085569  0.65065730  1
  O2-  O524  1  0.87562538  0.53190023  1.04018429  1
  O2-  O525  1  0.91030211  0.83633056  0.31848483  1
  O2-  O526  1  0.92418307  0.82592570  0.64618727  1
  O2-  O527  1  0.91203059  0.82376364  0.98221146  1
  O2-  O528  1  0.10456053  0.17260400  0.03131582  1
  O2-  O529  1  0.08398950  0.16790799  0.35494054  1
  O2-  O530  1  0.09214162  0.15611812  0.68623916  1
  O2-  O531  1  0.05611756  0.38825339  0.03207920  1
  O2-  O532  1  0.03854134  0.44995632  0.38348538  1
  O2-  O533  1  0.04369462  0.37983012  0.67811933  1
  O2-  O534  1  0.03197360  0.62241418  0.00001119  1
  O2-  O535  1  0.06122150  0.61147072  0.38975771  1
  O2-  O536  1  0.08235870  0.65520751  0.69267420  1
  O2-  O537  1  0.07200339  0.90162509  0.02349675  1
  O2-  O538  1  0.07727585  0.92377046  0.34857414  1
  O2-  O539  1  0.08585377  0.90286893  0.69164061  1
  O2-  O540  1  0.32633380  0.15656382  0.01132582  1
  O2-  O541  1  0.37013628  0.15452356  0.37633052  1
  O2-  O542  1  0.32745177  0.07763611  0.70382066  1
  O2-  O543  1  0.31408975  0.40731352  0.01126067  1
  O2-  O544  1  0.33848584  0.41141499  0.36747228  1
  O2-  O545  1  0.29664602  0.45595642  0.70250398  1
  O2-  O546  1  0.32233389  0.69028729  0.00320796  1
  O2-  O547  1  0.33204415  0.67765527  0.35793005  1
  O2-  O548  1  0.35058273  0.69964428  0.68800414  1
  O2-  O549  1  0.32522039  0.91379763  0.02196135  1
  O2-  O550  1  0.33529844  0.91882647  0.34706114  1
  O2-  O551  1  0.32597684  0.92039055  0.71577926  1
  O2-  O552  1  0.66369164  0.20878595  0.03091300  1
  O2-  O553  1  0.59953759  0.18040435  0.34800655  1
  O2-  O554  1  0.61800203  0.19029484  0.68934703  1
  O2-  O555  1  0.56385737  0.41057243  0.02475894  1
  O2-  O556  1  0.59486829  0.41401261  0.36706191  1
  O2-  O557  1  0.58688336  0.41224832  0.69669768  1
  O2-  O558  1  0.56087701  0.61268651  0.03692176  1
  O2-  O559  1  0.55709944  0.63053036  0.36274858  1
  O2-  O560  1  0.57798368  0.67869363  0.68621341  1
  O2-  O561  1  0.54756358  0.95480860  0.01161386  1
  O2-  O562  1  0.58146830  0.89586296  0.35680192  1
  O2-  O563  1  0.59382229  0.94561763  0.68909336  1
  O2-  O564  1  0.85213823  0.17330481  0.02596534  1
  O2-  O565  1  0.84026228  0.15806610  0.35267254  1
  O2-  O566  1  0.79161995  0.13316302  0.67317302  1
  O2-  O567  1  0.82771858  0.43863446  0.02250450  1
  O2-  O568  1  0.79700577  0.34507130  0.37810494  1
  O2-  O569  1  0.84054459  0.42081136  0.68557543  1
  O2-  O570  1  0.82579194  0.65123697  0.02238912  1
  O2-  O571  1  0.82841944  0.67158772  0.36130172  1
  O2-  O572  1  0.83532660  0.65402766  0.68152884  1
  O2-  O573  1  0.84562239  0.93104662  -0.01410040  1
  O2-  O574  1  0.84411894  0.93299041  0.35420111  1
  O2-  O575  1  0.85105919  0.91555059  0.69516987  1
