# generated using pymatgen
data_H2O
_symmetry_space_group_name_H-M   'P 1'
_cell_length_a   18.00414845
_cell_length_b   18.00535667
_cell_length_c   22.00711806
_cell_angle_alpha   90.01365756
_cell_angle_beta   90.00294472
_cell_angle_gamma   119.98722232
_symmetry_Int_Tables_number   1
_chemical_formula_structural   H2O
_chemical_formula_sum   'H384 O192'
_cell_volume   6179.08261665
_cell_formula_units_Z   192
loop_
 _symmetry_equiv_pos_site_id
 _symmetry_equiv_pos_as_xyz
  1  'x, y, z'
loop_
 _atom_type_symbol
 _atom_type_oxidation_number
  H+  1.0
  O2-  -2.0
loop_
 _atom_site_type_symbol
 _atom_site_label
 _atom_site_symmetry_multiplicity
 _atom_site_fract_x
 _atom_site_fract_y
 _atom_site_fract_z
 _atom_site_occupancy
  H+  H0  1  0.02048247  0.38151779  0.33204296  1
  H+  H1  1  0.60725872  0.13444087  0.49322820  1
  H+  H2  1  0.13769934  0.61933488  0.82940202  1
  H+  H3  1  0.37036129  0.23558000  0.50577911  1
  H+  H4  1  0.64595041  0.02994239  0.31614867  1
  H+  H5  1  0.36836698  0.84485004  0.67310978  1
  H+  H6  1  0.60946171  0.12266985  0.83092120  1
  H+  H7  1  0.67501406  0.57910763  0.72614041  1
  H+  H8  1  0.38740162  0.10915093  0.81529529  1
  H+  H9  1  0.03515248  0.39709296  0.67851369  1
  H+  H10  1  0.39507843  0.81113003  0.61504437  1
  H+  H11  1  0.87571621  0.23871239  0.83788999  1
  H+  H12  1  0.23710144  0.37202520  0.68580999  1
  H+  H13  1  0.60615508  0.37268718  0.49961022  1
  H+  H14  1  0.73470211  0.62280113  0.80583709  1
  H+  H15  1  0.66635447  0.08099674  0.90937628  1
  H+  H16  1  0.52306063  0.39780417  0.17158225  1
  H+  H17  1  0.39873974  0.80265018  0.99606978  1
  H+  H18  1  0.89252483  0.77021082  0.84428006  1
  H+  H19  1  0.39667018  0.12118645  0.17430899  1
  H+  H20  1  0.15203287  0.06555466  0.73703411  1
  H+  H21  1  0.73043451  0.11078247  0.85328061  1
  H+  H22  1  0.35644691  0.21894097  0.79536713  1
  H+  H23  1  0.72383378  0.35875025  0.66618213  1
  H+  H24  1  0.60417078  0.23154764  0.15023487  1
  H+  H25  1  0.61888633  0.21999256  0.67569270  1
  H+  H26  1  0.83084890  0.66290704  0.10258019  1
  H+  H27  1  0.36264184  0.48185891  0.49738623  1
  H+  H28  1  0.64234235  0.28383295  0.98991461  1
  H+  H29  1  0.61501903  0.88893129  0.31523869  1
  H+  H30  1  0.59424239  0.74061160  1.02031214  1
  H+  H31  1  0.62064528  0.77329503  0.65608174  1
  H+  H32  1  0.36019974  0.90261502  0.99808209  1
  H+  H33  1  0.61236631  0.46285239  0.68200948  1
  H+  H34  1  0.04494134  0.15585653  0.66809349  1
  H+  H35  1  0.08942685  0.95277255  0.15402071  1
  H+  H36  1  0.22711858  0.86099169  0.49403374  1
  H+  H37  1  0.88482076  0.57682517  0.56886041  1
  H+  H38  1  0.63769051  0.03328658  1.00281699  1
  H+  H39  1  0.10859902  0.96108462  0.80395831  1
  H+  H40  1  0.89714481  -0.01461421  0.68997898  1
  H+  H41  1  0.11832153  0.47543887  0.83127946  1
  H+  H42  1  0.67921627  0.08975753  0.22807874  1
  H+  H43  1  0.85248161  0.88174097  0.15853532  1
  H+  H44  1  0.84657011  0.12517313  0.66342289  1
  H+  H45  1  0.85788710  0.40338128  0.17651371  1
  H+  H46  1  0.09041036  0.66617881  0.75682424  1
  H+  H47  1  0.71699452  0.10891180  0.50612050  1
  H+  H48  1  0.52174322  0.87972356  0.16852801  1
  H+  H49  1  0.02530431  0.62995131  0.81375474  1
  H+  H50  1  0.11165562  0.14139331  0.34904650  1
  H+  H51  1  0.26838405  0.87941093  0.83299421  1
  H+  H52  1  0.60730854  0.88101080  0.47891318  1
  H+  H53  1  0.60913936  0.88898957  0.67113660  1
  H+  H54  1  0.90787089  0.13283186  0.84854776  1
  H+  H55  1  0.35390430  0.46892584  0.15833360  1
  H+  H56  1  0.62871287  0.51794194  0.33193219  1
  H+  H57  1  0.64373438  0.11808794  0.32186914  1
  H+  H58  1  0.15272388  0.28011886  0.83089832  1
  H+  H59  1  0.88345489  0.27579325  0.32490310  1
  H+  H60  1  0.46724251  0.87114873  0.53718220  1
  H+  H61  1  0.10683971  0.37685025  0.16508819  1
  H+  H62  1  0.29049918  0.14904452  0.35109987  1
  H+  H63  1  0.85667744  0.97204193  0.15771353  1
  H+  H64  1  0.89718842  0.82401604  0.23443631  1
  H+  H65  1  0.72534241  0.36062290  0.51036063  1
  H+  H66  1  0.62304380  0.35390835  0.32971728  1
  H+  H67  1  0.12802243  0.76102597  0.99693645  1
  H+  H68  1  0.37553692  0.87822355  0.32561472  1
  H+  H69  1  0.23373930  0.59005510  1.00406868  1
  H+  H70  1  0.09418543  0.86629461  0.16081825  1
  H+  H71  1  0.20731726  0.60157291  0.17006461  1
  H+  H72  1  0.89151854  0.64474525  0.17839095  1
  H+  H73  1  0.42498576  0.08963799  0.26946908  1
  H+  H74  1  0.91033985  0.87213729  0.99664588  1
  H+  H75  1  0.73378342  0.58120540  0.67097184  1
  H+  H76  1  0.17130643  0.74602936  0.32235763  1
  H+  H77  1  0.35259755  0.63992268  0.33168204  1
  H+  H78  1  0.10947862  0.22834778  0.34617186  1
  H+  H79  1  1.04808666  0.89438636  0.66711233  1
  H+  H80  1  0.18498547  0.81196700  0.58711008  1
  H+  H81  1  -0.00888162  0.64447343  0.17900764  1
  H+  H82  1  0.62704783  0.87651137  0.99551766  1
  H+  H83  1  0.47792686  0.36424752  0.52238650  1
  H+  H84  1  0.89134999  0.36785040  0.84045753  1
  H+  H85  1  0.40613693  0.33061730  0.62587298  1
  H+  H86  1  0.77166228  0.12989306  0.00567065  1
  H+  H87  1  0.38460594  0.27260163  0.68713523  1
  H+  H88  1  0.17439101  0.07803022  0.11276543  1
  H+  H89  1  0.28057080  0.38742911  0.80143641  1
  H+  H90  1  0.37867002  0.19513019  0.09019743  1
  H+  H91  1  0.62458312  0.60514625  0.32877202  1
  H+  H92  1  0.89696244  0.10422541  0.64719366  1
  H+  H93  1  0.92529616  0.61205396  0.24326273  1
  H+  H94  1  0.50612821  0.62797086  0.33077408  1
  H+  H95  1  0.86782803  0.74449502  0.66976226  1
  H+  H96  1  0.28150980  0.91057563  0.31038835  1
  H+  H97  1  0.00299173  0.62849931  0.01767139  1
  H+  H98  1  0.35601658  0.72046595  0.68062856  1
  H+  H99  1  0.52075423  0.38722708  0.34667028  1
  H+  H100  1  0.84377046  0.96766125  0.33954688  1
  H+  H101  1  0.86196624  0.23411469  0.49994410  1
  H+  H102  1  0.61300939  0.48090338  0.97958465  1
  H+  H103  1  0.34222094  0.66537695  0.76826780  1
  H+  H104  1  0.74324664  0.61874439  -0.01311791  1
  H+  H105  1  0.12328213  0.88312862  0.00744771  1
  H+  H106  1  0.86319553  0.62094474  0.66063059  1
  H+  H107  1  0.71126088  0.85197128  0.29860045  1
  H+  H108  1  0.85129322  0.85953565  0.65697026  1
  H+  H109  1  0.03963589  0.90333364  0.49135467  1
  H+  H110  1  0.37464744  0.65090140  0.48225371  1
  H+  H111  1  0.31952101  0.67064868  -0.01470537  1
  H+  H112  1  0.63196704  0.35058175  0.66089776  1
  H+  H113  1  0.09326008  0.17203764  0.44012325  1
  H+  H114  1  0.61117850  0.22514454  0.49438311  1
  H+  H115  1  0.87869033  0.09741652  -0.00826943  1
  H+  H116  1  0.13124985  0.26770982  0.17942221  1
  H+  H117  1  0.17649731  0.93365262  0.32865713  1
  H+  H118  1  0.90705262  0.36196479  1.00342534  1
  H+  H119  1  0.51940022  0.37657468  0.67941391  1
  H+  H120  1  0.58006031  0.17097915  0.06068720  1
  H+  H121  1  0.11257910  0.12834710  0.81009116  1
  H+  H122  1  -0.00689110  0.57798640  0.36016798  1
  H+  H123  1  0.16501973  0.02876610  1.02880444  1
  H+  H124  1  0.62607420  0.33954809  0.83223452  1
  H+  H125  1  0.81602675  0.90223538  0.43015770  1
  H+  H126  1  0.97335252  0.37742036  0.50528509  1
  H+  H127  1  0.13194655  0.76652833  0.17358051  1
  H+  H128  1  0.40047146  0.77906250  0.51026684  1
  H+  H129  1  0.13047110  0.24913635  0.67966025  1
  H+  H130  1  0.87632851  0.60661398  0.32887647  1
  H+  H131  1  0.37413906  0.10661768  0.67066877  1
  H+  H132  1  0.01778275  0.35971332  0.00927839  1
  H+  H133  1  0.45518516  0.76388418  0.20588425  1
  H+  H134  1  0.61157902  0.39181664  0.98338463  1
  H+  H135  1  0.83041151  0.51938188  0.66469378  1
  H+  H136  1  0.51384004  0.64600487  0.02085100  1
  H+  H137  1  0.81463015  0.40999161  0.86502868  1
  H+  H138  1  0.62068356  0.76863766  0.49783450  1
  H+  H139  1  0.65885717  0.59318128  0.55550210  1
  H+  H140  1  0.10607084  0.48595025  1.00585041  1
  H+  H141  1  0.61411467  0.97700911  0.83112137  1
  H+  H142  1  0.88378990  0.42583736  1.08676037  1
  H+  H143  1  0.85802336  0.75411037  0.32886555  1
  H+  H144  1  0.12567317  0.48337145  0.67956873  1
  H+  H145  1  1.00235208  0.12828476  0.84164751  1
  H+  H146  1  0.13218257  0.72090382  0.65922411  1
  H+  H147  1  0.13582759  0.35861249  0.32969154  1
  H+  H148  1  0.38360083  0.24049035  -0.00452078  1
  H+  H149  1  0.87026867  0.63538229  0.81942061  1
  H+  H150  1  0.13390285  0.76448600  0.83611310  1
  H+  H151  1  0.52487338  0.90573686  1.01299909  1
  H+  H152  1  0.28076464  0.14851246  0.50138558  1
  H+  H153  1  0.14976095  0.36756051  0.82916762  1
  H+  H154  1  0.35179453  0.97035593  0.67717620  1
  H+  H155  1  0.86636341  0.40847745  0.68500087  1
  H+  H156  1  0.99837837  0.87104262  0.99537079  1
  H+  H157  1  0.62550810  0.76702581  0.20142258  1
  H+  H158  1  0.37167295  0.46454641  0.00907497  1
  H+  H159  1  0.35497540  0.97891332  0.48587107  1
  H+  H160  1  0.47388660  0.10641790  0.82710135  1
  H+  H161  1  0.87646454  0.72507879  1.01539841  1
  H+  H162  1  0.98024212  0.36242727  0.83967290  1
  H+  H163  1  0.87285045  0.63187696  0.02179232  1
  H+  H164  1  0.14251046  0.27849142  0.50090548  1
  H+  H165  1  0.09385078  0.62524310  1.01732858  1
  H+  H166  1  0.26364390  0.38515164  0.49137884  1
  H+  H167  1  0.60847670  0.72782166  0.82523039  1
  H+  H168  1  0.10570427  0.72078664  0.49777157  1
  H+  H169  1  0.52346260  0.89021230  0.82631577  1
  H+  H170  1  0.02096771  0.87712590  0.82696400  1
  H+  H171  1  0.26976832  0.38089058  0.34589321  1
  H+  H172  1  0.08979643  0.42048769  0.77004721  1
  H+  H173  1  0.46342461  0.59983578  0.50642548  1
  H+  H174  1  0.36226040  0.63207238  0.67707437  1
  H+  H175  1  0.72053355  0.61688792  0.17537813  1
  H+  H176  1  0.75158934  0.10962696  0.16075945  1
  H+  H177  1  0.97033377  0.11133435  0.33643170  1
  H+  H178  1  0.84984824  0.72337060  0.16198561  1
  H+  H179  1  0.13146906  0.85184474  0.83909314  1
  H+  H180  1  0.88108100  0.36286085  0.31928263  1
  H+  H181  1  0.77378080  0.14188005  0.33785421  1
  H+  H182  1  0.36166361  0.38423224  0.34609544  1
  H+  H183  1  0.85571033  0.11455682  0.15907401  1
  H+  H184  1  0.37604232  0.51885145  0.32608868  1
  H+  H185  1  0.22197486  0.10020861  0.78645176  1
  H+  H186  1  0.37090826  0.60256475  0.16887245  1
  H+  H187  1  0.38130919  0.36509961  0.17936206  1
  H+  H188  1  0.24073597  0.84165969  0.65064666  1
  H+  H189  1  0.62976123  1.01997607  0.49622748  1
  H+  H190  1  0.10985078  0.12835684  0.02923470  1
  H+  H191  1  0.14152424  0.60722361  0.66322221  1
  H+  H192  1  0.38447516  0.35140793  0.82392618  1
  H+  H193  1  0.14279587  0.36758939  0.49401306  1
  H+  H194  1  0.52915864  0.14199035  -0.00354315  1
  H+  H195  1  0.14976183  0.03804916  0.51575073  1
  H+  H196  1  0.86215947  0.73613113  0.48785077  1
  H+  H197  1  0.58072508  0.92288546  0.07452568  1
  H+  H198  1  0.25285812  0.12298908  1.02933334  1
  H+  H199  1  0.93853338  0.84657874  0.33724411  1
  H+  H200  1  0.96038079  0.35862104  0.16483291  1
  H+  H201  1  0.61910777  0.10437512  0.66011317  1
  H+  H202  1  0.39012520  0.77418336  0.84110050  1
  H+  H203  1  0.71896835  0.34607087  0.82571538  1
  H+  H204  1  0.13733900  0.51428925  0.32092073  1
  H+  H205  1  0.62680642  0.26527030  0.32775533  1
  H+  H206  1  0.85128789  0.22287773  0.67009846  1
  H+  H207  1  0.74977315  0.37523792  0.31915161  1
  H+  H208  1  0.41738964  0.57047391  0.93487003  1
  H+  H209  1  0.95874772  0.84999982  0.17544695  1
  H+  H210  1  0.14823997  0.36360306  -0.01223890  1
  H+  H211  1  0.28132776  0.63823421  0.82553652  1
  H+  H212  1  0.86417638  0.21410284  0.00663059  1
  H+  H213  1  0.30787288  0.16945718  0.13838206  1
  H+  H214  1  0.61188996  0.48302076  0.16587063  1
  H+  H215  1  0.63930629  0.01962111  0.17313607  1
  H+  H216  1  0.40028449  0.28724653  0.17669522  1
  H+  H217  1  0.01749182  0.11681170  0.01512305  1
  H+  H218  1  0.38804132  0.60810591  0.83924012  1
  H+  H219  1  0.13626621  0.61348626  0.51943333  1
  H+  H220  1  0.77039946  0.87743687  0.83091351  1
  H+  H221  1  0.38899475  0.35680061  0.98159389  1
  H+  H222  1  0.61125663  0.21212627  0.82616633  1
  H+  H223  1  0.40070275  0.11841214  0.33254861  1
  H+  H224  1  0.82176469  0.66494162  0.39780914  1
  H+  H225  1  0.71287786  0.87253392  -0.00674393  1
  H+  H226  1  -0.03480628  0.60845801  0.52118689  1
  H+  H227  1  0.38005149  1.02499124  0.17188408  1
  H+  H228  1  0.89591814  0.86745124  0.49721385  1
  H+  H229  1  0.23172079  0.60830982  0.66687161  1
  H+  H230  1  0.53084608  0.13503226  0.33952843  1
  H+  H231  1  0.07631259  0.39348959  0.07004565  1
  H+  H232  1  0.26570089  0.88940420  0.99781620  1
  H+  H233  1  0.09877364  0.49722754  0.48822896  1
  H+  H234  1  0.47618584  0.60573607  0.65994442  1
  H+  H235  1  0.47250090  0.11206027  0.50983996  1
  H+  H236  1  0.08337096  0.90174889  0.06735302  1
  H+  H237  1  0.61280383  0.46261803  0.50507514  1
  H+  H238  1  0.62608801  0.36521384  0.17208631  1
  H+  H239  1  0.07812459  0.89999931  0.33357434  1
  H+  H240  1  0.38381193  0.86075292  0.84054982  1
  H+  H241  1  0.13201709  0.73118568  0.30297197  1
  H+  H242  1  0.38744043  0.11735532  0.51052438  1
  H+  H243  1  0.38442394  0.15061465  0.99678401  1
  H+  H244  1  0.86497692  0.48285527  0.50805105  1
  H+  H245  1  0.89353330  0.29747666  0.65997626  1
  H+  H246  1  0.46527752  0.85312340  0.31762881  1
  H+  H247  1  0.48238050  0.36694518  0.96992732  1
  H+  H248  1  0.34863241  0.71203057  0.15627193  1
  H+  H249  1  0.12296741  0.14538977  0.50264987  1
  H+  H250  1  0.91350225  0.08054771  0.44268104  1
  H+  H251  1  0.86210763  0.14613094  0.49214021  1
  H+  H252  1  0.78973685  0.63847164  0.49830143  1
  H+  H253  1  0.10296353  0.46363370  0.15967633  1
  H+  H254  1  0.35500738  0.73113878  0.32875395  1
  H+  H255  1  0.79065169  0.83308141  0.01849092  1
  H+  H256  1  0.15703547  0.04192614  0.33216406  1
  H+  H257  1  0.39257193  0.27870438  0.33513088  1
  H+  H258  1  0.91093234  0.49018706  0.03318158  1
  H+  H259  1  0.61519226  0.63938469  0.67543334  1
  H+  H260  1  0.60511320  0.64304628  0.17171663  1
  H+  H261  1  0.36844442  0.38571871  0.70679213  1
  H+  H262  1  0.09741898  0.62470056  0.16292523  1
  H+  H263  1  0.63938837  0.12365075  0.99691998  1
  H+  H264  1  0.87656478  1.00709566  -0.01379658  1
  H+  H265  1  0.86722939  0.51544145  0.31222327  1
  H+  H266  1  0.64385505  0.62151213  0.80448831  1
  H+  H267  1  0.96906886  0.10703950  0.18171941  1
  H+  H268  1  0.39064705  0.36645038  0.52151090  1
  H+  H269  1  0.76094370  0.62711280  0.33929782  1
  H+  H270  1  0.88240500  0.11470754  0.33520094  1
  H+  H271  1  0.59882892  0.63525693  0.47518843  1
  H+  H272  1  0.09935250  0.13018039  0.16509093  1
  H+  H273  1  0.88303908  0.36446890  0.52067013  1
  H+  H274  1  0.15105273  0.37430430  0.67384422  1
  H+  H275  1  0.21897531  0.61043304  0.32385006  1
  H+  H276  1  0.37093496  0.58381441  -0.00843693  1
  H+  H277  1  0.07109432  0.66034120  0.10292889  1
  H+  H278  1  0.39078561  0.52144304  0.83079642  1
  H+  H279  1  0.85279512  0.96215153  0.48813870  1
  H+  H280  1  0.61234692  0.99352176  0.66555190  1
  H+  H281  1  0.64910910  0.32448932  0.22797965  1
  H+  H282  1  0.71262974  0.85367300  0.50108960  1
  H+  H283  1  0.35692747  0.97028619  0.82768358  1
  H+  H284  1  0.24616098  0.13444232  0.67327369  1
  H+  H285  1  0.63177889  0.86132080  0.83774363  1
  H+  H286  1  0.38423726  1.03149787  -0.02114811  1
  H+  H287  1  0.26430245  0.89445776  0.14783851  1
  H+  H288  1  0.39777089  0.07628949  0.60818414  1
  H+  H289  1  0.22166302  0.35587989  0.17545200  1
  H+  H290  1  0.78824450  0.78539291  0.61231164  1
  H+  H291  1  0.82649228  0.14313479  0.09488811  1
  H+  H292  1  0.90712284  0.33043373  0.22473743  1
  H+  H293  1  0.41561511  0.33776823  0.27480568  1
  H+  H294  1  0.92970893  0.07387332  0.59013463  1
  H+  H295  1  0.52246498  0.13792069  0.15323210  1
  H+  H296  1  0.08381348  0.58319313  0.35601375  1
  H+  H297  1  0.85935157  0.87813786  0.83472053  1
  H+  H298  1  0.82843164  0.17502935  0.39995488  1
  H+  H299  1  0.61312311  0.88842740  0.17253732  1
  H+  H300  1  0.10970897  0.93773036  0.43778359  1
  H+  H301  1  0.06458744  0.63922024  0.45203547  1
  H+  H302  1  0.06256832  0.86954710  0.73322108  1
  H+  H303  1  0.40835181  0.56596118  0.56920805  1
  H+  H304  1  0.69945844  0.54515230  0.58582994  1
  H+  H305  1  0.16672274  0.57290689  0.57065033  1
  H+  H306  1  0.58857891  0.15757491  0.73460648  1
  H+  H307  1  0.11078699  0.53785944  0.94674229  1
  H+  H308  1  0.18400228  0.11354231  0.28085222  1
  H+  H309  1  0.57365689  0.68268868  0.11833211  1
  H+  H310  1  0.66883314  0.33072055  0.92736321  1
  H+  H311  1  0.18025609  0.09809517  0.57582661  1
  H+  H312  1  0.66308143  0.58684244  0.23571410  1
  H+  H313  1  0.70507388  0.59875990  0.92078399  1
  H+  H314  1  0.93252236  0.08821196  0.90706839  1
  H+  H315  1  0.83633697  0.87510105  0.33638133  1
  H+  H316  1  0.95802762  0.76320549  0.69141683  1
  H+  H317  1  0.32942196  0.40604299  0.10049196  1
  H+  H318  1  0.07580181  0.41855723  0.39207716  1
  H+  H319  1  0.56123892  0.66372021  0.42202388  1
  H+  H320  1  0.90498207  0.07405452  0.23892157  1
  H+  H321  1  0.59798647  0.92044626  0.37908391  1
  H+  H322  1  0.89208215  0.51003415  0.83172183  1
  H+  H323  1  0.16026081  0.06763550  0.90394394  1
  H+  H324  1  0.98533443  0.11784158  0.49149089  1
  H+  H325  1  0.33319387  0.41728204  0.43144973  1
  H+  H326  1  0.52051520  0.87535177  0.45724863  1
  H+  H327  1  0.66673049  0.32704737  0.56978121  1
  H+  H328  1  0.59560130  0.71516045  0.32482944  1
  H+  H329  1  0.46423649  0.61081800  0.17577081  1
  H+  H330  1  0.58890194  0.16568888  0.39956904  1
  H+  H331  1  0.17901194  0.84501964  0.22303323  1
  H+  H332  1  0.15161572  0.57307655  0.23113373  1
  H+  H333  1  0.91512142  0.32555000  0.93717589  1
  H+  H334  1  0.93150411  0.35742897  0.60196981  1
  H+  H335  1  0.18822043  0.35054604  0.92644306  1
  H+  H336  1  0.03332340  0.48679495  0.43698037  1
  H+  H337  1  0.03398876  0.63850971  0.66493496  1
  H+  H338  1  0.06617805  0.15983993  0.10930154  1
  H+  H339  1  0.86342304  0.68987148  0.76524851  1
  H+  H340  1  0.93406938  0.59162509  0.88028423  1
  H+  H341  1  0.42280578  0.84654369  0.93036997  1
  H+  H342  1  0.16078812  0.14232861  0.66573660  1
  H+  H343  1  0.80331411  0.41895695  0.37659601  1
  H+  H344  1  0.57631072  0.38808461  0.76797589  1
  H+  H345  1  0.32664891  0.93466399  0.09144959  1
  H+  H346  1  0.41705921  0.08963127  0.91886610  1
  H+  H347  1  0.14109855  0.86304917  0.50637572  1
  H+  H348  1  0.31197154  0.65132744  0.09637650  1
  H+  H349  1  0.15569636  0.81639776  0.93425213  1
  H+  H350  1  0.27014776  0.96869377  0.25961384  1
  H+  H351  1  0.91625073  0.83875769  0.55853302  1
  H+  H352  1  0.83605662  0.16419196  0.78445308  1
  H+  H353  1  0.85729293  0.42108996  0.45260687  1
  H+  H354  1  0.32307504  0.90969796  0.73682488  1
  H+  H355  1  0.35029177  0.17814538  0.40954450  1
  H+  H356  1  0.58740260  0.92576789  0.73454578  1
  H+  H357  1  0.92658481  0.83148235  0.90350285  1
  H+  H358  1  0.82577671  0.90554344  0.07013733  1
  H+  H359  1  0.89721163  0.56147753  0.96831535  1
  H+  H360  1  0.57979943  0.41217196  0.40620537  1
  H+  H361  1  0.64335592  0.82980698  0.59626186  1
  H+  H362  1  0.57913699  0.66879528  0.73045345  1
  H+  H363  1  0.77378837  0.40741247  0.16811076  1
  H+  H364  1  0.36092026  0.69080934  0.42179193  1
  H+  H365  1  0.63858190  0.06485482  0.59614762  1
  H+  H366  1  0.13725327  0.08861214  0.91791527  1
  H+  H367  1  0.82905811  0.42181954  0.74688511  1
  H+  H368  1  0.28060526  0.38050975  0.00449960  1
  H+  H369  1  0.39113607  0.97844907  0.33666091  1
  H+  H370  1  0.16780360  0.32807506  0.27198876  1
  H+  H371  1  0.84615664  0.92091176  0.74571088  1
  H+  H372  1  0.08297102  0.17378209  0.76442063  1
  H+  H373  1  0.20058896  0.07196533  0.18303147  1
  H+  H374  1  0.65433277  0.83127526  0.89948256  1
  H+  H375  1  0.51203038  0.35149863  0.82375126  1
  H+  H376  1  0.40063070  0.57292211  0.26362328  1
  H+  H377  1  0.38869477  0.51925744  0.67084601  1
  H+  H378  1  0.41500946  0.81367144  0.24212539  1
  H+  H379  1  0.18804332  0.62263086  0.88914448  1
  H+  H380  1  0.40206885  0.31499394  0.88557812  1
  H+  H381  1  0.33419139  0.92107994  0.42527365  1
  H+  H382  1  0.82325073  0.15687223  0.73138043  1
  H+  H383  1  0.52275308  0.63503479  0.82455630  1
  O2-  O384  1  0.06932210  0.16206194  0.15575608  1
  O2-  O385  1  0.09144232  0.17419525  0.48578886  1
  O2-  O386  1  0.08470105  0.16469865  0.81007669  1
  O2-  O387  1  0.07636009  0.40338891  0.14473417  1
  O2-  O388  1  0.05159133  0.45149031  0.46028945  1
  O2-  O389  1  0.08876079  0.41584231  0.81606706  1
  O2-  O390  1  0.07298478  0.66158248  0.14946905  1
  O2-  O391  1  0.07040953  0.65654109  0.49543134  1
  O2-  O392  1  0.08816091  0.66329561  0.80276381  1
  O2-  O393  1  0.05824506  0.89057917  0.14448963  1
  O2-  O394  1  0.10231421  0.93677596  0.48222351  1
  O2-  O395  1  0.07805027  0.89715975  0.80670885  1
  O2-  O396  1  0.36952571  0.19247998  0.13613475  1
  O2-  O397  1  0.34096265  0.17824319  0.48560087  1
  O2-  O398  1  0.33023107  0.16009238  0.77652247  1
  O2-  O399  1  0.32491895  0.40732097  0.14616094  1
  O2-  O400  1  0.33028345  0.41747124  0.47889054  1
  O2-  O401  1  0.34349021  0.41803099  0.78823438  1
  O2-  O402  1  0.31210831  0.65156585  0.14130359  1
  O2-  O403  1  0.39348576  0.70509955  0.46094797  1
  O2-  O404  1  0.34298833  0.66758216  0.81466831  1
  O2-  O405  1  0.32477446  0.93357656  0.13653177  1
  O2-  O406  1  0.32036558  0.92045399  0.46880120  1
  O2-  O407  1  0.32871392  0.90775270  0.81771102  1
  O2-  O408  1  0.57683683  0.17296780  0.13163271  1
  O2-  O409  1  0.57932629  0.16604552  0.47686528  1
  O2-  O410  1  0.57922504  0.15038948  0.81207771  1
  O2-  O411  1  0.58146584  0.42150198  0.15488077  1
  O2-  O412  1  0.57632704  0.40496119  0.48697412  1
  O2-  O413  1  0.57344421  0.37929314  0.81260242  1
  O2-  O414  1  0.57347030  0.67493503  0.16395252  1
  O2-  O415  1  0.56337397  0.66123129  0.46799383  1
  O2-  O416  1  0.58053403  0.66965782  0.80568732  1
  O2-  O417  1  0.58282815  0.91579260  0.15360184  1
  O2-  O418  1  0.58253612  0.91414462  0.45856882  1
  O2-  O419  1  0.58376507  0.91944152  0.81103020  1
  O2-  O420  1  0.82168364  0.13963010  0.14061902  1
  O2-  O421  1  0.82841048  0.17456455  0.48329122  1
  O2-  O422  1  0.84714384  0.17174215  0.82866992  1
  O2-  O423  1  0.83684621  0.44301169  0.16454087  1
  O2-  O424  1  0.83683620  0.41839299  0.49389638  1
  O2-  O425  1  0.84722099  0.42057922  0.82730833  1
  O2-  O426  1  0.82731143  0.66221163  0.14928484  1
  O2-  O427  1  0.81471190  0.68473379  0.46827493  1
  O2-  O428  1  0.84637373  0.67323808  0.80869752  1
  O2-  O429  1  0.82847144  0.91459170  0.13834965  1
  O2-  O430  1  0.82156108  0.90139259  0.47554641  1
  O2-  O431  1  0.83133309  0.90929278  0.81818453  1
  O2-  O432  1  0.15406048  0.06685669  0.15763875  1
  O2-  O433  1  0.17705471  0.09879356  0.53024976  1
  O2-  O434  1  0.15773853  0.06743520  0.78194785  1
  O2-  O435  1  0.16355022  0.32791826  0.19496461  1
  O2-  O436  1  0.17646157  0.34238373  0.50846141  1
  O2-  O437  1  0.18732937  0.34260714  0.83847731  1
  O2-  O438  1  0.14718743  0.57060520  0.18557415  1
  O2-  O439  1  0.16206887  0.57635978  0.52576211  1
  O2-  O440  1  0.17043995  0.59305008  0.85022529  1
  O2-  O441  1  0.15841277  0.82972404  0.18051834  1
  O2-  O442  1  0.16734050  0.82686795  0.51272297  1
  O2-  O443  1  0.16149217  0.82208557  0.85603558  1
  O2-  O444  1  0.41317518  0.08190096  0.19378552  1
  O2-  O445  1  0.41229200  0.08187748  0.52454620  1
  O2-  O446  1  0.41196912  0.08019268  0.83944277  1
  O2-  O447  1  0.41465896  0.34068728  0.19919440  1
  O2-  O448  1  0.41846925  0.33687993  0.53993609  1
  O2-  O449  1  0.40037815  0.31000763  0.83972341  1
  O2-  O450  1  0.40187114  0.57458407  0.18652568  1
  O2-  O451  1  0.40458427  0.56399150  0.52336138  1
  O2-  O452  1  0.41779460  0.57653162  0.85310006  1
  O2-  O453  1  0.42899328  0.79842503  0.19570220  1
  O2-  O454  1  0.40834591  0.82476202  0.53983329  1
  O2-  O455  1  0.41803320  0.83443950  0.85675026  1
  O2-  O456  1  0.67932013  0.08172762  0.18281983  1
  O2-  O457  1  0.65543495  0.07575687  0.51782057  1
  O2-  O458  1  0.66891213  0.07807426  0.86348400  1
  O2-  O459  1  0.65443316  0.33063031  0.18335370  1
  O2-  O460  1  0.66463549  0.32840229  0.52395772  1
  O2-  O461  1  0.66294120  0.31294081  0.84563517  1
  O2-  O462  1  0.66079518  0.59243947  0.19086800  1
  O2-  O463  1  0.68316426  0.55686280  0.54597511  1
  O2-  O464  1  0.67319271  0.58877032  0.79429207  1
  O2-  O465  1  0.65752880  0.82865095  0.21717221  1
  O2-  O466  1  0.65115038  0.82893181  0.51252240  1
  O2-  O467  1  0.65808888  0.82821833  0.85441023  1
  O2-  O468  1  0.90684241  0.07345265  0.19392122  1
  O2-  O469  1  0.92046260  0.08499830  0.48699493  1
  O2-  O470  1  0.94052488  0.10273984  0.86117258  1
  O2-  O471  1  0.90161576  0.33564597  0.18065201  1
  O2-  O472  1  0.92034904  0.33891116  0.52984997  1
  O2-  O473  1  0.91895456  0.33085493  0.85281872  1
  O2-  O474  1  0.94195460  0.64579419  0.20317709  1
  O2-  O475  1  0.90151126  0.57346725  0.52645927  1
  O2-  O476  1  0.92444888  0.58028708  0.83689068  1
  O2-  O477  1  0.89777441  0.82423999  0.18932516  1
  O2-  O478  1  0.93172081  0.84488439  0.51482727  1
  O2-  O479  1  0.92254456  0.83142966  0.85819197  1
  O2-  O480  1  0.18060457  0.10514430  0.32470237  1
  O2-  O481  1  0.18606181  0.10572461  0.65540404  1
  O2-  O482  1  0.19169446  0.08917963  1.04397657  1
  O2-  O483  1  0.16791771  0.32838912  0.31784741  1
  O2-  O484  1  0.18287459  0.34414680  0.66267236  1
  O2-  O485  1  0.18861067  0.34656794  0.97099089  1
  O2-  O486  1  0.15802632  0.57498230  0.30900098  1
  O2-  O487  1  0.17134620  0.57542048  0.65033789  1
  O2-  O488  1  0.13046723  0.54766990  0.98877948  1
  O2-  O489  1  0.23469491  0.91755149  0.28392960  1
  O2-  O490  1  0.19320098  0.79314661  0.62787075  1
  O2-  O491  1  0.15976467  0.82092883  0.97960659  1
  O2-  O492  1  0.42971041  0.08864977  0.31498442  1
  O2-  O493  1  0.39156251  0.06727268  0.65256595  1
  O2-  O494  1  0.42123618  0.09147705  0.96411446  1
  O2-  O495  1  0.41704836  0.33934952  0.32068647  1
  O2-  O496  1  0.41103753  0.33426404  0.67073707  1
  O2-  O497  1  0.41753087  0.32882801  0.96025980  1
  O2-  O498  1  0.40511499  0.57780134  0.30918520  1
  O2-  O499  1  0.41472937  0.57230527  0.64630835  1
  O2-  O500  1  0.41498754  0.56899047  0.98011269  1
  O2-  O501  1  0.40596525  0.82567616  0.30264220  1
  O2-  O502  1  0.39338208  0.80881673  0.66037920  1
  O2-  O503  1  0.42542343  0.85808987  0.97592842  1
  O2-  O504  1  0.67738944  0.09234621  0.30449704  1
  O2-  O505  1  0.64170951  0.06524905  0.64129699  1
  O2-  O506  1  0.67014824  0.09128673  0.98384478  1
  O2-  O507  1  0.65099035  0.32428336  0.30981848  1
  O2-  O508  1  0.66719212  0.32512591  0.64577299  1
  O2-  O509  1  0.67076554  0.34173192  0.97147988  1
  O2-  O510  1  0.65868782  0.57814074  0.31597748  1
  O2-  O511  1  0.67600957  0.57238429  0.67903826  1
  O2-  O512  1  0.68882489  0.59487204  0.96331357  1
  O2-  O513  1  0.65038706  0.82051344  0.28397165  1
  O2-  O514  1  0.64575097  0.83295154  0.64107386  1
  O2-  O515  1  0.65322087  0.84309290  0.97840478  1
  O2-  O516  1  0.90860121  0.07848817  0.32464333  1
  O2-  O517  1  0.94020955  0.08920761  0.63331637  1
  O2-  O518  1  0.91003624  0.06824568  0.97500054  1
  O2-  O519  1  0.91569009  0.33576269  0.30917730  1
  O2-  O520  1  0.92870985  0.35846593  0.64842994  1
  O2-  O521  1  0.91608761  0.31725235  0.98165690  1
  O2-  O522  1  0.90714592  0.57882077  0.31007305  1
  O2-  O523  1  0.82765920  0.56404335  0.63989763  1
  O2-  O524  1  0.91560614  0.58371598  1.00896802  1
  O2-  O525  1  0.88470767  0.81688298  0.31499176  1
  O2-  O526  1  0.84714325  0.81327335  0.62700485  1
  O2-  O527  1  0.93681387  0.83917154  0.98166401  1
  O2-  O528  1  0.07119133  0.15096103  0.03794461  1
  O2-  O529  1  0.07847787  0.16850825  0.36373655  1
  O2-  O530  1  0.09819475  0.18525570  0.69202384  1
  O2-  O531  1  0.07837834  0.39444328  0.02419501  1
  O2-  O532  1  0.08068617  0.40807332  0.34809018  1
  O2-  O533  1  0.09329618  0.42225468  0.69629279  1
  O2-  O534  1  0.07178597  0.66318259  0.02979171  1
  O2-  O535  1  0.03718209  0.57458845  0.38492012  1
  O2-  O536  1  0.09066766  0.66223681  0.68298732  1
  O2-  O537  1  0.09853587  0.91849781  0.02385711  1
  O2-  O538  1  0.13197999  0.94324127  0.35155071  1
  O2-  O539  1  0.04956435  0.84895281  0.68995361  1
  O2-  O540  1  0.36043765  0.18351952  0.01807792  1
  O2-  O541  1  0.35132367  0.17676443  0.36377788  1
  O2-  O542  1  0.34125024  0.17496474  0.70937083  1
  O2-  O543  1  0.33935791  0.40407629  0.02370821  1
  O2-  O544  1  0.32998500  0.41326904  0.36257433  1
  O2-  O545  1  0.34154717  0.42104021  0.72113450  1
  O2-  O546  1  0.29716064  0.62299745  0.01375370  1
  O2-  O547  1  0.32292318  0.67002776  0.34690833  1
  O2-  O548  1  0.32957400  0.65665290  0.69609508  1
  O2-  O549  1  0.32639074  0.92987975  0.01029829  1
  O2-  O550  1  0.35044431  0.91698358  0.34485972  1
  O2-  O551  1  0.32570961  0.90902358  0.69185399  1
  O2-  O552  1  0.58740741  0.17040307  0.01450872  1
  O2-  O553  1  0.59205714  0.16629405  0.35397438  1
  O2-  O554  1  0.59399136  0.15972156  0.68945403  1
  O2-  O555  1  0.57566326  0.41939584  -0.01080793  1
  O2-  O556  1  0.58178470  0.41502995  0.36089237  1
  O2-  O557  1  0.58151155  0.39942462  0.68844124  1
  O2-  O558  1  0.56306833  0.68826821  0.04518953  1
  O2-  O559  1  0.56711908  0.65975066  0.34668425  1
  O2-  O560  1  0.57940294  0.66517790  0.68454416  1
  O2-  O561  1  0.58403073  0.93010816  0.02935277  1
  O2-  O562  1  0.59413211  0.92498387  0.33436781  1
  O2-  O563  1  0.58672381  0.92645645  0.68888465  1
  O2-  O564  1  0.83276796  0.15209233  0.01933931  1
  O2-  O565  1  0.83375199  0.17237836  0.35518392  1
  O2-  O566  1  0.81755506  0.15732688  0.68335294  1
  O2-  O567  1  0.91446691  0.43925221  0.04757809  1
  O2-  O568  1  0.81210050  0.41042995  0.33413912  1
  O2-  O569  1  0.82515449  0.42411730  0.70170099  1
  O2-  O570  1  0.84029959  0.66651902  0.03140366  1
  O2-  O571  1  0.82294462  0.65922685  0.35203767  1
  O2-  O572  1  0.89529664  0.71624226  0.69213798  1
  O2-  O573  1  0.82159979  0.89538341  0.02314008  1
  O2-  O574  1  0.80635754  0.90596364  0.35058208  1
  O2-  O575  1  0.85239915  0.92725268  0.69983731  1
