# generated using pymatgen
data_H2O
_symmetry_space_group_name_H-M   'P 1'
_cell_length_a   17.97734360
_cell_length_b   17.99054806
_cell_length_c   22.00605496
_cell_angle_alpha   90.03160786
_cell_angle_beta   90.02335175
_cell_angle_gamma   120.02331144
_symmetry_Int_Tables_number   1
_chemical_formula_structural   H2O
_chemical_formula_sum   'H384 O192'
_cell_volume   6162.26644101
_cell_formula_units_Z   192
loop_
 _symmetry_equiv_pos_site_id
 _symmetry_equiv_pos_as_xyz
  1  'x, y, z'
loop_
 _atom_type_symbol
 _atom_type_oxidation_number
  H+  1.0
  O2-  -2.0
loop_
 _atom_site_type_symbol
 _atom_site_label
 _atom_site_symmetry_multiplicity
 _atom_site_fract_x
 _atom_site_fract_y
 _atom_site_fract_z
 _atom_site_occupancy
  H+  H0  1  0.37397468  0.51528929  0.18700991  1
  H+  H1  1  0.23611451  0.86524927  0.32326385  1
  H+  H2  1  0.74413073  0.64749348  0.18119116  1
  H+  H3  1  0.28483511  0.63980757  0.51202614  1
  H+  H4  1  0.62489270  0.85819100  0.99293508  1
  H+  H5  1  0.39643510  0.38813345  0.82554290  1
  H+  H6  1  0.39386162  0.29233133  0.50980094  1
  H+  H7  1  0.10667205  0.37601630  0.16212779  1
  H+  H8  1  0.36705477  0.88584303  0.33780036  1
  H+  H9  1  0.14147698  0.86288846  0.16823030  1
  H+  H10  1  0.64327141  0.36138639  0.65817574  1
  H+  H11  1  0.96792798  0.86369990  0.65641057  1
  H+  H12  1  0.36076539  0.38984823  0.16998354  1
  H+  H13  1  0.61326995  0.42007789  0.07979971  1
  H+  H14  1  0.60460786  0.62989942  0.33711548  1
  H+  H15  1  0.52185471  0.88791410  1.01058079  1
  H+  H16  1  0.62561524  0.85833108  0.66354327  1
  H+  H17  1  0.73948345  0.62386371  0.64953954  1
  H+  H18  1  0.38775338  0.77297825  -0.00311560  1
  H+  H19  1  0.37279759  0.96205037  0.84440369  1
  H+  H20  1  0.88075883  0.77639986  0.32572722  1
  H+  H21  1  0.82144323  0.68140148  0.40769156  1
  H+  H22  1  0.12168312  0.73185633  0.33256636  1
  H+  H23  1  0.26632021  0.87467389  0.01062243  1
  H+  H24  1  0.63305450  0.02488503  0.99602870  1
  H+  H25  1  0.14021494  0.86013425  0.83987686  1
  H+  H26  1  0.41317577  0.39386741  0.65755893  1
  H+  H27  1  0.88208661  0.25966189  0.66163208  1
  H+  H28  1  0.65538858  0.52765815  0.50416896  1
  H+  H29  1  0.27900295  0.02825357  0.85200297  1
  H+  H30  1  0.66082399  0.10460237  0.67700789  1
  H+  H31  1  0.88395517  0.53104490  0.65321395  1
  H+  H32  1  0.47942158  0.61587674  0.34088207  1
  H+  H33  1  0.36106361  0.12254698  0.65852739  1
  H+  H34  1  0.32576877  0.17293845  0.10917834  1
  H+  H35  1  0.53272156  0.39632768  0.50463053  1
  H+  H36  1  0.52462007  0.89132485  0.83242660  1
  H+  H37  1  0.58429831  0.92007298  0.06860963  1
  H+  H38  1  0.34744684  0.67245434  0.76611781  1
  H+  H39  1  0.48085186  0.60956314  0.98429795  1
  H+  H40  1  0.36560972  -0.00635378  0.69206148  1
  H+  H41  1  0.63908433  0.22111705  0.67454354  1
  H+  H42  1  0.61418847  0.38130420  0.50128346  1
  H+  H43  1  0.02366342  0.88149256  0.15403320  1
  H+  H44  1  0.70259372  0.76460327  0.78988807  1
  H+  H45  1  0.84942946  0.78035934  0.17461702  1
  H+  H46  1  0.62282628  0.90648103  0.16415546  1
  H+  H47  1  0.91475758  0.73170732  0.13069725  1
  H+  H48  1  0.84939080  0.22756819  0.99639570  1
  H+  H49  1  0.12396079  0.36294293  0.85189783  1
  H+  H50  1  0.41721248  0.35747315  0.88876812  1
  H+  H51  1  0.62404154  0.48062411  0.66391505  1
  H+  H52  1  0.59721969  0.46273369  0.34998825  1
  H+  H53  1  0.95808190  0.47335487  0.39255649  1
  H+  H54  1  0.09921871  0.80846827  0.98192697  1
  H+  H55  1  0.57263937  0.14688695  0.44454449  1
  H+  H56  1  -0.01800507  0.88463648  0.50365884  1
  H+  H57  1  0.36058317  0.25322034  0.82414727  1
  H+  H58  1  0.59738122  0.36771685  -0.01282951  1
  H+  H59  1  0.63589966  0.52028557  0.97087792  1
  H+  H60  1  0.49701817  0.10054464  0.85547007  1
  H+  H61  1  0.64835838  0.35666861  0.16952174  1
  H+  H62  1  0.77570527  0.40127789  0.81510176  1
  H+  H63  1  0.60251980  0.11993474  0.34962322  1
  H+  H64  1  0.70854389  0.45322344  0.09627416  1
  H+  H65  1  0.72086402  0.10868340  0.18895675  1
  H+  H66  1  -0.03962512  0.36074904  -0.00121525  1
  H+  H67  1  0.62225090  0.62767529  0.80898134  1
  H+  H68  1  0.84990988  0.12867056  0.17309061  1
  H+  H69  1  0.38588429  1.01837650  0.32850863  1
  H+  H70  1  0.60785867  0.22063762  0.16867164  1
  H+  H71  1  0.41587728  0.55650270  0.50970103  1
  H+  H72  1  0.49827937  0.84069939  0.49130940  1
  H+  H73  1  0.36430849  0.13436486  0.33522515  1
  H+  H74  1  0.87837458  0.90667532  0.16326393  1
  H+  H75  1  0.21585541  0.11844963  0.84226361  1
  H+  H76  1  0.91456280  0.32760391  0.23671434  1
  H+  H77  1  0.63580500  0.64507110  0.48627416  1
  H+  H78  1  0.37708835  0.40778752  0.50021033  1
  H+  H79  1  0.66067175  0.32248037  0.56703044  1
  H+  H80  1  0.88395545  0.37415777  0.83909367  1
  H+  H81  1  0.63347574  0.03204514  0.84185787  1
  H+  H82  1  0.73825380  0.67453490  0.15760592  1
  H+  H83  1  0.63394639  0.06894346  0.52063280  1
  H+  H84  1  0.17321289  0.30084281  0.65798554  1
  H+  H85  1  0.35470125  0.16206204  0.81855334  1
  H+  H86  1  0.90674831  0.60890156  0.16201006  1
  H+  H87  1  0.88290526  0.75640867  0.83489076  1
  H+  H88  1  0.01608048  0.63689161  0.67275001  1
  H+  H89  1  0.35758834  0.22073520  0.01077242  1
  H+  H90  1  0.16966668  0.50277176  0.49097658  1
  H+  H91  1  0.72968272  0.34877304  0.18004161  1
  H+  H92  1  0.13576628  0.02288439  0.17358581  1
  H+  H93  1  0.89292223  0.61850039  0.32838566  1
  H+  H94  1  0.01571146  0.13839982  0.00616290  1
  H+  H95  1  0.14086258  0.60424660  -0.00514602  1
  H+  H96  1  0.13640138  0.01838128  0.32805872  1
  H+  H97  1  0.38717537  0.77602781  0.32765647  1
  H+  H98  1  0.57199874  0.65146530  0.13598826  1
  H+  H99  1  0.11357524  0.47546908  0.33649334  1
  H+  H100  1  0.39183650  0.77105853  0.84296214  1
  H+  H101  1  0.60675845  0.12455388  0.01600693  1
  H+  H102  1  0.96900874  0.59651707  0.99847275  1
  H+  H103  1  0.17925077  1.11398140  0.60224033  1
  H+  H104  1  0.72428883  0.33839756  0.32998336  1
  H+  H105  1  0.99099685  0.61030376  0.84413699  1
  H+  H106  1  -0.02034208  0.12278942  0.17757143  1
  H+  H107  1  0.87585444  0.35177181  0.52123183  1
  H+  H108  1  0.12982903  0.15940698  0.51195813  1
  H+  H109  1  0.35494001  0.13054259  0.01386816  1
  H+  H110  1  0.51390422  0.37485883  0.99488783  1
  H+  H111  1  0.86251797  0.22285090  0.33850883  1
  H+  H112  1  0.46740961  0.10405659  1.01211565  1
  H+  H113  1  0.85810417  0.89085629  0.49397070  1
  H+  H114  1  0.32393169  0.43914919  0.66025141  1
  H+  H115  1  0.10919420  0.13991746  0.82634043  1
  H+  H116  1  0.23410090  0.61143633  0.83751253  1
  H+  H117  1  0.86448902  0.46582152  0.16941772  1
  H+  H118  1  0.29514768  0.41832156  0.78878926  1
  H+  H119  1  0.92427557  0.08575463  0.93352301  1
  H+  H120  1  0.10429384  0.72656630  0.67611678  1
  H+  H121  1  0.77178264  0.13438052  0.34327760  1
  H+  H122  1  0.11031988  0.13522605  0.16210796  1
  H+  H123  1  0.38484872  0.09823609  0.50483463  1
  H+  H124  1  0.71647459  0.35159437  0.50684686  1
  H+  H125  1  0.55007373  0.65507352  0.81226216  1
  H+  H126  1  0.32067895  0.28301481  0.95083506  1
  H+  H127  1  0.55247964  0.65493144  0.49045308  1
  H+  H128  1  0.89620403  1.03549909  -0.00345378  1
  H+  H129  1  0.84704678  0.21516046  0.17225598  1
  H+  H130  1  0.87086193  0.14384709  0.49674600  1
  H+  H131  1  0.10034750  0.46150260  0.16841116  1
  H+  H132  1  0.61888266  0.47549393  0.17283820  1
  H+  H133  1  0.11125218  0.70565665  0.00437020  1
  H+  H134  1  0.49478773  0.88062704  0.66621118  1
  H+  H135  1  0.90055478  0.36472432  0.33113280  1
  H+  H136  1  0.39168402  1.01077687  0.17756919  1
  H+  H137  1  0.64485940  1.00859503  0.68180741  1
  H+  H138  1  0.40973805  0.66180049  0.67351432  1
  H+  H139  1  0.64111616  0.61217242  0.64778015  1
  H+  H140  1  0.10727537  0.22807513  1.01446749  1
  H+  H141  1  0.87823404  0.08604831  0.84669424  1
  H+  H142  1  0.47700775  0.10706503  0.33067577  1
  H+  H143  1  0.60971368  0.98591120  0.16416066  1
  H+  H144  1  0.31381977  0.04539755  0.82828130  1
  H+  H145  1  0.62633621  0.15213629  0.83300211  1
  H+  H146  1  0.84901448  0.88439892  0.66930626  1
  H+  H147  1  0.59383169  0.66966673  0.40094023  1
  H+  H148  1  0.35543089  0.23337923  0.16744149  1
  H+  H149  1  0.01652547  0.15034815  0.67592351  1
  H+  H150  1  0.52173531  0.87967890  0.33870171  1
  H+  H151  1  0.40370142  0.86886268  0.50583839  1
  H+  H152  1  0.37047109  0.64135945  0.16992787  1
  H+  H153  1  0.38872646  0.91924821  0.68625226  1
  H+  H154  1  0.90200673  0.03783238  0.50176450  1
  H+  H155  1  0.76315730  0.71093711  0.37526333  1
  H+  H156  1  0.47085714  0.09510379  0.51421050  1
  H+  H157  1  0.86162694  0.02896156  0.68027587  1
  H+  H158  1  0.88071518  0.62161839  0.65044879  1
  H+  H159  1  0.40171217  0.80448177  0.65650803  1
  H+  H160  1  0.10486039  0.22643932  0.83095547  1
  H+  H161  1  0.96812433  0.35013457  0.17479427  1
  H+  H162  1  0.35722296  0.87861593  0.00835124  1
  H+  H163  1  0.87367614  0.89935816  1.00620850  1
  H+  H164  1  0.70620758  0.59503774  0.31923043  1
  H+  H165  1  0.92705934  0.57287214  0.90333652  1
  H+  H166  1  0.28016318  0.63356537  0.00942687  1
  H+  H167  1  0.85665101  0.82713931  0.83010218  1
  H+  H168  1  0.13259056  0.36525662  1.00849473  1
  H+  H169  1  0.49330296  0.57319437  0.10292697  1
  H+  H170  1  0.17746336  0.56972107  0.12555028  1
  H+  H171  1  0.17524126  0.57901649  0.93556841  1
  H+  H172  1  0.62098221  0.49558503  0.81873486  1
  H+  H173  1  0.97797072  0.85516868  0.31879337  1
  H+  H174  1  0.11294128  0.47314973  0.00998931  1
  H+  H175  1  0.88415038  0.11222892  0.32864106  1
  H+  H176  1  0.15304622  0.33012760  0.26750060  1
  H+  H177  1  0.36112082  0.25804308  0.67197030  1
  H+  H178  1  0.86997615  0.48326376  0.81950190  1
  H+  H179  1  0.36247498  0.48123765  1.00884139  1
  H+  H180  1  -0.02970340  0.37187443  0.84792950  1
  H+  H181  1  0.83343894  0.48358404  1.02280066  1
  H+  H182  1  0.21832590  0.12026238  0.99798602  1
  H+  H183  1  0.17305858  1.04780906  0.51575661  1
  H+  H184  1  0.37447658  0.64263964  0.82614362  1
  H+  H185  1  0.86822223  0.89072212  0.33797711  1
  H+  H186  1  0.27303472  0.13100146  0.33927850  1
  H+  H187  1  0.88094472  0.77131763  0.64444594  1
  H+  H188  1  0.26417609  0.13496631  0.51945713  1
  H+  H189  1  0.60360965  0.20700971  0.50240807  1
  H+  H190  1  0.88700302  0.60859601  0.98649808  1
  H+  H191  1  0.36344020  0.64625532  0.35189150  1
  H+  H192  1  0.31661620  0.65118506  0.66444424  1
  H+  H193  1  0.13836611  0.61641864  0.32093239  1
  H+  H194  1  0.03613963  0.78563197  0.54551921  1
  H+  H195  1  0.01495807  0.88206367  0.82702800  1
  H+  H196  1  0.53157923  0.40018064  0.81514758  1
  H+  H197  1  0.64532381  0.90298636  0.84486722  1
  H+  H198  1  0.72258631  0.11678440  -0.00815206  1
  H+  H199  1  0.47419106  0.36068365  0.34129748  1
  H+  H200  1  0.37675650  0.38853312  0.35191897  1
  H+  H201  1  0.98664781  0.62846287  0.32469790  1
  H+  H202  1  1.02885580  0.63311262  0.16386288  1
  H+  H203  1  0.43858941  0.22014305  0.46519037  1
  H+  H204  1  1.02358244  0.13666217  0.33945700  1
  H+  H205  1  0.14961867  0.54911952  0.65687321  1
  H+  H206  1  0.11252248  0.13884818  0.33862793  1
  H+  H207  1  0.61984483  0.23838343  0.82842977  1
  H+  H208  1  0.71620880  0.36287679  0.00640033  1
  H+  H209  1  0.90313554  0.49908401  0.35161142  1
  H+  H210  1  0.28618435  0.40674996  0.49640573  1
  H+  H211  1  0.61204076  0.87891493  0.34028029  1
  H+  H212  1  0.13231005  0.14189144  0.65915878  1
  H+  H213  1  0.48704258  0.10887111  0.17920053  1
  H+  H214  1  0.15791990  0.08857611  0.90232256  1
  H+  H215  1  0.86204039  0.37509584  0.16598968  1
  H+  H216  1  0.40784733  0.54336608  0.83021526  1
  H+  H217  1  0.40093264  0.78321452  0.17431860  1
  H+  H218  1  0.86847400  0.38741184  0.66664990  1
  H+  H219  1  0.68251790  0.96189925  0.53049134  1
  H+  H220  1  0.22259915  0.11540222  0.17685534  1
  H+  H221  1  0.63908518  0.38398659  0.82669528  1
  H+  H222  1  0.57191035  0.52856383  0.17564358  1
  H+  H223  1  0.60308282  0.86035320  0.48903807  1
  H+  H224  1  0.34152017  0.91830885  0.77879548  1
  H+  H225  1  0.78154634  0.91414610  0.49330265  1
  H+  H226  1  0.98427187  0.35889721  0.32760968  1
  H+  H227  1  0.61850729  0.62890251  -0.02301847  1
  H+  H228  1  0.37106455  0.88649988  0.16303952  1
  H+  H229  1  0.88063781  0.26525620  0.51395287  1
  H+  H230  1  0.12969428  0.85943683  0.66691460  1
  H+  H231  1  0.35996633  0.96690361  0.49655874  1
  H+  H232  1  0.11149766  0.90194232  0.49698489  1
  H+  H233  1  0.71939521  0.60532229  0.83220685  1
  H+  H234  1  0.86187095  0.72353172  -0.01216618  1
  H+  H235  1  0.37729523  0.01688609  1.00610135  1
  H+  H236  1  0.48837887  0.87516013  0.17378108  1
  H+  H237  1  0.12908323  0.24562207  0.52142943  1
  H+  H238  1  0.22121426  0.36223784  0.17228131  1
  H+  H239  1  0.23211683  0.86212939  0.84220318  1
  H+  H240  1  0.87543118  0.62317009  0.83635539  1
  H+  H241  1  0.14505009  0.61127395  0.83873229  1
  H+  H242  1  0.73391744  0.36508638  0.65445778  1
  H+  H243  1  0.49135697  0.37355686  0.65971543  1
  H+  H244  1  0.60536531  0.20969255  0.34715848  1
  H+  H245  1  0.97048055  0.09805579  0.84266760  1
  H+  H246  1  0.47622495  0.38927402  0.19704906  1
  H+  H247  1  0.67582906  0.88115510  0.56602665  1
  H+  H248  1  0.46499156  0.59753087  0.19718098  1
  H+  H249  1  0.11825836  0.87264060  0.33383391  1
  H+  H250  1  0.36412506  0.36488400  0.99209870  1
  H+  H251  1  0.72895749  0.86252257  0.33215872  1
  H+  H252  1  0.77310241  0.12221063  0.83132236  1
  H+  H253  1  0.78664791  0.09912105  0.67451500  1
  H+  H254  1  0.56551765  0.65264414  0.71274163  1
  H+  H255  1  0.91508983  0.83299053  0.92499734  1
  H+  H256  1  0.97881747  0.86422017  0.98238156  1
  H+  H257  1  0.11091376  0.98070746  0.67968531  1
  H+  H258  1  0.11739866  0.47596623  0.82850665  1
  H+  H259  1  0.13340692  0.27042968  0.16963724  1
  H+  H260  1  0.15758329  0.37660965  0.66548995  1
  H+  H261  1  0.63103125  0.73333372  0.18391002  1
  H+  H262  1  0.58674566  0.72747578  0.18982939  1
  H+  H263  1  0.28141644  0.86991760  0.49461358  1
  H+  H264  1  0.66191243  0.57753807  -0.09264813  1
  H+  H265  1  0.38020988  0.48663713  0.35203101  1
  H+  H266  1  0.16191062  0.38905281  0.50327957  1
  H+  H267  1  0.59353694  0.42589282  0.72562441  1
  H+  H268  1  0.63443634  0.01584503  0.33905438  1
  H+  H269  1  0.33728925  0.91509731  0.10402623  1
  H+  H270  1  -0.01428907  0.12500665  0.52152155  1
  H+  H271  1  0.11203258  0.38492227  0.33853211  1
  H+  H272  1  0.74742077  0.90254005  0.17980984  1
  H+  H273  1  0.10247475  0.97251021  0.83213213  1
  H+  H274  1  0.28766443  0.65064098  0.16419033  1
  H+  H275  1  0.21153379  0.36233699  0.86373251  1
  H+  H276  1  0.22029166  0.60224874  0.56649887  1
  H+  H277  1  0.85791318  0.47331340  0.50454963  1
  H+  H278  1  0.23165494  0.86358387  0.17033273  1
  H+  H279  1  0.39353924  0.61417790  -0.00795449  1
  H+  H280  1  0.09573454  0.76420418  0.50575568  1
  H+  H281  1  0.00705659  0.34766231  0.68064823  1
  H+  H282  1  0.27673260  0.64632525  0.34044647  1
  H+  H283  1  0.12844448  0.12321578  0.99763330  1
  H+  H284  1  0.12766111  0.27271819  0.32730167  1
  H+  H285  1  0.62559689  0.77348746  0.64031226  1
  H+  H286  1  0.11997894  0.72348703  0.82524225  1
  H+  H287  1  0.63186867  0.11120367  0.18797983  1
  H+  H288  1  0.33513065  0.42175762  0.10813953  1
  H+  H289  1  0.65455936  0.04675626  0.58567523  1
  H+  H290  1  0.78663063  0.64152592  0.49545108  1
  H+  H291  1  0.42137257  0.83773142  0.26773819  1
  H+  H292  1  0.68286716  0.58856560  0.56231780  1
  H+  H293  1  0.53128641  0.82099435  0.71755197  1
  H+  H294  1  0.60270099  0.21145672  0.02078973  1
  H+  H295  1  0.63950436  0.77237116  0.32796810  1
  H+  H296  1  0.92071018  0.58438824  0.23075927  1
  H+  H297  1  0.84034110  0.17252060  0.43812426  1
  H+  H298  1  0.11444891  0.43958207  0.43553323  1
  H+  H299  1  0.85142808  0.93252508  0.06707036  1
  H+  H300  1  0.67322181  0.36487117  0.88835992  1
  H+  H301  1  0.07625499  0.41407806  0.07025974  1
  H+  H302  1  0.42098088  0.07209468  0.24340066  1
  H+  H303  1  0.55820982  0.86605944  0.42360455  1
  H+  H304  1  0.08510077  0.91901043  0.09674971  1
  H+  H305  1  0.85498624  0.14100105  -0.00657538  1
  H+  H306  1  0.92003706  0.08802765  0.23784822  1
  H+  H307  1  0.02623656  0.63518905  0.49093301  1
  H+  H308  1  0.91297040  0.32016635  0.60196818  1
  H+  H309  1  0.83707218  0.68899996  0.70605352  1
  H+  H310  1  0.14529835  0.82253713  0.60702722  1
  H+  H311  1  0.07844459  0.16328875  0.10200963  1
  H+  H312  1  0.91345010  0.82339981  0.22956999  1
  H+  H313  1  0.44148532  0.85645833  0.56927982  1
  H+  H314  1  0.92332869  0.58892857  0.56554881  1
  H+  H315  1  0.35057649  0.42809243  0.41823805  1
  H+  H316  1  0.66326785  0.08756647  0.90301375  1
  H+  H317  1  0.32177804  0.19705805  0.73313423  1
  H+  H318  1  0.75833057  0.88049734  0.66658438  1
  H+  H319  1  0.83948359  0.41786776  0.44599629  1
  H+  H320  1  0.63201925  0.54160910  0.26862610  1
  H+  H321  1  0.89633089  0.61573500  0.50335315  1
  H+  H322  1  0.60861266  0.17016163  0.73659833  1
  H+  H323  1  0.17141616  0.58629610  0.26427695  1
  H+  H324  1  0.42879424  0.59108974  0.89428416  1
  H+  H325  1  0.90395037  0.34321039  0.94028565  1
  H+  H326  1  0.39098246  0.08028438  0.60762610  1
  H+  H327  1  0.68579667  0.86934856  0.23898793  1
  H+  H328  1  0.42428686  0.34711443  0.57202795  1
  H+  H329  1  0.65864040  0.07485441  0.27949875  1
  H+  H330  1  0.86989366  0.66846480  0.07487362  1
  H+  H331  1  0.83021286  0.62440032  0.77606978  1
  H+  H332  1  0.08835296  0.67257933  0.39162147  1
  H+  H333  1  0.35542908  0.17816763  0.42440357  1
  H+  H334  1  0.16549895  0.07647698  0.26849025  1
  H+  H335  1  0.37319083  0.45450867  0.74378679  1
  H+  H336  1  0.17631938  0.83599036  0.26204285  1
  H+  H337  1  0.38606460  0.85687400  0.84537891  1
  H+  H338  1  0.43812833  0.06971371  0.91587380  1
  H+  H339  1  0.08297026  0.65523864  0.06736893  1
  H+  H340  1  0.05538830  0.85468143  0.38869752  1
  H+  H341  1  0.04327611  0.29467961  0.71271256  1
  H+  H342  1  0.62690762  0.76997460  -0.02243940  1
  H+  H343  1  0.80873140  0.42171910  0.08170275  1
  H+  H344  1  0.14011393  0.63045023  0.65336516  1
  H+  H345  1  0.83153845  0.13360780  0.77356074  1
  H+  H346  1  0.14058116  0.61963292  0.16133923  1
  H+  H347  1  0.57650886  0.15591792  0.11018424  1
  H+  H348  1  0.34272302  0.66689725  0.06813414  1
  H+  H349  1  0.83987981  0.42323376  0.72265452  1
  H+  H350  1  0.07842251  0.91919300  0.73716471  1
  H+  H351  1  0.71748043  0.86648390  0.83805974  1
  H+  H352  1  0.15746749  0.33210209  0.94942900  1
  H+  H353  1  0.23968026  0.15847894  0.66728687  1
  H+  H354  1  0.67298345  0.86300512  0.91010694  1
  H+  H355  1  0.42447535  0.52923563  0.66345758  1
  H+  H356  1  0.58141591  0.91324063  0.76962382  1
  H+  H357  1  0.92200998  0.84448746  0.56290489  1
  H+  H358  1  0.57405553  0.40825554  0.41109767  1
  H+  H359  1  0.11228257  0.99498347  0.00460861  1
  H+  H360  1  0.88467507  0.02317000  0.32806155  1
  H+  H361  1  0.41630921  0.83186729  0.93726568  1
  H+  H362  1  0.11634043  0.72671099  0.16057912  1
  H+  H363  1  0.46196492  0.61457856  0.56715424  1
  H+  H364  1  0.59700052  0.65567949  0.03957562  1
  H+  H365  1  0.87464105  0.73375287  0.49336800  1
  H+  H366  1  0.38118051  0.27278657  0.33491071  1
  H+  H367  1  0.19457017  0.36535914  0.56529318  1
  H+  H368  1  0.40834856  0.33812426  0.24705348  1
  H+  H369  1  0.11943225  0.95837142  0.43850172  1
  H+  H370  1  0.87851317  0.99614680  0.16396049  1
  H+  H371  1  0.77258927  0.63274716  -0.01465771  1
  H+  H372  1  0.77543186  0.85142318  0.75711497  1
  H+  H373  1  0.40976391  0.57966936  0.28672790  1
  H+  H374  1  0.83709495  0.91783018  0.39924140  1
  H+  H375  1  0.13877081  0.92452010  1.00407482  1
  H+  H376  1  0.26975028  0.39423567  0.01571709  1
  H+  H377  1  0.16093707  0.81793214  0.92726501  1
  H+  H378  1  0.07875812  0.17588075  0.73373782  1
  H+  H379  1  0.33384729  0.91199861  0.39748300  1
  H+  H380  1  0.08441041  0.66226968  0.76653452  1
  H+  H381  1  0.07711064  0.40070526  0.77624357  1
  H+  H382  1  0.69162294  0.29259469  0.95416467  1
  H+  H383  1  0.66590718  0.31511931  0.27163457  1
  O2-  O384  1  0.08222109  0.16780295  0.14757013  1
  O2-  O385  1  0.09771863  0.18330445  0.53154501  1
  O2-  O386  1  0.08161622  0.17134059  0.80860255  1
  O2-  O387  1  0.07264793  0.40472098  0.14892561  1
  O2-  O388  1  0.12545912  0.44324652  0.47973520  1
  O2-  O389  1  0.08392917  0.41255739  0.82081986  1
  O2-  O390  1  0.08841691  0.66581724  0.14595207  1
  O2-  O391  1  0.08061917  0.68102246  0.47023508  1
  O2-  O392  1  0.09021553  0.66221205  0.81216522  1
  O2-  O393  1  0.08453245  0.91262002  0.14187076  1
  O2-  O394  1  0.10602915  0.95193190  0.48193022  1
  O2-  O395  1  0.07687645  0.91327361  0.81545735  1
  O2-  O396  1  0.32173570  0.17310232  0.15398917  1
  O2-  O397  1  0.37596929  0.19031718  0.46847580  1
  O2-  O398  1  0.32388449  0.19233374  0.80846794  1
  O2-  O399  1  0.33215261  0.42175263  0.15344533  1
  O2-  O400  1  0.34873491  0.43746263  0.48089718  1
  O2-  O401  1  0.35739953  0.44428381  0.78978512  1
  O2-  O402  1  0.34789815  0.67574342  0.14983186  1
  O2-  O403  1  0.24929448  0.58715332  0.53464238  1
  O2-  O404  1  0.33917275  0.66794630  0.81109809  1
  O2-  O405  1  0.33961804  0.91750646  0.14961757  1
  O2-  O406  1  0.33681706  0.90888595  0.47618952  1
  O2-  O407  1  0.33248583  0.90535795  0.82463128  1
  O2-  O408  1  0.57405227  0.15825137  0.15610630  1
  O2-  O409  1  0.57135093  0.14553203  0.48978273  1
  O2-  O410  1  0.59103524  0.17700597  0.81688724  1
  O2-  O411  1  0.65218283  0.43567380  0.11543982  1
  O2-  O412  1  0.59117175  0.41929156  0.48712514  1
  O2-  O413  1  0.59154000  0.42990488  0.80062612  1
  O2-  O414  1  0.54978120  0.59250869  0.12084935  1
  O2-  O415  1  0.60939407  0.67744652  0.46909694  1
  O2-  O416  1  0.60046448  0.66525356  0.78795197  1
  O2-  O417  1  0.58320758  0.92634070  0.14645647  1
  O2-  O418  1  0.54615056  0.83524035  0.46487687  1
  O2-  O419  1  0.58457542  0.92596400  0.81641596  1
  O2-  O420  1  0.81234488  0.15287580  0.16349899  1
  O2-  O421  1  0.83905451  0.17341570  0.48293229  1
  O2-  O422  1  0.83132850  0.13591797  0.81810180  1
  O2-  O423  1  0.82980191  0.40573190  0.15416986  1
  O2-  O424  1  0.82426400  0.41306636  0.48949690  1
  O2-  O425  1  0.83552435  0.42615930  0.79947726  1
  O2-  O426  1  0.90331370  0.67720304  0.11294417  1
  O2-  O427  1  0.84659636  0.67410049  0.47675514  1
  O2-  O428  1  0.84064366  0.64742820  0.81725425  1
  O2-  O429  1  0.84793016  0.93510671  0.14734066  1
  O2-  O430  1  0.83605811  0.92512876  0.47361592  1
  O2-  O431  1  0.75527950  0.82139558  0.79732533  1
  O2-  O432  1  0.16093514  0.08096006  0.19176580  1
  O2-  O433  1  0.20580653  0.10520474  0.53588918  1
  O2-  O434  1  0.15593636  0.08424071  0.85680511  1
  O2-  O435  1  0.15953913  0.33163408  0.18392518  1
  O2-  O436  1  0.19243419  0.35752936  0.52069046  1
  O2-  O437  1  0.14988540  0.32825084  0.87040967  1
  O2-  O438  1  0.17346985  0.58720283  0.16691012  1
  O2-  O439  1  0.14894883  0.66734522  0.48647043  1
  O2-  O440  1  0.17439367  0.58034235  0.85455680  1
  O2-  O441  1  0.17059465  0.83218215  0.18472792  1
  O2-  O442  1  0.09462633  0.81214005  0.52964675  1
  O2-  O443  1  0.16907245  0.82919937  0.85540804  1
  O2-  O444  1  0.42375480  0.07132819  0.19607290  1
  O2-  O445  1  0.40726510  0.06470514  0.52515446  1
  O2-  O446  1  0.45004247  0.05051853  0.87699569  1
  O2-  O447  1  0.41454893  0.34589945  0.20173282  1
  O2-  O448  1  0.42405172  0.35118271  0.52620150  1
  O2-  O449  1  0.42011763  0.35332286  0.84409333  1
  O2-  O450  1  0.40409287  0.57529255  0.20531559  1
  O2-  O451  1  0.45664230  0.61567838  0.52225834  1
  O2-  O452  1  0.43596568  0.60090484  0.84961451  1
  O2-  O453  1  0.42629592  0.84335451  0.18917948  1
  O2-  O454  1  0.43286318  0.84048808  0.52486735  1
  O2-  O455  1  0.42049332  0.83014431  0.86066009  1
  O2-  O456  1  0.65797006  0.07802151  0.20395466  1
  O2-  O457  1  0.63752637  0.02433945  0.54367960  1
  O2-  O458  1  0.66797201  0.09187159  0.85765304  1
  O2-  O459  1  0.66704274  0.32091809  0.19184325  1
  O2-  O460  1  0.65561856  0.31961158  0.52130889  1
  O2-  O461  1  0.67143112  0.35537312  0.84451738  1
  O2-  O462  1  0.58431408  0.49047568  0.20054238  1
  O2-  O463  1  0.68798219  0.58938372  0.51645076  1
  O2-  O464  1  0.65813542  0.57781253  0.84256991  1
  O2-  O465  1  0.69142398  0.89063431  0.19687662  1
  O2-  O466  1  0.68719544  0.90880895  0.52485516  1
  O2-  O467  1  0.69188421  0.89339906  0.86605013  1
  O2-  O468  1  0.91902703  0.08959678  0.19204959  1
  O2-  O469  1  0.92194846  0.09326268  0.52223255  1
  O2-  O470  1  0.91511182  0.06303870  0.86318602  1
  O2-  O471  1  0.90870011  0.32472772  0.19124745  1
  O2-  O472  1  0.90745204  0.32340897  0.53528738  1
  O2-  O473  1  0.91193735  0.34933134  0.86410042  1
  O2-  O474  1  0.92635622  0.57502559  0.18693575  1
  O2-  O475  1  0.92585461  0.58538948  0.51940437  1
  O2-  O476  1  0.92949404  0.57878697  0.85797761  1
  O2-  O477  1  0.90965429  0.82175593  0.18359697  1
  O2-  O478  1  0.92314709  0.84281201  0.51659556  1
  O2-  O479  1  0.90270146  0.81730232  0.84588239  1
  O2-  O480  1  0.17043497  0.07791462  0.31417148  1
  O2-  O481  1  0.17232548  0.11808192  0.64825651  1
  O2-  O482  1  0.15923791  0.09289432  0.98033714  1
  O2-  O483  1  0.15383465  0.33331586  0.31225769  1
  O2-  O484  1  0.20060736  0.36254681  0.64892971  1
  O2-  O485  1  0.16616024  0.33674734  0.99428860  1
  O2-  O486  1  0.16933980  0.58565532  0.30860877  1
  O2-  O487  1  0.17836239  0.60727618  0.64073775  1
  O2-  O488  1  0.17575582  0.57806952  0.98107823  1
  O2-  O489  1  0.17489290  0.83478174  0.30766715  1
  O2-  O490  1  0.15319166  0.82385940  0.65128006  1
  O2-  O491  1  0.15417012  0.81192526  0.97366599  1
  O2-  O492  1  0.41700575  0.07851010  0.31165427  1
  O2-  O493  1  0.38495550  0.08483889  0.65181444  1
  O2-  O494  1  0.40804145  0.07893151  0.99505235  1
  O2-  O495  1  0.41207303  0.33494270  0.32408287  1
  O2-  O496  1  0.42885639  0.34864308  0.64656207  1
  O2-  O497  1  0.37688900  0.32434716  0.96747058  1
  O2-  O498  1  0.41563349  0.58077393  0.33157158  1
  O2-  O499  1  0.47143668  0.61595801  0.64984954  1
  O2-  O500  1  0.41753743  0.57875973  0.97527239  1
  O2-  O501  1  0.42001151  0.83820973  0.31315886  1
  O2-  O502  1  0.43793444  0.86501670  0.64466447  1
  O2-  O503  1  0.41390646  0.83366955  0.98303662  1
  O2-  O504  1  0.66111703  0.07664414  0.32534226  1
  O2-  O505  1  0.68291468  0.06482569  0.66345921  1
  O2-  O506  1  0.65694399  0.08523027  0.98198998  1
  O2-  O507  1  0.66490372  0.30716876  0.31639902  1
  O2-  O508  1  0.67200154  0.33015356  0.64241483  1
  O2-  O509  1  0.66642818  0.31779126  0.98052709  1
  O2-  O510  1  0.64402446  0.56258385  0.31158357  1
  O2-  O511  1  0.67469126  0.58448383  0.63659379  1
  O2-  O512  1  0.66670722  0.58005636  0.95630122  1
  O2-  O513  1  0.66879417  0.83435990  0.31608883  1
  O2-  O514  1  0.65847951  0.83676509  0.63677709  1
  O2-  O515  1  0.65306754  0.83194907  0.96874075  1
  O2-  O516  1  0.91565140  0.08318696  0.31264875  1
  O2-  O517  1  0.89452338  0.09025606  0.66679204  1
  O2-  O518  1  0.92580749  0.09562823  0.97938665  1
  O2-  O519  1  0.92242562  0.32917994  0.31276851  1
  O2-  O520  1  0.91574967  0.32030761  0.64986393  1
  O2-  O521  1  0.90036629  0.33660748  0.98561306  1
  O2-  O522  1  0.92426894  0.59196989  0.31164588  1
  O2-  O523  1  0.91498866  0.59158546  0.63877670  1
  O2-  O524  1  0.91068548  0.56910358  0.98006056  1
  O2-  O525  1  0.91805115  0.83169889  0.30387220  1
  O2-  O526  1  0.91145112  0.83719668  0.63576481  1
  O2-  O527  1  0.91783082  0.83168564  0.97030551  1
  O2-  O528  1  0.07713232  0.16587113  0.02507840  1
  O2-  O529  1  0.08425500  0.17018419  0.35326125  1
  O2-  O530  1  0.07807626  0.18100658  0.68797251  1
  O2-  O531  1  0.07950026  0.41293647  0.02507810  1
  O2-  O532  1  0.08236327  0.41728617  0.35450658  1
  O2-  O533  1  0.05935891  0.35416849  0.70400650  1
  O2-  O534  1  0.08035523  0.64717897  0.02226840  1
  O2-  O535  1  0.08632795  0.67066920  0.34631609  1
  O2-  O536  1  0.07586810  0.66418956  0.68943150  1
  O2-  O537  1  0.09176222  0.93318721  0.01728563  1
  O2-  O538  1  0.07932142  0.89229630  0.35348229  1
  O2-  O539  1  0.07834967  0.92030082  0.69155315  1
  O2-  O540  1  0.32364215  0.16171720  0.02625391  1
  O2-  O541  1  0.33477415  0.16397066  0.35280610  1
  O2-  O542  1  0.31841683  0.19743009  0.68739587  1
  O2-  O543  1  0.33228119  0.42242377  0.02789429  1
  O2-  O544  1  0.35214350  0.42533358  0.36927313  1
  O2-  O545  1  0.38287319  0.46133357  0.67589799  1
  O2-  O546  1  0.34169756  0.66531983  0.02291360  1
  O2-  O547  1  0.33585519  0.68154840  0.35646372  1
  O2-  O548  1  0.37072050  0.68376573  0.68690547  1
  O2-  O549  1  0.32559676  0.90673304  0.02630765  1
  O2-  O550  1  0.33464963  0.91526321  0.35209919  1
  O2-  O551  1  0.35572655  0.93907027  0.71052078  1
  O2-  O552  1  0.57411808  0.15173007  0.03593037  1
  O2-  O553  1  0.56994854  0.14935277  0.36283556  1
  O2-  O554  1  0.62134619  0.16491972  0.69345753  1
  O2-  O555  1  0.57561532  0.40471413  0.00290766  1
  O2-  O556  1  0.56419454  0.40363972  0.36622381  1
  O2-  O557  1  0.59160143  0.42029609  0.67987343  1
  O2-  O558  1  0.58808497  0.65880691  -0.00401184  1
  O2-  O559  1  0.58382242  0.66740960  0.35419537  1
  O2-  O560  1  0.56405034  0.65371640  0.66698502  1
  O2-  O561  1  0.58333109  0.91691348  0.02306520  1
  O2-  O562  1  0.57954790  0.90546146  0.35894509  1
  O2-  O563  1  0.56918792  0.88052157  0.70517101  1
  O2-  O564  1  0.81711178  0.16423880  0.00429970  1
  O2-  O565  1  0.83381718  0.16307610  0.35446220  1
  O2-  O566  1  0.84806432  0.13216503  0.69063404  1
  O2-  O567  1  0.78436787  0.43861003  0.04688816  1
  O2-  O568  1  0.90074477  0.45042333  0.37507069  1
  O2-  O569  1  0.84020438  0.42129322  0.67710435  1
  O2-  O570  1  0.83315581  0.66201026  0.00080757  1
  O2-  O571  1  0.80252528  0.68992542  0.36557536  1
  O2-  O572  1  0.83407123  0.67495284  0.66316862  1
  O2-  O573  1  0.85290133  0.93673191  0.02215312  1
  O2-  O574  1  0.83434922  0.91628543  0.35337100  1
  O2-  O575  1  0.81465148  0.90715254  0.68905579  1
