# generated using pymatgen
data_H2O
_symmetry_space_group_name_H-M   'P 1'
_cell_length_a   17.98835356
_cell_length_b   17.99319693
_cell_length_c   22.00701885
_cell_angle_alpha   89.96689016
_cell_angle_beta   90.02917357
_cell_angle_gamma   120.00207042
_symmetry_Int_Tables_number   1
_chemical_formula_structural   H2O
_chemical_formula_sum   'H384 O192'
_cell_volume   6168.54089154
_cell_formula_units_Z   192
loop_
 _symmetry_equiv_pos_site_id
 _symmetry_equiv_pos_as_xyz
  1  'x, y, z'
loop_
 _atom_type_symbol
 _atom_type_oxidation_number
  H+  1.0
  O2-  -2.0
loop_
 _atom_site_type_symbol
 _atom_site_label
 _atom_site_symmetry_multiplicity
 _atom_site_fract_x
 _atom_site_fract_y
 _atom_site_fract_z
 _atom_site_occupancy
  H+  H0  1  0.63253219  0.10514436  0.65760686  1
  H+  H1  1  0.64131791  0.62844031  0.50472867  1
  H+  H2  1  0.64898595  0.76785121  0.32939628  1
  H+  H3  1  0.26760203  0.88205850  0.82495117  1
  H+  H4  1  0.15024263  0.79067897  0.50317653  1
  H+  H5  1  0.63127893  0.52050085  0.83171973  1
  H+  H6  1  0.37130197  0.64473700  0.16241020  1
  H+  H7  1  0.22798617  0.11688882  0.83174579  1
  H+  H8  1  0.63198242  0.86936740  0.51965054  1
  H+  H9  1  0.87104225  0.85354653  0.84257586  1
  H+  H10  1  0.14127185  0.61812126  0.32379430  1
  H+  H11  1  0.77093405  0.88824903  0.33726622  1
  H+  H12  1  0.74348863  0.89807732  0.66813749  1
  H+  H13  1  0.14472116  0.38900832  0.00468899  1
  H+  H14  1  0.01754548  0.62606409  0.49497608  1
  H+  H15  1  0.86882846  0.38887132  0.50067045  1
  H+  H16  1  0.63438237  0.36547369  -0.02196170  1
  H+  H17  1  0.12150764  -0.01091666  0.16699316  1
  H+  H18  1  0.59853869  0.47207751  0.98246380  1
  H+  H19  1  0.29056658  0.63531677  0.67162843  1
  H+  H20  1  0.66822528  0.83665125  0.27646020  1
  H+  H21  1  0.42991145  0.34910723  0.60641639  1
  H+  H22  1  0.26264683  0.12277591  0.00397305  1
  H+  H23  1  0.63604741  0.27891837  0.82508952  1
  H+  H24  1  0.98280476  0.63997407  0.36154462  1
  H+  H25  1  0.39681654  1.00544245  0.66649847  1
  H+  H26  1  0.09591051  0.38652776  0.34920267  1
  H+  H27  1  0.62313802  0.85455231  0.98498498  1
  H+  H28  1  0.14852319  0.28460368  0.15594869  1
  H+  H29  1  0.83394880  -0.03642593  1.00824003  1
  H+  H30  1  0.75939001  0.88607940  0.82505914  1
  H+  H31  1  0.98684691  0.38401783  0.65583271  1
  H+  H32  1  0.24470992  0.87024396  0.32046581  1
  H+  H33  1  0.37316636  0.39778021  0.16433242  1
  H+  H34  1  0.77005177  0.38649492  0.99479428  1
  H+  H35  1  0.63967886  0.00483618  0.17089806  1
  H+  H36  1  0.15295761  0.29696730  1.01006671  1
  H+  H37  1  0.58425237  0.42576356  0.43867005  1
  H+  H38  1  0.35436495  -0.02855009  0.82287589  1
  H+  H39  1  0.51603496  0.39470318  0.14205275  1
  H+  H40  1  0.39835137  0.52295549  0.66348765  1
  H+  H41  1  0.50780222  0.91594072  0.13510023  1
  H+  H42  1  0.12327173  0.48856044  1.00080490  1
  H+  H43  1  0.12378836  0.73386266  0.15164290  1
  H+  H44  1  0.05856273  0.17216814  0.00692042  1
  H+  H45  1  0.24541569  0.38923497  1.00714978  1
  H+  H46  1  0.14970184  0.85927856  0.32251713  1
  H+  H47  1  0.14911240  0.61737014  0.65491984  1
  H+  H48  1  0.92105739  0.60183478  0.19058727  1
  H+  H49  1  0.37427842  0.31659475  0.28833726  1
  H+  H50  1  0.10004588  0.67345017  0.39613827  1
  H+  H51  1  0.41196019  0.76105611  0.84664317  1
  H+  H52  1  0.37462689  0.13836815  0.35879875  1
  H+  H53  1  0.37900734  0.88965043  0.33213406  1
  H+  H54  1  0.34010382  0.66651327  0.26093987  1
  H+  H55  1  0.88159065  0.86014338  0.17309708  1
  H+  H56  1  0.36858848  0.14726140  0.16440870  1
  H+  H57  1  0.96099939  0.85843698  0.84186361  1
  H+  H58  1  0.86970879  0.89693674  0.33084235  1
  H+  H59  1  0.40827278  0.32858589  0.89634166  1
  H+  H60  1  0.91716157  0.58487530  0.56855807  1
  H+  H61  1  0.62130890  0.11668630  -0.01380976  1
  H+  H62  1  0.60102529  0.99460888  0.03166964  1
  H+  H63  1  0.90319117  0.54949225  0.37026884  1
  H+  H64  1  0.28463860  0.63885891  0.82526613  1
  H+  H65  1  0.87887497  0.32440936  0.25423052  1
  H+  H66  1  0.13068836  0.73542674  0.33694877  1
  H+  H67  1  1.02662394  0.87325848  0.33193989  1
  H+  H68  1  0.62647827  0.81131599  0.17880432  1
  H+  H69  1  0.62364289  0.90315079  0.68631251  1
  H+  H70  1  0.68145864  0.29019575  0.21535348  1
  H+  H71  1  0.62678573  0.62334605  0.31561549  1
  H+  H72  1  0.87792116  0.50954058  -0.02224488  1
  H+  H73  1  0.37162922  0.73560453  0.15892240  1
  H+  H74  1  0.86808183  0.38774149  0.82134774  1
  H+  H75  1  0.31919809  0.22927088  0.36750393  1
  H+  H76  1  0.53703201  0.12927805  0.33476072  1
  H+  H77  1  1.02322857  0.90289828  1.01607868  1
  H+  H78  1  0.89205722  0.12708165  0.16754832  1
  H+  H79  1  0.87660517  0.39831087  0.14648860  1
  H+  H80  1  0.59453717  -0.03179465  0.50372617  1
  H+  H81  1  0.86872686  0.76847798  0.67207604  1
  H+  H82  1  0.10874388  0.71572756  0.49271882  1
  H+  H83  1  0.12136489  0.25735560  0.81965651  1
  H+  H84  1  0.36147431  0.22358031  0.82656875  1
  H+  H85  1  0.89006417  0.37997010  0.65338520  1
  H+  H86  1  0.35639771  0.46982511  0.82843773  1
  H+  H87  1  0.89129773  0.11929881  0.84842729  1
  H+  H88  1  0.51070056  0.62395301  0.83241860  1
  H+  H89  1  0.75287095  0.14723528  1.00640690  1
  H+  H90  1  0.11209904  0.92119529  0.48268371  1
  H+  H91  1  0.11601003  0.26921785  0.64962953  1
  H+  H92  1  0.84149446  0.16776006  0.76865819  1
  H+  H93  1  0.31211818  0.91568811  0.47745544  1
  H+  H94  1  0.38986888  0.60980988  0.83873649  1
  H+  H95  1  0.39066339  0.52787007  0.99498824  1
  H+  H96  1  0.85249726  0.63759027  0.67283825  1
  H+  H97  1  0.63582386  0.09489483  0.32496962  1
  H+  H98  1  0.87954558  0.15757673  0.50178470  1
  H+  H99  1  0.86259267  0.59315840  0.97241445  1
  H+  H100  1  0.87265984  0.11566629  0.32646042  1
  H+  H101  1  0.72752374  0.61859974  0.15411357  1
  H+  H102  1  0.97299320  0.61576716  0.65887767  1
  H+  H103  1  0.59639566  0.46203799  0.33386986  1
  H+  H104  1  0.61203837  0.87697531  0.35687278  1
  H+  H105  1  0.23136962  0.86151246  0.67228685  1
  H+  H106  1  0.10112023  0.87760511  0.67990870  1
  H+  H107  1  0.10649724  0.11908781  0.81274005  1
  H+  H108  1  0.89418681  0.77346366  0.51543191  1
  H+  H109  1  0.77524001  0.11957009  0.16470393  1
  H+  H110  1  0.96753283  0.83207955  0.56219166  1
  H+  H111  1  0.61716606  0.48586318  0.49788114  1
  H+  H112  1  0.72717826  0.87899870  0.52200615  1
  H+  H113  1  0.39582670  0.37684320  0.66369081  1
  H+  H114  1  0.10790432  0.85376183  0.83558279  1
  H+  H115  1  0.61048338  0.48037976  0.69023979  1
  H+  H116  1  0.48763683  0.62552443  0.51348254  1
  H+  H117  1  0.91227563  0.57215847  0.91202822  1
  H+  H118  1  0.10930671  0.10695147  0.32179264  1
  H+  H119  1  0.38924905  0.61634861  0.99428612  1
  H+  H120  1  0.61907969  0.35310037  0.35025273  1
  H+  H121  1  0.72097052  0.54250340  0.29403132  1
  H+  H122  1  0.13990702  0.02270441  0.66906829  1
  H+  H123  1  0.27089396  0.88950820  0.15611333  1
  H+  H124  1  0.64646609  0.37529833  0.66182179  1
  H+  H125  1  0.52286997  0.63643446  0.00594276  1
  H+  H126  1  0.42372720  0.83383102  0.60572897  1
  H+  H127  1  0.76898396  0.32446141  0.25232922  1
  H+  H128  1  0.12090452  0.63384518  0.82361674  1
  H+  H129  1  0.36905365  0.11709470  0.68461938  1
  H+  H130  1  0.12068578  0.27424259  0.33973826  1
  H+  H131  1  -0.01421224  0.12828844  0.51475401  1
  H+  H132  1  0.88423376  0.78926828  0.33130008  1
  H+  H133  1  0.35989196  0.87393453  0.67575471  1
  H+  H134  1  0.26727222  0.37972284  0.82353411  1
  H+  H135  1  0.61630671  0.23260374  0.49081375  1
  H+  H136  1  0.56516157  0.05567913  0.83058166  1
  H+  H137  1  0.29694427  0.07911860  0.04814709  1
  H+  H138  1  0.88994204  0.51831131  0.82906501  1
  H+  H139  1  0.34550031  0.42426697  0.06957076  1
  H+  H140  1  0.50376676  0.38020193  0.34738212  1
  H+  H141  1  0.86249953  0.63583564  0.82584434  1
  H+  H142  1  0.36229238  0.93046700  0.39136062  1
  H+  H143  1  0.86224641  0.90392965  0.51917247  1
  H+  H144  1  0.19464612  0.10831948  0.33203608  1
  H+  H145  1  0.86194136  0.35774806  0.31819036  1
  H+  H146  1  0.39472174  0.53205841  0.16988778  1
  H+  H147  1  1.03610097  0.64660779  0.13886151  1
  H+  H148  1  0.86862193  0.14516722  0.68186178  1
  H+  H149  1  0.36999703  0.73982984  0.49558988  1
  H+  H150  1  0.15165224  0.13169445  -0.01045922  1
  H+  H151  1  0.60039902  0.39119914  0.13331413  1
  H+  H152  1  0.43209808  0.58530658  0.60633796  1
  H+  H153  1  0.64109589  0.36799645  0.83415746  1
  H+  H154  1  0.11883268  0.14160253  0.16096686  1
  H+  H155  1  0.88841558  0.27930342  0.16589423  1
  H+  H156  1  0.37726154  0.10759778  0.83723105  1
  H+  H157  1  0.36093736  0.38663072  1.00656797  1
  H+  H158  1  0.14764585  0.30535097  0.88238836  1
  H+  H159  1  0.33825056  0.18195350  0.10831995  1
  H+  H160  1  0.86841384  0.65788201  0.36620862  1
  H+  H161  1  0.89371932  0.37183422  -0.01164883  1
  H+  H162  1  0.96156507  0.44531047  0.37382176  1
  H+  H163  1  0.63072563  0.00533693  0.33884627  1
  H+  H164  1  0.68391711  0.34423376  0.30445027  1
  H+  H165  1  0.88396273  0.52760740  0.65884731  1
  H+  H166  1  0.12023058  0.48569687  0.66493857  1
  H+  H167  1  0.11521334  0.48237438  0.16064077  1
  H+  H168  1  0.48216915  0.37004272  0.51042898  1
  H+  H169  1  0.85997887  0.98993801  0.32969833  1
  H+  H170  1  0.71314661  0.85740913  0.98826993  1
  H+  H171  1  0.39292021  0.36969761  0.51141722  1
  H+  H172  1  0.01931825  0.91029659  0.48521753  1
  H+  H173  1  0.88816173  0.61291479  0.50878828  1
  H+  H174  1  0.77525105  0.39241583  0.66541437  1
  H+  H175  1  0.63825097  0.53074384  0.15064124  1
  H+  H176  1  0.13319366  0.03471674  0.98898075  1
  H+  H177  1  1.01770359  0.08044138  0.77896120  1
  H+  H178  1  0.13425027  0.72773481  -0.00395516  1
  H+  H179  1  0.61073728  0.72367730  0.00016810  1
  H+  H180  1  0.61741153  0.23633664  0.35202841  1
  H+  H181  1  0.46737918  0.10705919  0.16305317  1
  H+  H182  1  0.62548897  0.61066276  -0.01516536  1
  H+  H183  1  0.60524185  0.72096913  0.82813474  1
  H+  H184  1  0.37113726  0.48548628  0.50373195  1
  H+  H185  1  0.89928902  0.28218100  0.50978134  1
  H+  H186  1  0.90171179  0.28264231  0.83648644  1
  H+  H187  1  0.10733430  -0.02202548  0.82571229  1
  H+  H188  1  0.55613756  0.06201350  0.12028275  1
  H+  H189  1  0.36917586  0.23104606  0.50925344  1
  H+  H190  1  0.64164963  0.36784832  0.50485574  1
  H+  H191  1  0.79516432  0.15355086  0.83404824  1
  H+  H192  1  0.33761747  0.79836740  0.54815858  1
  H+  H193  1  0.36636695  0.14028036  0.50981854  1
  H+  H194  1  0.48600569  0.86344580  0.32728771  1
  H+  H195  1  0.11638672  0.23712330  0.49407347  1
  H+  H196  1  0.89667792  0.78310489  0.17302326  1
  H+  H197  1  0.77758431  0.38615291  0.81945355  1
  H+  H198  1  0.52464557  0.22693620  0.76198068  1
  H+  H199  1  0.35845318  0.47730061  0.34928842  1
  H+  H200  1  0.63984650  0.02255124  0.66670035  1
  H+  H201  1  0.52569142  0.14318900  0.49556573  1
  H+  H202  1  -0.01726654  0.60619120  0.83186171  1
  H+  H203  1  0.28320826  0.39592038  0.15209161  1
  H+  H204  1  0.28024657  0.39628641  0.50233148  1
  H+  H205  1  0.15984172  0.09220780  0.23786503  1
  H+  H206  1  0.08795887  0.78644955  0.88718424  1
  H+  H207  1  0.10885169  0.48024323  0.34431785  1
  H+  H208  1  0.48257584  0.12023021  0.98462136  1
  H+  H209  1  1.01148139  0.87851418  0.67624396  1
  H+  H210  1  0.29238613  0.16558220  0.42295320  1
  H+  H211  1  0.02986722  0.39650241  0.82151377  1
  H+  H212  1  0.28099692  0.12048046  0.68200672  1
  H+  H213  1  0.89339741  0.03992951  0.16966237  1
  H+  H214  1  0.76503677  0.12612656  0.34632630  1
  H+  H215  1  0.03027672  0.14536637  0.15673183  1
  H+  H216  1  0.61080931  0.14751148  0.15619931  1
  H+  H217  1  0.39521203  0.61374381  0.31968828  1
  H+  H218  1  0.37774749  -0.01886563  1.00184964  1
  H+  H219  1  0.00624049  0.13554926  0.34804939  1
  H+  H220  1  0.39640513  0.77896223  0.31154533  1
  H+  H221  1  0.61547819  0.23766694  -0.00092162  1
  H+  H222  1  0.77937483  0.65447830  0.35067188  1
  H+  H223  1  0.97952183  0.36776952  0.16900722  1
  H+  H224  1  0.85830752  0.72372003  0.82963088  1
  H+  H225  1  0.39880670  0.28011367  0.17938766  1
  H+  H226  1  0.92696186  0.34183912  0.89576008  1
  H+  H227  1  0.39743190  0.77252637  0.66368023  1
  H+  H228  1  0.60814283  0.62717922  0.82465169  1
  H+  H229  1  0.89299654  0.53610071  0.13767000  1
  H+  H230  1  0.24393417  0.86626663  0.99547516  1
  H+  H231  1  0.22874464  0.12708743  0.18163252  1
  H+  H232  1  0.58151344  0.41400676  0.76947550  1
  H+  H233  1  0.87164025  0.84894822  0.01553915  1
  H+  H234  1  0.86531826  0.99306597  0.51637201  1
  H+  H235  1  0.79379063  0.40172027  0.16063808  1
  H+  H236  1  0.72825398  0.36297724  0.50375608  1
  H+  H237  1  0.38332867  0.88893332  0.49043106  1
  H+  H238  1  0.14299267  0.37116171  0.50422371  1
  H+  H239  1  0.49708662  0.14927087  0.80708925  1
  H+  H240  1  0.72100896  0.61171309  0.83162552  1
  H+  H241  1  0.53322417  0.89875964  0.68381654  1
  H+  H242  1  0.67283993  0.91424013  0.19884273  1
  H+  H243  1  0.46476869  0.34719199  0.22887250  1
  H+  H244  1  0.11339754  0.72069034  0.67336864  1
  H+  H245  1  0.13763859  1.04794910  0.51263861  1
  H+  H246  1  0.46845532  0.35769769  -0.01536844  1
  H+  H247  1  0.86453157  0.47538369  0.49758155  1
  H+  H248  1  0.89335953  0.78831409  -0.02144333  1
  H+  H249  1  0.42642582  0.01522707  0.31358300  1
  H+  H250  1  0.12309232  0.48099991  0.49520340  1
  H+  H251  1  0.23134128  0.12816135  0.52179644  1
  H+  H252  1  0.41053748  1.03134209  0.50962294  1
  H+  H253  1  0.41037905  0.13434522  0.34423831  1
  H+  H254  1  0.87766235  0.91059026  0.68501054  1
  H+  H255  1  0.38383861  0.36015913  0.83591298  1
  H+  H256  1  0.87577149  0.66171234  0.12616987  1
  H+  H257  1  0.50708350  0.87554997  0.50504209  1
  H+  H258  1  0.14044203  0.86931024  0.17124085  1
  H+  H259  1  0.54440672  0.91847824  0.83585886  1
  H+  H260  1  0.14829639  0.52942628  0.83480856  1
  H+  H261  1  0.43596147  0.08216135  0.57314972  1
  H+  H262  1  0.74995379  0.86199802  0.16355180  1
  H+  H263  1  0.15182667  0.88792124  0.49845348  1
  H+  H264  1  0.36996155  0.72787296  0.00986357  1
  H+  H265  1  0.77396615  0.64554980  0.50987465  1
  H+  H266  1  0.62514214  0.75192087  0.50569597  1
  H+  H267  1  0.38085214  0.63630529  0.67486010  1
  H+  H268  1  0.14700604  0.61673846  -0.01183733  1
  H+  H269  1  0.24308542  0.61952968  0.50052954  1
  H+  H270  1  0.38416216  0.87046385  0.16833388  1
  H+  H271  1  0.62926570  0.10485360  0.50896765  1
  H+  H272  1  0.37706409  0.89177425  0.00746895  1
  H+  H273  1  0.74543036  0.60429634  -0.01558118  1
  H+  H274  1  0.37011326  0.36834506  0.34521942  1
  H+  H275  1  0.39876903  0.62424554  0.51215659  1
  H+  H276  1  0.67409148  0.56698903  0.24361834  1
  H+  H277  1  0.48370073  0.86922177  1.01334691  1
  H+  H278  1  0.11755910  0.15011003  0.50159998  1
  H+  H279  1  0.92590730  0.09501921  1.01273706  1
  H+  H280  1  0.11312987  0.38796719  0.81505552  1
  H+  H281  1  1.03278711  0.90084619  0.16485591  1
  H+  H282  1  0.84729971  0.97349464  0.83885366  1
  H+  H283  1  0.83442007  0.13764366  0.00740611  1
  H+  H284  1  0.51974753  0.67165256  0.15790215  1
  H+  H285  1  0.48202220  0.60789508  0.32577266  1
  H+  H286  1  0.52343851  0.38574939  0.83029256  1
  H+  H287  1  0.60694557  0.83519517  0.83741265  1
  H+  H288  1  0.27360736  0.63627655  0.31354812  1
  H+  H289  1  0.06058902  0.15138065  0.70389483  1
  H+  H290  1  0.60670253  0.63482060  0.38196693  1
  H+  H291  1  0.37628965  0.02533364  0.16965144  1
  H+  H292  1  0.20789303  0.36259423  0.34356007  1
  H+  H293  1  0.17222641  0.84196515  0.61285949  1
  H+  H294  1  0.81847605  0.16644045  0.10147333  1
  H+  H295  1  0.33020744  0.90683705  0.73518711  1
  H+  H296  1  0.65290458  0.81898542  0.89256420  1
  H+  H297  1  0.43129633  0.85057261  0.22275827  1
  H+  H298  1  0.33625997  0.92211117  0.09869208  1
  H+  H299  1  0.86149052  0.72761782  0.08388574  1
  H+  H300  1  0.84669553  0.94395515  0.74073061  1
  H+  H301  1  0.58171738  0.17027103  0.05678767  1
  H+  H302  1  0.63847837  0.06365588  0.93518375  1
  H+  H303  1  0.17317952  0.09032806  0.61562347  1
  H+  H304  1  0.14703839  0.37335022  0.15637864  1
  H+  H305  1  0.67506160  0.85269684  0.61619143  1
  H+  H306  1  0.80108677  0.89522311  0.06395185  1
  H+  H307  1  0.08756156  0.91883112  0.38627848  1
  H+  H308  1  0.64797121  0.59605518  0.56877363  1
  H+  H309  1  0.90924017  0.09173775  0.26620897  1
  H+  H310  1  0.33220679  0.42460005  0.41268539  1
  H+  H311  1  0.22974126  0.61723802  0.17165262  1
  H+  H312  1  0.88834694  0.28201176  0.99240768  1
  H+  H313  1  0.55457481  0.60198627  0.65098700  1
  H+  H314  1  0.88308113  0.83026411  0.61638593  1
  H+  H315  1  0.89517418  0.07872883  0.94308970  1
  H+  H316  1  -0.01084852  0.37570143  0.51016306  1
  H+  H317  1  0.83821243  0.41900860  0.72414517  1
  H+  H318  1  0.52559503  0.12685204  0.71374142  1
  H+  H319  1  0.14172881  0.61845211  0.16778628  1
  H+  H320  1  0.26858671  0.38640832  0.67174968  1
  H+  H321  1  0.45204118  0.08027871  0.25717007  1
  H+  H322  1  0.75567093  0.79142683  0.12638236  1
  H+  H323  1  0.84787762  0.18480445  0.44215496  1
  H+  H324  1  0.08516284  0.42652475  0.10014019  1
  H+  H325  1  0.77268682  0.13148934  0.68199206  1
  H+  H326  1  0.91283043  0.58857311  0.26526214  1
  H+  H327  1  0.38063335  0.26936349  0.99277954  1
  H+  H328  1  0.17784036  0.58684862  0.89545548  1
  H+  H329  1  0.67462930  0.03677485  0.23921324  1
  H+  H330  1  0.83885081  0.22015679  0.33443196  1
  H+  H331  1  0.57969252  0.70280356  0.09982933  1
  H+  H332  1  0.67139864  0.34249254  0.60170448  1
  H+  H333  1  0.92675294  1.05429442  0.67285172  1
  H+  H334  1  0.08489621  0.42670217  0.72514672  1
  H+  H335  1  0.07125495  0.16299760  0.40478007  1
  H+  H336  1  0.33607554  0.66655878  0.06744117  1
  H+  H337  1  0.32602986  0.41502777  0.73200489  1
  H+  H338  1  0.87664510  0.42508801  0.40993220  1
  H+  H339  1  0.33432854  0.15736421  0.76912359  1
  H+  H340  1  0.34699491  0.66651410  0.76679570  1
  H+  H341  1  0.10592636  0.67055019  0.05521860  1
  H+  H342  1  0.82973646  0.67865553  0.44930496  1
  H+  H343  1  0.42137883  0.58384636  0.23225370  1
  H+  H344  1  0.65051232  0.58253893  0.92031420  1
  H+  H345  1  0.19088316  0.85077046  0.93571147  1
  H+  H346  1  0.58243251  0.16499452  0.41052801  1
  H+  H347  1  0.16696089  0.09183659  0.89026986  1
  H+  H348  1  0.16875569  0.33971136  0.56460306  1
  H+  H349  1  0.12806562  0.36298645  0.65624932  1
  H+  H350  1  0.38902302  0.10959138  0.98312560  1
  H+  H351  1  0.41772377  0.58115587  0.90053686  1
  H+  H352  1  0.83119701  0.42011459  0.05429483  1
  H+  H353  1  0.19317031  0.86311926  0.56137269  1
  H+  H354  1  0.10217245  0.18469945  0.07334685  1
  H+  H355  1  0.42056088  0.08147441  0.89053071  1
  H+  H356  1  0.92073277  0.55098891  0.26343770  1
  H+  H357  1  0.08273776  0.42185085  0.43600497  1
  H+  H358  1  0.35672273  0.67801071  0.43560627  1
  H+  H359  1  0.17409212  0.83549940  0.22685412  1
  H+  H360  1  0.92722190  0.34899872  0.58894058  1
  H+  H361  1  0.91322465  0.84114306  0.26707933  1
  H+  H362  1  0.65909254  0.07405119  0.56727603  1
  H+  H363  1  0.64232212  0.04736913  0.80925410  1
  H+  H364  1  0.82892295  0.66483823  0.73608487  1
  H+  H365  1  0.52469314  0.39126401  0.67891188  1
  H+  H366  1  0.66779483  0.33192502  0.92267838  1
  H+  H367  1  0.07090757  0.91607766  0.76783272  1
  H+  H368  1  0.58171351  0.70683086  0.44377646  1
  H+  H369  1  0.57424036  0.90467561  0.41418916  1
  H+  H370  1  0.70909384  0.62178009  0.68526825  1
  H+  H371  1  0.57278347  0.41558264  0.04238375  1
  H+  H372  1  0.18311445  0.59015674  0.59630032  1
  H+  H373  1  0.15038021  0.61382775  0.50150226  1
  H+  H374  1  0.79713377  0.60802556  0.04372682  1
  H+  H375  1  0.23427579  0.61177487  0.99003836  1
  H+  H376  1  0.08314002  0.65444931  0.72781044  1
  H+  H377  1  0.09196708  0.94088909  0.06787481  1
  H+  H378  1  0.16129160  0.58110435  0.26358642  1
  H+  H379  1  0.97275230  0.10731855  0.85521422  1
  H+  H380  1  0.44506579  0.83602816  0.94637321  1
  H+  H381  1  0.10817047  0.71661121  0.81945314  1
  H+  H382  1  0.03316778  0.39548625  0.00180304  1
  H+  H383  1  0.93470875  0.10945187  0.57701380  1
  O2-  O384  1  0.08984409  0.17152649  0.14070299  1
  O2-  O385  1  0.08361812  0.17478545  0.48310351  1
  O2-  O386  1  0.06321626  0.13472058  0.79547533  1
  O2-  O387  1  0.08298164  0.42177646  0.14507896  1
  O2-  O388  1  0.08681321  0.42005776  0.48221622  1
  O2-  O389  1  0.08923771  0.42504632  0.80371808  1
  O2-  O390  1  0.09936848  0.67400489  0.13554678  1
  O2-  O391  1  0.07959563  0.65497778  0.47942010  1
  O2-  O392  1  0.08380494  0.65589724  0.80601756  1
  O2-  O393  1  0.09295542  0.92927725  0.15023179  1
  O2-  O394  1  0.07892218  0.94882989  0.46957807  1
  O2-  O395  1  0.07143904  0.91654320  0.81341685  1
  O2-  O396  1  0.34305557  0.18440661  0.15307025  1
  O2-  O397  1  0.33349033  0.16881664  0.49834787  1
  O2-  O398  1  0.32969302  0.16143566  0.81564683  1
  O2-  O399  1  0.34813988  0.42864788  0.14362006  1
  O2-  O400  1  0.34139931  0.42554942  0.48764634  1
  O2-  O401  1  0.32850359  0.41054396  0.81145660  1
  O2-  O402  1  0.33757648  0.67292022  0.14968795  1
  O2-  O403  1  0.34908362  0.67553670  0.47951518  1
  O2-  O404  1  0.34612678  0.66502617  0.81244179  1
  O2-  O405  1  0.33341988  0.92285748  0.14424833  1
  O2-  O406  1  0.37264150  0.93645566  0.47010128  1
  O2-  O407  1  0.32548267  0.91108397  0.80797357  1
  O2-  O408  1  0.56269507  0.12009135  0.12802729  1
  O2-  O409  1  0.58390879  0.17151728  0.47529290  1
  O2-  O410  1  0.54523156  0.19043379  0.77916990  1
  O2-  O411  1  0.57250224  0.42298191  0.11993030  1
  O2-  O412  1  0.58950832  0.42535158  0.48359078  1
  O2-  O413  1  0.58440551  0.41662076  0.81596764  1
  O2-  O414  1  0.57297269  0.72036405  0.14100056  1
  O2-  O415  1  0.59527676  0.69307482  0.48355590  1
  O2-  O416  1  0.57305486  0.65700293  0.81495925  1
  O2-  O417  1  0.55804751  0.96927945  0.11606392  1
  O2-  O418  1  0.56635152  0.90553641  0.48937077  1
  O2-  O419  1  0.52625411  0.85696422  0.82958084  1
  O2-  O420  1  0.82934533  0.16555287  0.14600668  1
  O2-  O421  1  0.85538214  0.19329451  0.48643864  1
  O2-  O422  1  0.85186551  0.17543547  0.81608202  1
  O2-  O423  1  0.84335219  0.42674185  0.13241337  1
  O2-  O424  1  0.83742619  0.41567832  0.48128956  1
  O2-  O425  1  0.83833457  0.41782730  0.80474651  1
  O2-  O426  1  0.84259129  0.69239663  0.12156140  1
  O2-  O427  1  0.83433439  0.67459725  0.49418671  1
  O2-  O428  1  0.82896688  0.66308310  0.81278588  1
  O2-  O429  1  0.78960134  0.85272721  0.13569219  1
  O2-  O430  1  0.83046587  0.93124440  0.50466429  1
  O2-  O431  1  0.82205927  0.91861869  0.81627194  1
  O2-  O432  1  0.16667505  0.09494015  0.19080673  1
  O2-  O433  1  0.16967625  0.10302806  0.53448667  1
  O2-  O434  1  0.16556145  0.08767183  0.84512213  1
  O2-  O435  1  0.18453698  0.34765223  0.15305960  1
  O2-  O436  1  0.17462819  0.34206929  0.51935271  1
  O2-  O437  1  0.15245408  0.31467494  0.83851185  1
  O2-  O438  1  0.16866643  0.58587776  0.18534999  1
  O2-  O439  1  0.18337680  0.58767135  0.51778001  1
  O2-  O440  1  0.17896939  0.58984119  0.84979744  1
  O2-  O441  1  0.17002258  0.83624628  0.18144927  1
  O2-  O442  1  0.18790444  0.85805921  0.51288570  1
  O2-  O443  1  0.12677555  0.81345722  0.85290723  1
  O2-  O444  1  0.41125859  0.08696717  0.18341551  1
  O2-  O445  1  0.43111039  0.08887859  0.52864214  1
  O2-  O446  1  0.41356461  0.08013922  0.84542373  1
  O2-  O447  1  0.43328332  0.34322784  0.19166372  1
  O2-  O448  1  0.42218689  0.33824240  0.52595198  1
  O2-  O449  1  0.41493294  0.33088543  0.85144387  1
  O2-  O450  1  0.41997979  0.59112372  0.18748943  1
  O2-  O451  1  0.42727223  0.59238687  0.52773226  1
  O2-  O452  1  0.41900807  0.57798035  0.85487988  1
  O2-  O453  1  0.42302178  0.84653336  0.17776260  1
  O2-  O454  1  0.38916982  0.81960783  0.52320878  1
  O2-  O455  1  0.45239749  0.81355832  0.87073281  1
  O2-  O456  1  0.68932757  0.02231063  0.19876261  1
  O2-  O457  1  0.64818786  0.06494955  0.52285150  1
  O2-  O458  1  0.60349529  0.03497044  0.84367284  1
  O2-  O459  1  0.72965132  0.34261082  0.23141341  1
  O2-  O460  1  0.66755213  0.33282139  0.51828268  1
  O2-  O461  1  0.67111538  0.33510648  0.84539433  1
  O2-  O462  1  0.67140557  0.58437984  0.17419260  1
  O2-  O463  1  0.66408058  0.59501831  0.52559387  1
  O2-  O464  1  0.65912704  0.58298908  0.84437118  1
  O2-  O465  1  0.67294345  0.85932870  0.20382802  1
  O2-  O466  1  0.66512411  0.84178360  0.53446686  1
  O2-  O467  1  0.64938845  0.81588861  0.84715792  1
  O2-  O468  1  0.92397180  0.09873203  0.18483754  1
  O2-  O469  1  0.92630385  0.10142108  0.53257381  1
  O2-  O470  1  0.91336720  0.08449842  0.87000938  1
  O2-  O471  1  0.91662047  0.34013538  0.17914754  1
  O2-  O472  1  0.92828184  0.34528440  0.52643088  1
  O2-  O473  1  0.92792044  0.34360066  0.85036429  1
  O2-  O474  1  0.92162712  0.59948778  0.14599464  1
  O2-  O475  1  0.91940762  0.58341315  0.52281180  1
  O2-  O476  1  0.92126615  0.57840911  0.84646930  1
  O2-  O477  1  0.92035316  0.84134690  0.19092787  1
  O2-  O478  1  0.93287545  0.83519202  0.52922603  1
  O2-  O479  1  0.90102694  0.82304992  0.85652574  1
  O2-  O480  1  0.14219071  0.07992183  0.30601705  1
  O2-  O481  1  0.17866035  0.08389165  0.65990410  1
  O2-  O482  1  0.17170340  0.09468188  0.97120964  1
  O2-  O483  1  0.14818941  0.33610940  0.32900359  1
  O2-  O484  1  0.15705239  0.33102509  0.64253891  1
  O2-  O485  1  0.18107187  0.35810702  0.99319114  1
  O2-  O486  1  0.16884549  0.58492195  0.30881264  1
  O2-  O487  1  0.18130735  0.58825849  0.64178531  1
  O2-  O488  1  0.17466742  0.58112852  0.97335359  1
  O2-  O489  1  0.18469548  0.83492890  0.30517280  1
  O2-  O490  1  0.16836093  0.83307957  0.65735888  1
  O2-  O491  1  0.18480604  0.83399369  0.97839132  1
  O2-  O492  1  0.47584610  0.06609096  0.29325175  1
  O2-  O493  1  0.43384907  0.06783618  0.65360146  1
  O2-  O494  1  0.42276486  0.08339869  0.96857216  1
  O2-  O495  1  0.39737932  0.33351368  0.32925800  1
  O2-  O496  1  0.43362678  0.35418715  0.65134415  1
  O2-  O497  1  0.40422997  0.32760546  0.97686515  1
  O2-  O498  1  0.42151631  0.57707214  0.31241325  1
  O2-  O499  1  0.43871615  0.58376488  0.65129048  1
  O2-  O500  1  0.41989322  0.58679394  0.97750784  1
  O2-  O501  1  0.43124924  0.84181655  0.30376843  1
  O2-  O502  1  0.42086671  0.83357782  0.65079873  1
  O2-  O503  1  0.42971083  0.83571440  0.98981105  1
  O2-  O504  1  0.66382684  0.06129255  0.31610255  1
  O2-  O505  1  0.67147664  0.08328615  0.64832945  1
  O2-  O506  1  0.64733906  0.07913835  0.97851498  1
  O2-  O507  1  0.65689868  0.32757727  0.34511785  1
  O2-  O508  1  0.67996379  0.34899205  0.64630987  1
  O2-  O509  1  0.66774419  0.33608138  0.96828719  1
  O2-  O510  1  0.67684285  0.55868800  0.28984747  1
  O2-  O511  1  0.64550013  0.59123650  0.69217941  1
  O2-  O512  1  0.64916561  0.57578771  0.96567393  1
  O2-  O513  1  0.67257469  0.82994561  0.32178655  1
  O2-  O514  1  0.68161132  0.86085524  0.66083772  1
  O2-  O515  1  0.65349705  0.82613527  0.96970985  1
  O2-  O516  1  0.89970163  0.08154704  0.31067371  1
  O2-  O517  1  0.95265158  0.11693382  0.65989106  1
  O2-  O518  1  0.87508787  0.07023832  0.98701921  1
  O2-  O519  1  0.83752382  0.30833982  0.28867868  1
  O2-  O520  1  0.92594600  0.35338451  0.63819826  1
  O2-  O521  1  0.92510452  0.34133911  0.97652007  1
  O2-  O522  1  0.92240039  0.61078779  0.37578846  1
  O2-  O523  1  0.91218731  0.58901214  0.64488073  1
  O2-  O524  1  0.90297984  0.57000114  0.95966911  1
  O2-  O525  1  0.91283631  0.84768787  0.31244793  1
  O2-  O526  1  0.90046473  0.83092469  0.65865336  1
  O2-  O527  1  0.90229195  0.81593693  1.01827686  1
  O2-  O528  1  0.11423353  0.19873495  0.02693852  1
  O2-  O529  1  0.06742015  0.16332352  0.35941846  1
  O2-  O530  1  0.04665689  0.15426741  0.66080343  1
  O2-  O531  1  0.09338842  0.42671784  0.01783152  1
  O2-  O532  1  0.07178574  0.42372846  0.36378439  1
  O2-  O533  1  0.08228879  0.42493283  0.67965487  1
  O2-  O534  1  0.10442174  0.66669409  0.01019852  1
  O2-  O535  1  0.09533480  0.67440404  0.35146145  1
  O2-  O536  1  0.08294253  0.65820497  0.68233938  1
  O2-  O537  1  0.08399661  0.94523697  0.02365716  1
  O2-  O538  1  0.07565629  0.87654847  0.35418180  1
  O2-  O539  1  0.07158613  0.90946621  0.69152593  1
  O2-  O540  1  0.31630646  0.13399980  0.02758938  1
  O2-  O541  1  0.27284350  0.17430745  0.38296882  1
  O2-  O542  1  0.33945795  0.14602457  0.70098594  1
  O2-  O543  1  0.33729032  0.42218472  0.02375329  1
  O2-  O544  1  0.32644953  0.41880166  0.36707484  1
  O2-  O545  1  0.32845215  0.41904260  0.68687406  1
  O2-  O546  1  0.33789420  0.66608553  0.02219872  1
  O2-  O547  1  0.33809215  0.66722373  0.30542187  1
  O2-  O548  1  0.34951700  0.66611727  0.68907682  1
  O2-  O549  1  0.34852519  0.92385884  0.02201146  1
  O2-  O550  1  0.35256843  0.92425294  0.34644658  1
  O2-  O551  1  0.32927421  0.90540840  0.68888498  1
  O2-  O552  1  0.58253054  0.17565428  0.01182129  1
  O2-  O553  1  0.59125652  0.16983180  0.36208882  1
  O2-  O554  1  0.51885008  0.08992493  0.67789778  1
  O2-  O555  1  0.57191357  0.41088884  -0.00277050  1
  O2-  O556  1  0.56601221  0.40967675  0.35893213  1
  O2-  O557  1  0.58538787  0.41774055  0.69726703  1
  O2-  O558  1  0.58437726  0.66580044  0.01928918  1
  O2-  O559  1  0.60144037  0.65080967  0.34043514  1
  O2-  O560  1  0.61481758  0.61871914  0.63951411  1
  O2-  O561  1  0.57460216  0.94053181  0.05690692  1
  O2-  O562  1  0.57998474  0.90641174  0.36821940  1
  O2-  O563  1  0.59210649  0.93341827  0.69981007  1
  O2-  O564  1  0.81276176  0.17536120  0.02248688  1
  O2-  O565  1  0.82680334  0.16670417  0.35581337  1
  O2-  O566  1  0.83026901  0.16142753  0.70230487  1
  O2-  O567  1  0.83163753  0.41859309  0.00883722  1
  O2-  O568  1  0.90461152  0.43944929  0.36861817  1
  O2-  O569  1  0.83901168  0.42202529  0.67888208  1
  O2-  O570  1  0.80468833  0.62063247  0.00023925  1
  O2-  O571  1  0.83566135  0.69066631  0.36929299  1
  O2-  O572  1  0.82286655  0.66681102  0.69077783  1
  O2-  O573  1  0.80760909  0.90167874  0.01881528  1
  O2-  O574  1  0.83546332  0.92673808  0.34523036  1
  O2-  O575  1  0.86241536  0.95456909  0.69671266  1
