# generated using pymatgen
data_H2O
_symmetry_space_group_name_H-M   'P 1'
_cell_length_a   17.98337602
_cell_length_b   17.99765120
_cell_length_c   22.00696160
_cell_angle_alpha   89.97434064
_cell_angle_beta   90.02481699
_cell_angle_gamma   120.01252845
_symmetry_Int_Tables_number   1
_chemical_formula_structural   H2O
_chemical_formula_sum   'H384 O192'
_cell_volume   6167.69480885
_cell_formula_units_Z   192
loop_
 _symmetry_equiv_pos_site_id
 _symmetry_equiv_pos_as_xyz
  1  'x, y, z'
loop_
 _atom_type_symbol
 _atom_type_oxidation_number
  H+  1.0
  O2-  -2.0
loop_
 _atom_site_type_symbol
 _atom_site_label
 _atom_site_symmetry_multiplicity
 _atom_site_fract_x
 _atom_site_fract_y
 _atom_site_fract_z
 _atom_site_occupancy
  H+  H0  1  0.13026745  0.86083701  0.50572711  1
  H+  H1  1  0.03441488  0.14674869  0.33178301  1
  H+  H2  1  0.10408009  0.49285069  0.67744029  1
  H+  H3  1  0.11249577  0.38015236  0.82842429  1
  H+  H4  1  0.52736382  0.15622592  0.36307783  1
  H+  H5  1  0.41998411  0.87809970  0.98986004  1
  H+  H6  1  0.36158911  0.13477514  0.67185131  1
  H+  H7  1  0.20170881  0.11611276  0.18517618  1
  H+  H8  1  0.86040384  0.37479093  0.01104554  1
  H+  H9  1  0.41409498  0.08391831  0.60076954  1
  H+  H10  1  0.14158751  0.88174176  0.66062012  1
  H+  H11  1  0.61428723  0.73182806  0.34477805  1
  H+  H12  1  0.83856086  0.91502065  0.10036648  1
  H+  H13  1  0.58235767  0.59901785  0.15196055  1
  H+  H14  1  0.39134591  0.15297175  0.07702787  1
  H+  H15  1  0.53349631  0.11392497  1.00900713  1
  H+  H16  1  0.72069704  0.85793670  0.50193524  1
  H+  H17  1  0.12956359  0.21612452  -0.00395955  1
  H+  H18  1  0.48712287  0.35612924  0.19042901  1
  H+  H19  1  0.63159724  0.29055033  0.33884996  1
  H+  H20  1  0.38833443  0.28437245  1.00155965  1
  H+  H21  1  0.11461068  0.86245591  0.81834950  1
  H+  H22  1  0.05369384  0.56676532  0.77846365  1
  H+  H23  1  0.38223348  0.27080274  0.66074682  1
  H+  H24  1  0.43241014  0.61013038  0.65964197  1
  H+  H25  1  0.13855684  0.61858171  0.17828347  1
  H+  H26  1  0.59259337  0.60939896  0.79960663  1
  H+  H27  1  0.12812155  0.38163940  0.33890093  1
  H+  H28  1  0.52709166  0.89151178  0.33283337  1
  H+  H29  1  0.86256046  0.63513480  0.49459624  1
  H+  H30  1  0.84759142  0.14047367  0.83318059  1
  H+  H31  1  0.39085025  0.12498994  0.35644755  1
  H+  H32  1  0.48617747  0.62929857  0.32946524  1
  H+  H33  1  0.64214676  0.03336384  0.84086091  1
  H+  H34  1  0.54205461  0.88802934  0.82746489  1
  H+  H35  1  0.12749308  0.39595850  0.01199042  1
  H+  H36  1  0.67938461  0.69783478  0.68021704  1
  H+  H37  1  0.63794198  0.51939964  0.50098988  1
  H+  H38  1  0.21578341  0.34596255  0.84014527  1
  H+  H39  1  0.90911616  0.34969964  0.33017712  1
  H+  H40  1  0.10846139  0.72433951  0.49613381  1
  H+  H41  1  0.12254918  0.53841156  0.68839577  1
  H+  H42  1  0.85577549  0.97237395  0.48971186  1
  H+  H43  1  0.65328073  0.85807801  0.22166809  1
  H+  H44  1  0.35362040  0.23804462  0.18246183  1
  H+  H45  1  0.58215172  0.66794637  0.40305067  1
  H+  H46  1  0.56423599  0.04589004  0.30197457  1
  H+  H47  1  0.65693821  0.32681416  0.90261911  1
  H+  H48  1  0.89059150  0.24353910  0.33320076  1
  H+  H49  1  0.59665855  0.39385006  0.34024500  1
  H+  H50  1  0.15151529  0.37320877  0.18285828  1
  H+  H51  1  0.85496480  0.20991974  0.47961713  1
  H+  H52  1  0.64828522  0.87717412  0.66343536  1
  H+  H53  1  0.99298435  0.16156809  0.82513503  1
  H+  H54  1  0.88073335  0.85858844  0.50088804  1
  H+  H55  1  0.60381293  0.87029292  0.16737468  1
  H+  H56  1  0.61603781  0.47633363  0.16565642  1
  H+  H57  1  0.14898868  0.67047847  0.64631927  1
  H+  H58  1  0.37626756  0.89643187  0.15100182  1
  H+  H59  1  0.24069150  0.85157485  0.83906540  1
  H+  H60  1  0.72020009  0.86582201  0.33522337  1
  H+  H61  1  0.63098890  0.35918298  0.99721748  1
  H+  H62  1  0.79239669  0.90628826  0.67443399  1
  H+  H63  1  -0.02542757  0.12501893  0.65325276  1
  H+  H64  1  0.22593044  0.35562776  0.50329075  1
  H+  H65  1  0.88132899  0.10462235  0.17375661  1
  H+  H66  1  0.09528025  0.67730167  0.72537179  1
  H+  H67  1  0.27144227  0.64702273  0.82460590  1
  H+  H68  1  0.86442385  0.73447846  0.67090425  1
  H+  H69  1  0.87569741  0.72139958  0.83082731  1
  H+  H70  1  0.13880959  0.86418487  -0.00181988  1
  H+  H71  1  0.49226325  0.38061585  0.84176366  1
  H+  H72  1  0.02683434  0.38297553  0.16693274  1
  H+  H73  1  0.47123219  0.59835299  0.50588450  1
  H+  H74  1  0.88872212  0.34885882  0.48901777  1
  H+  H75  1  0.11074968  0.88472651  0.16018616  1
  H+  H76  1  0.59854731  1.01373360  0.16812089  1
  H+  H77  1  0.37571274  0.74937855  0.16005017  1
  H+  H78  1  0.76576442  0.38673886  0.35029580  1
  H+  H79  1  0.65253124  0.47946728  0.80293047  1
  H+  H80  1  0.16793078  0.33485705  0.59885608  1
  H+  H81  1  0.37971202  0.35926030  0.65925623  1
  H+  H82  1  0.72421895  0.12636507  0.84012654  1
  H+  H83  1  0.35931225  0.97639770  0.14795211  1
  H+  H84  1  0.33228072  0.14779034  0.15750210  1
  H+  H85  1  0.61875424  0.97967777  0.67105185  1
  H+  H86  1  0.07552685  0.65584806  0.40137812  1
  H+  H87  1  0.54411085  0.74342973  0.67894458  1
  H+  H88  1  0.77160878  0.38387976  0.83820155  1
  H+  H89  1  0.22378924  0.11716286  0.66929590  1
  H+  H90  1  0.62093506  0.34341915  0.66636023  1
  H+  H91  1  0.73697476  0.59208717  0.65372469  1
  H+  H92  1  0.87361542  0.10043294  0.49919611  1
  H+  H93  1  0.64808321  0.64725650  1.00866973  1
  H+  H94  1  0.50275599  0.86730099  0.99190980  1
  H+  H95  1  0.43783278  -0.01194730  0.79505303  1
  H+  H96  1  0.36349407  0.72666253  0.66263775  1
  H+  H97  1  0.62826720  1.01712454  0.50603903  1
  H+  H98  1  0.78446606  0.63712326  0.82555210  1
  H+  H99  1  0.14108127  0.59671424  0.84837500  1
  H+  H100  1  0.63780205  0.36519355  0.18042245  1
  H+  H101  1  0.34714674  0.92036033  0.40288646  1
  H+  H102  1  0.34484313  0.60100788  0.49656180  1
  H+  H103  1  0.88434717  0.01746095  0.17299241  1
  H+  H104  1  0.03580897  0.07792066  0.83461929  1
  H+  H105  1  0.98916171  0.62700257  0.99028628  1
  H+  H106  1  0.23077146  0.87824509  0.65911548  1
  H+  H107  1  0.13486776  0.27271851  0.65752531  1
  H+  H108  1  0.88795841  0.05388319  0.82888460  1
  H+  H109  1  0.57390988  0.42023934  0.40273967  1
  H+  H110  1  0.39914055  0.03846894  0.35642832  1
  H+  H111  1  0.92487066  0.33805636  0.90428311  1
  H+  H112  1  0.25145248  0.37063936  0.99888505  1
  H+  H113  1  0.22267853  0.11024659  0.51358277  1
  H+  H114  1  0.60233015  0.87952719  0.49024318  1
  H+  H115  1  0.40658742  0.07697490  0.07192584  1
  H+  H116  1  0.38973631  0.35589539  0.50476909  1
  H+  H117  1  0.63966899  0.61979486  0.32995392  1
  H+  H118  1  0.39068316  0.62450597  0.33119511  1
  H+  H119  1  0.61835161  0.16237835  0.34901911  1
  H+  H120  1  0.14902642  0.28647393  0.17350039  1
  H+  H121  1  0.51503045  0.37907501  0.67022388  1
  H+  H122  1  0.43758485  0.86187300  0.25749003  1
  H+  H123  1  0.08999591  0.92231233  0.06613362  1
  H+  H124  1  0.35911123  0.50966921  -0.02177890  1
  H+  H125  1  0.89180812  0.36915998  0.84684368  1
  H+  H126  1  0.11766475  0.72935304  0.01409665  1
  H+  H127  1  -0.04437223  0.37904218  0.63919911  1
  H+  H128  1  0.27160179  0.63146664  0.34196356  1
  H+  H129  1  0.34594457  0.38027151  0.99704593  1
  H+  H130  1  0.27605960  0.14538777  0.01915292  1
  H+  H131  1  0.69422184  0.92547467  0.84968198  1
  H+  H132  1  0.91600181  0.83015978  0.23495193  1
  H+  H133  1  0.36757736  -0.02096933  0.66767905  1
  H+  H134  1  0.89117822  0.11660239  0.32442289  1
  H+  H135  1  0.67137736  0.80016726  0.66738659  1
  H+  H136  1  0.11044120  -0.02341972  0.49899060  1
  H+  H137  1  0.13336503  -0.01099867  1.00993239  1
  H+  H138  1  0.63408047  0.55598790  0.87371877  1
  H+  H139  1  0.22863975  0.62103544  0.17723015  1
  H+  H140  1  0.10780012  0.13570505  0.51066311  1
  H+  H141  1  0.66087070  0.07796673  0.60421315  1
  H+  H142  1  0.08583269  0.17688775  0.09255023  1
  H+  H143  1  0.51869116  0.15572762  0.13396026  1
  H+  H144  1  0.21198389  0.59335312  0.50479676  1
  H+  H145  1  0.85995682  0.23567460  0.82728816  1
  H+  H146  1  0.37319988  0.00783772  0.86434104  1
  H+  H147  1  0.63650553  0.35935076  0.83978362  1
  H+  H148  1  0.88125782  0.51692313  0.33661937  1
  H+  H149  1  0.14189561  0.51510444  0.32755282  1
  H+  H150  1  0.52600532  0.38092185  0.49749416  1
  H+  H151  1  0.89230649  -0.02675395  1.00207442  1
  H+  H152  1  0.73387251  0.36309054  0.52594791  1
  H+  H153  1  0.61158269  0.63050472  0.49542793  1
  H+  H154  1  0.61363017  0.13630731  0.50391055  1
  H+  H155  1  0.35603336  0.43818463  0.08099329  1
  H+  H156  1  0.13669309  0.12893069  1.00661540  1
  H+  H157  1  0.16448853  0.88690132  0.32356843  1
  H+  H158  1  0.63494943  0.75562220  0.84677575  1
  H+  H159  1  0.07850580  0.35217000  0.67055543  1
  H+  H160  1  1.00699105  0.09902888  0.97683977  1
  H+  H161  1  0.58224826  0.22423569  0.82959867  1
  H+  H162  1  0.47178435  0.10820656  0.66220898  1
  H+  H163  1  0.72052498  0.10827753  0.66504317  1
  H+  H164  1  0.11738882  0.38510735  0.49197262  1
  H+  H165  1  0.66696686  0.78534443  -0.00977988  1
  H+  H166  1  0.10705553  0.14002366  0.67820559  1
  H+  H167  1  0.76562229  0.89111649  0.15080862  1
  H+  H168  1  0.44347610  0.58601800  0.82646527  1
  H+  H169  1  0.86942190  0.40294704  0.55812892  1
  H+  H170  1  0.77656198  0.63170629  0.01887227  1
  H+  H171  1  0.63211352  0.86503244  0.33035300  1
  H+  H172  1  0.83954567  0.67481489  0.73107997  1
  H+  H173  1  0.10565171  0.63326727  0.49514291  1
  H+  H174  1  0.31852882  0.20160780  0.07974052  1
  H+  H175  1  0.60361243  0.21290771  0.67900830  1
  H+  H176  1  0.38548502  0.11622618  0.50919812  1
  H+  H177  1  0.59124676  0.17761157  0.44725369  1
  H+  H178  1  0.47650556  0.11828247  0.51178204  1
  H+  H179  1  0.53007385  0.39681648  1.01384020  1
  H+  H180  1  0.02063172  0.88291791  0.16107551  1
  H+  H181  1  0.89862222  0.62401145  0.98974050  1
  H+  H182  1  0.10341831  0.62158049  0.34396721  1
  H+  H183  1  0.86132712  0.47489479  0.83704756  1
  H+  H184  1  0.58545651  0.41486537  0.10721502  1
  H+  H185  1  0.61477913  0.45941914  0.66491096  1
  H+  H186  1  0.08626134  0.28964832  0.97546818  1
  H+  H187  1  1.01835453  0.13466756  0.50508691  1
  H+  H188  1  0.87859650  0.61662283  0.65660161  1
  H+  H189  1  0.89174378  0.76697271  0.33046200  1
  H+  H190  1  0.02738931  0.38760528  0.83175894  1
  H+  H191  1  0.11118783  0.47760853  0.16655883  1
  H+  H192  1  0.21530357  0.05108989  0.85797916  1
  H+  H193  1  0.89753193  0.61111654  0.83614355  1
  H+  H194  1  0.15989440  0.75989846  0.83899177  1
  H+  H195  1  0.60815016  0.71825434  0.49820189  1
  H+  H196  1  0.14815604  0.52931570  0.00496678  1
  H+  H197  1  0.46139841  0.40232413  0.33714138  1
  H+  H198  1  0.15611828  0.26936276  0.32362222  1
  H+  H199  1  0.77549657  0.63571890  0.34045626  1
  H+  H200  1  0.36452383  0.46061202  0.48286347  1
  H+  H201  1  0.88678089  0.40668743  0.65521573  1
  H+  H202  1  0.72305846  0.61225609  0.17319793  1
  H+  H203  1  0.62989297  0.13512066  1.00131543  1
  H+  H204  1  0.63264587  0.27473686  0.17974433  1
  H+  H205  1  0.59372677  0.73812853  0.86435777  1
  H+  H206  1  0.97583400  0.34668547  0.48204083  1
  H+  H207  1  0.87987270  0.85804703  0.17717088  1
  H+  H208  1  0.36081221  0.50968108  0.65697764  1
  H+  H209  1  0.39488394  0.64205317  0.18251752  1
  H+  H210  1  0.22488041  0.86098773  0.16110278  1
  H+  H211  1  0.99326015  0.86551253  0.99418569  1
  H+  H212  1  0.44985447  0.09978913  0.87151494  1
  H+  H213  1  0.37155367  0.74360631  0.46621158  1
  H+  H214  1  0.61710583  0.38471693  0.49742552  1
  H+  H215  1  1.03272390  0.37050323  0.33697959  1
  H+  H216  1  0.79688698  0.89271530  1.00843291  1
  H+  H217  1  1.02028271  0.88792269  0.49445405  1
  H+  H218  1  1.02696550  0.14938489  0.15174562  1
  H+  H219  1  0.86884055  0.47363716  0.51594654  1
  H+  H220  1  0.77317749  0.36487866  0.17013873  1
  H+  H221  1  0.67898017  0.65316765  0.88675085  1
  H+  H222  1  0.86911453  0.52440090  0.65999734  1
  H+  H223  1  0.98679255  0.36795312  0.99822715  1
  H+  H224  1  0.38669590  0.56315837  0.88679170  1
  H+  H225  1  0.61803446  0.97759706  0.33643798  1
  H+  H226  1  0.14587378  0.51192776  0.84652831  1
  H+  H227  1  0.53181437  0.88802349  0.67071576  1
  H+  H228  1  0.64219045  0.89106894  1.00593667  1
  H+  H229  1  0.28061930  0.34119778  0.33147679  1
  H+  H230  1  0.20209464  0.08378264  0.85048440  1
  H+  H231  1  0.89277955  0.03337461  0.65825292  1
  H+  H232  1  0.27088358  0.88941245  0.49322670  1
  H+  H233  1  0.13762443  0.77282446  0.17198750  1
  H+  H234  1  0.71978019  0.10280840  0.50309703  1
  H+  H235  1  0.39189273  0.77960455  0.83547964  1
  H+  H236  1  0.36000383  0.37742581  0.82384897  1
  H+  H237  1  0.33530709  0.62637997  0.66003497  1
  H+  H238  1  0.86916466  0.72261824  1.01372375  1
  H+  H239  1  0.89543955  0.87225248  0.65543809  1
  H+  H240  1  0.82632346  0.90199216  0.29632385  1
  H+  H241  1  0.92268549  0.95871102  0.82332542  1
  H+  H242  1  0.81749203  0.91257686  0.83049759  1
  H+  H243  1  0.35066759  0.45496292  0.15049241  1
  H+  H244  1  0.13752569  0.01903824  0.33460639  1
  H+  H245  1  0.40667768  0.88273254  0.32156938  1
  H+  H246  1  0.85855878  0.72189786  0.16446636  1
  H+  H247  1  0.26568042  0.37905334  0.67024449  1
  H+  H248  1  0.09339067  0.23234919  0.82823441  1
  H+  H249  1  0.41496287  0.28606426  0.83981351  1
  H+  H250  1  0.37355502  0.73054371  1.00896512  1
  H+  H251  1  0.89541351  0.84456545  0.84211374  1
  H+  H252  1  0.02615833  0.64111096  0.17038677  1
  H+  H253  1  1.03276876  0.88032705  0.34253389  1
  H+  H254  1  0.12320157  0.75402393  0.67393664  1
  H+  H255  1  0.60256410  0.12352714  0.68057890  1
  H+  H256  1  0.59659827  0.17656697  0.09339173  1
  H+  H257  1  0.90150214  0.86079887  0.33210272  1
  H+  H258  1  0.29982443  0.90854447  0.33845205  1
  H+  H259  1  0.11761801  0.13751958  0.33716906  1
  H+  H260  1  0.24124062  0.65989361  0.63937218  1
  H+  H261  1  0.78873792  0.14780413  0.00565748  1
  H+  H262  1  0.26051630  0.13464890  0.34517013  1
  H+  H263  1  0.39173447  0.86845419  0.65341001  1
  H+  H264  1  0.35627499  0.71280466  0.37467857  1
  H+  H265  1  0.97131723  0.61248863  0.50925967  1
  H+  H266  1  0.16575524  0.82800805  -0.05839025  1
  H+  H267  1  0.90838548  0.58377613  0.56838368  1
  H+  H268  1  0.62467637  0.48296622  1.01942844  1
  H+  H269  1  0.40178440  0.89734701  0.82589886  1
  H+  H270  1  0.79053974  0.14816351  0.32839940  1
  H+  H271  1  0.65117424  0.67403882  0.65348004  1
  H+  H272  1  0.77016076  0.13339462  0.16165847  1
  H+  H273  1  0.59897192  0.92147310  0.76764500  1
  H+  H274  1  0.44777115  0.18814791  0.80494823  1
  H+  H275  1  0.02707990  0.86342177  0.82509272  1
  H+  H276  1  0.02572365  0.89140201  0.66970494  1
  H+  H277  1  0.92277512  0.58916053  0.24109739  1
  H+  H278  1  0.65657614  1.03046641  -0.01111427  1
  H+  H279  1  0.85063308  0.13587038  0.67391680  1
  H+  H280  1  0.30929555  0.62197442  0.43677721  1
  H+  H281  1  0.75666939  0.38260887  0.68539300  1
  H+  H282  1  0.48970689  0.54845066  0.12069433  1
  H+  H283  1  0.36016998  0.22263779  0.49809635  1
  H+  H284  1  0.88353992  0.77057016  0.50257959  1
  H+  H285  1  0.97265598  0.60448931  0.33634146  1
  H+  H286  1  0.13367932  0.27099346  0.51243955  1
  H+  H287  1  0.77030056  0.37152598  0.01062926  1
  H+  H288  1  0.13443828  0.02851241  0.66885353  1
  H+  H289  1  0.92046896  0.08434402  0.26450279  1
  H+  H290  1  0.92747209  0.07462609  0.92645967  1
  H+  H291  1  0.37386065  0.60423870  0.98246694  1
  H+  H292  1  0.32555804  0.40575395  0.73015612  1
  H+  H293  1  0.53128406  0.67302473  0.72886079  1
  H+  H294  1  0.83513994  0.66205752  0.10588489  1
  H+  H295  1  0.92742990  0.31687372  0.24136084  1
  H+  H296  1  0.61613503  0.10929270  0.16432945  1
  H+  H297  1  0.12638495  0.01834559  0.18194984  1
  H+  H298  1  0.72698179  0.61008374  0.50053348  1
  H+  H299  1  0.09257633  0.41486765  0.43031368  1
  H+  H300  1  0.35862119  0.14086055  0.83613053  1
  H+  H301  1  0.47293184  0.61786828  0.17676498  1
  H+  H302  1  0.16822150  0.57959660  0.27084716  1
  H+  H303  1  0.66046645  0.32118483  0.60932587  1
  H+  H304  1  0.39977845  0.03538569  0.96178366  1
  H+  H305  1  0.19179126  0.85967610  0.26225549  1
  H+  H306  1  0.42248177  0.08776486  0.21708329  1
  H+  H307  1  0.66489832  0.58527710  0.23304822  1
  H+  H308  1  0.45539924  0.83009319  0.45069481  1
  H+  H309  1  0.08300358  0.66586970  0.10844541  1
  H+  H310  1  0.82834510  0.91403979  0.42977606  1
  H+  H311  1  0.93178637  0.59307366  0.90002024  1
  H+  H312  1  0.88789894  0.34132318  0.18241525  1
  H+  H313  1  0.33343805  0.23189695  0.35526103  1
  H+  H314  1  0.89953010  0.27588975  0.99781621  1
  H+  H315  1  0.28050957  0.64562433  0.01272581  1
  H+  H316  1  0.19576943  0.33622561  0.26645352  1
  H+  H317  1  0.41741245  0.32939123  0.56689538  1
  H+  H318  1  0.51746035  0.54360037  0.75734792  1
  H+  H319  1  0.62866367  0.26826935  0.99241974  1
  H+  H320  1  0.84063637  0.17303783  0.06767975  1
  H+  H321  1  0.66128460  0.34205534  0.27601238  1
  H+  H322  1  0.49961825  0.89248611  0.10265264  1
  H+  H323  1  0.86392888  0.21791593  0.16900278  1
  H+  H324  1  0.42413286  0.35146535  0.24357531  1
  H+  H325  1  0.43487940  0.83489990  0.89745164  1
  H+  H326  1  0.15604924  0.32156533  0.90468988  1
  H+  H327  1  0.62563440  0.93227773  0.06403990  1
  H+  H328  1  1.01409659  0.60865175  0.82096199  1
  H+  H329  1  0.32212863  0.16303354  0.43936561  1
  H+  H330  1  0.42706861  0.60932608  0.25782600  1
  H+  H331  1  0.91874313  0.83629391  0.59577077  1
  H+  H332  1  0.85516372  0.92452606  0.73204210  1
  H+  H333  1  0.63336097  0.52883522  0.33092288  1
  H+  H334  1  0.35870866  0.97774591  0.49737791  1
  H+  H335  1  0.34363557  0.68072195  0.10525754  1
  H+  H336  1  0.11904716  0.64087817  0.01361707  1
  H+  H337  1  0.86308863  0.63054709  0.34268778  1
  H+  H338  1  0.43352826  0.09732174  0.25030807  1
  H+  H339  1  0.35393181  0.92786704  0.05604162  1
  H+  H340  1  0.04648163  0.37474149  0.73008747  1
  H+  H341  1  0.82331997  0.14706861  0.42484515  1
  H+  H342  1  0.40335146  0.56129955  0.56155873  1
  H+  H343  1  0.34807621  0.17208778  0.73332567  1
  H+  H344  1  0.66886887  0.83579770  0.56392438  1
  H+  H345  1  0.90291251  0.86184116  0.99624250  1
  H+  H346  1  0.15935896  0.07497135  0.27267449  1
  H+  H347  1  0.34512092  0.91760745  0.72572557  1
  H+  H348  1  0.16260044  0.83598966  0.56547211  1
  H+  H349  1  0.78930981  0.99133007  0.87509994  1
  H+  H350  1  0.69321887  0.57225304  0.95878819  1
  H+  H351  1  0.42636441  0.84299508  0.59542787  1
  H+  H352  1  0.09481314  0.41999940  0.07353505  1
  H+  H353  1  0.08108296  0.90996981  0.73187411  1
  H+  H354  1  0.33817929  0.39040803  0.42833708  1
  H+  H355  1  0.90360996  0.07578563  0.56136938  1
  H+  H356  1  0.67894383  0.56102242  0.59314371  1
  H+  H357  1  0.82012658  0.16452562  0.73371768  1
  H+  H358  1  0.06737000  0.17244952  0.73127403  1
  H+  H359  1  0.16514522  0.08165041  0.57413170  1
  H+  H360  1  0.58671217  0.41309018  0.75595129  1
  H+  H361  1  0.63953763  0.08004058  0.25604274  1
  H+  H362  1  0.92578470  0.82058895  0.90502245  1
  H+  H363  1  0.58437743  0.91694579  0.43007530  1
  H+  H364  1  0.31749372  0.67989810  0.76019836  1
  H+  H365  1  0.64308217  0.27510954  0.51738567  1
  H+  H366  1  0.82023774  0.41893756  0.74355324  1
  H+  H367  1  0.83488471  0.66484281  0.43352966  1
  H+  H368  1  0.42300626  0.33905323  0.93934767  1
  H+  H369  1  0.82589092  0.38316949  0.10834922  1
  H+  H370  1  0.89393878  0.61919377  0.18185177  1
  H+  H371  1  0.16831985  0.61824201  0.58159814  1
  H+  H372  1  0.34650426  0.45936037  0.82183356  1
  H+  H373  1  0.59486420  0.67159823  0.05382850  1
  H+  H374  1  0.11996676  0.51055892  0.50897980  1
  H+  H375  1  -0.00417220  0.02712704  0.89499243  1
  H+  H376  1  0.82544831  0.40470847  0.40770795  1
  H+  H377  1  0.70631106  0.86577828  0.93902279  1
  H+  H378  1  0.17600164  0.58222271  0.94321877  1
  H+  H379  1  0.87735026  0.99144860  0.32959781  1
  H+  H380  1  0.08867127  0.91446192  0.40344096  1
  H+  H381  1  0.54926855  0.16149796  0.77176189  1
  H+  H382  1  0.67717022  0.08995446  0.92898921  1
  H+  H383  1  0.19562107  0.08567941  0.95044923  1
  O2-  O384  1  0.07980456  0.19596166  0.13365664  1
  O2-  O385  1  0.08147792  0.17164950  0.50250994  1
  O2-  O386  1  0.04950616  0.17525292  0.80845130  1
  O2-  O387  1  0.08679136  0.41822695  0.15067124  1
  O2-  O388  1  0.08675095  0.41459693  0.47566874  1
  O2-  O389  1  0.08656402  0.41531716  0.81376415  1
  O2-  O390  1  0.08747497  0.66919011  0.15378144  1
  O2-  O391  1  0.07493163  0.66350094  0.48170372  1
  O2-  O392  1  0.06970890  0.62102477  0.79869504  1
  O2-  O393  1  0.08089556  0.91602739  0.14638056  1
  O2-  O394  1  0.08165199  0.91717646  0.48138920  1
  O2-  O395  1  0.08208380  0.88875202  0.80238172  1
  O2-  O396  1  0.30763212  0.18533395  0.16061677  1
  O2-  O397  1  0.32638401  0.16120956  0.48496387  1
  O2-  O398  1  0.39156860  0.18811829  0.80760721  1
  O2-  O399  1  0.38992196  0.45609655  0.11951497  1
  O2-  O400  1  0.33431326  0.39816830  0.47261719  1
  O2-  O401  1  0.32288213  0.39800641  0.80612826  1
  O2-  O402  1  0.34400263  0.68609146  0.15074835  1
  O2-  O403  1  0.30892132  0.62565115  0.48209981  1
  O2-  O404  1  0.31566766  0.69784632  0.80215441  1
  O2-  O405  1  0.33886458  0.91902489  0.13148272  1
  O2-  O406  1  0.33177326  0.91917330  0.48021525  1
  O2-  O407  1  0.38332248  0.93795412  0.80661080  1
  O2-  O408  1  0.58077619  0.17425138  0.13736382  1
  O2-  O409  1  0.58643122  0.17133547  0.49258199  1
  O2-  O410  1  0.53125487  0.17217379  0.81227423  1
  O2-  O411  1  0.58664031  0.41468442  0.15286834  1
  O2-  O412  1  0.58583121  0.41308464  0.48068065  1
  O2-  O413  1  0.59903374  0.42480152  0.80173254  1
  O2-  O414  1  0.53790449  0.60728779  0.13107790  1
  O2-  O415  1  0.57803753  0.65855479  0.48177034  1
  O2-  O416  1  0.54281670  0.60073105  0.77504340  1
  O2-  O417  1  0.51655950  0.89976573  0.14561159  1
  O2-  O418  1  0.57372968  0.91083759  0.47491911  1
  O2-  O419  1  0.60218845  0.92376657  0.81268679  1
  O2-  O420  1  0.83063096  0.15871676  0.14970373  1
  O2-  O421  1  0.81949692  0.14595587  0.47056325  1
  O2-  O422  1  0.82412787  0.17598607  0.81193637  1
  O2-  O423  1  0.82894093  0.37705261  0.15335377  1
  O2-  O424  1  0.84283860  0.40967169  0.51955629  1
  O2-  O425  1  0.83112325  0.41440097  0.82160444  1
  O2-  O426  1  0.82812341  0.66074124  0.15146899  1
  O2-  O427  1  0.83270012  0.66637040  0.47906355  1
  O2-  O428  1  0.84339865  0.66268540  0.81014644  1
  O2-  O429  1  0.82730898  0.91095691  0.14544770  1
  O2-  O430  1  0.82523239  0.91060273  0.47427767  1
  O2-  O431  1  0.86419080  0.91136745  0.80656860  1
  O2-  O432  1  0.14615946  0.07349384  0.20358559  1
  O2-  O433  1  0.16216431  0.07800247  0.52886309  1
  O2-  O434  1  0.01105568  0.01939409  0.85248629  1
  O2-  O435  1  0.18340491  0.34348702  0.19400673  1
  O2-  O436  1  0.16857299  0.33513480  0.52164359  1
  O2-  O437  1  0.15619899  0.32245172  0.85518886  1
  O2-  O438  1  0.16902153  0.58742155  0.19256036  1
  O2-  O439  1  0.15210727  0.57305897  0.52073289  1
  O2-  O440  1  0.17573945  0.57220755  0.86387536  1
  O2-  O441  1  0.16868702  0.83620061  0.18162827  1
  O2-  O442  1  0.15997783  0.82975759  0.52045153  1
  O2-  O443  1  0.18076827  0.81899589  0.85187723  1
  O2-  O444  1  0.41123146  0.11934953  0.10234819  1
  O2-  O445  1  0.41602783  0.08740630  0.52686242  1
  O2-  O446  1  0.39258922  0.06043023  0.88894181  1
  O2-  O447  1  0.43550079  0.31676333  0.21464916  1
  O2-  O448  1  0.42134574  0.32754392  0.52161544  1
  O2-  O449  1  0.43275031  0.34438425  0.85604417  1
  O2-  O450  1  0.42231400  0.61067608  0.20185043  1
  O2-  O451  1  0.40918311  0.56095952  0.51632092  1
  O2-  O452  1  0.38417472  0.55569364  0.84095257  1
  O2-  O453  1  0.43069560  0.85771824  0.17682640  1
  O2-  O454  1  0.39755648  0.78939146  0.43553718  1
  O2-  O455  1  0.43484869  0.83834762  0.85215449  1
  O2-  O456  1  0.64030939  0.07330030  0.18015589  1
  O2-  O457  1  0.66131540  0.07669735  0.52256755  1
  O2-  O458  1  0.66551147  0.09125251  0.85869185  1
  O2-  O459  1  0.66358947  0.33215005  0.19910670  1
  O2-  O460  1  0.67022670  0.33541641  0.53311234  1
  O2-  O461  1  0.65996778  0.32428528  0.85667378  1
  O2-  O462  1  0.66195791  0.58107609  0.18797212  1
  O2-  O463  1  0.66644445  0.57998386  0.51623072  1
  O2-  O464  1  0.66966196  0.61183914  0.85461269  1
  O2-  O465  1  0.65647217  0.86916614  0.17784050  1
  O2-  O466  1  0.66128741  0.82750331  0.51938885  1
  O2-  O467  1  0.74294008  0.92765184  0.87246261  1
  O2-  O468  1  0.91444260  0.07725748  0.18886112  1
  O2-  O469  1  0.90297949  0.06949748  0.51610118  1
  O2-  O470  1  0.87835943  0.08303140  0.86258590  1
  O2-  O471  1  0.92415060  0.31534485  0.19519671  1
  O2-  O472  1  0.91227874  0.31100958  0.48036611  1
  O2-  O473  1  0.92437299  0.33992644  0.85856817  1
  O2-  O474  1  0.93191709  0.59782440  0.19663421  1
  O2-  O475  1  0.90960657  0.58198162  0.52191980  1
  O2-  O476  1  0.92694096  0.58132699  0.85329193  1
  O2-  O477  1  0.91254558  0.82935077  0.18974687  1
  O2-  O478  1  0.91333598  0.83166145  0.51734851  1
  O2-  O479  1  0.92285399  0.81283760  0.85932864  1
  O2-  O480  1  0.16636855  0.07935657  0.31915666  1
  O2-  O481  1  0.16356201  0.08951593  0.65418417  1
  O2-  O482  1  0.18942885  0.08397584  0.99435749  1
  O2-  O483  1  0.20058887  0.33160913  0.31231118  1
  O2-  O484  1  0.16687877  0.33430436  0.64450391  1
  O2-  O485  1  0.14790551  0.31678574  0.96862704  1
  O2-  O486  1  0.17001845  0.57729184  0.31624966  1
  O2-  O487  1  0.19333781  0.66321379  0.61588625  1
  O2-  O488  1  0.17696872  0.58934541  0.98824155  1
  O2-  O489  1  0.20660849  0.87308674  0.30567491  1
  O2-  O490  1  0.17007604  0.84912588  0.64514236  1
  O2-  O491  1  0.16454597  0.82802571  0.98609449  1
  O2-  O492  1  0.43121349  0.10303589  0.35424088  1
  O2-  O493  1  0.41101366  0.07958276  0.64680943  1
  O2-  O494  1  0.41788552  0.02720879  1.00367835  1
  O2-  O495  1  0.41159460  0.40116591  0.31565696  1
  O2-  O496  1  0.41275498  0.33100165  0.64486807  1
  O2-  O497  1  0.41996526  0.34418263  0.98390752  1
  O2-  O498  1  0.42668753  0.60200724  0.31085967  1
  O2-  O499  1  0.38052483  0.56691589  0.63694341  1
  O2-  O500  1  0.39037578  0.56777723  0.95938722  1
  O2-  O501  1  0.43991527  0.85785986  0.30245355  1
  O2-  O502  1  0.42358288  0.83837275  0.63963621  1
  O2-  O503  1  0.44256396  0.83986509  0.97710993  1
  O2-  O504  1  0.62686559  0.07600773  0.30111097  1
  O2-  O505  1  0.65768207  0.07500166  0.64948426  1
  O2-  O506  1  0.68196683  0.09078462  0.97557488  1
  O2-  O507  1  0.66035851  0.34977841  0.32122399  1
  O2-  O508  1  0.65435096  0.31476468  0.65480016  1
  O2-  O509  1  0.65749620  0.32801992  0.97687150  1
  O2-  O510  1  0.66893000  0.58866001  0.31502688  1
  O2-  O511  1  0.68305095  0.54556180  0.63589687  1
  O2-  O512  1  0.68221934  0.58081121  1.00060352  1
  O2-  O513  1  0.66289027  0.83365093  0.31655343  1
  O2-  O514  1  0.68455966  0.85286691  0.64604719  1
  O2-  O515  1  0.69463301  0.84974634  0.98286437  1
  O2-  O516  1  0.92147821  0.08412086  0.31031227  1
  O2-  O517  1  0.91349303  0.09082741  0.63944965  1
  O2-  O518  1  0.95413351  0.05206254  0.95623510  1
  O2-  O519  1  0.93542502  0.31679009  0.31566792  1
  O2-  O520  1  0.92042530  0.40159698  0.62143754  1
  O2-  O521  1  0.92815782  0.33650407  0.98065729  1
  O2-  O522  1  0.91034463  0.57741745  0.32219116  1
  O2-  O523  1  0.90162785  0.58103354  0.63980766  1
  O2-  O524  1  0.93492363  0.60614113  0.96680017  1
  O2-  O525  1  0.92658068  0.82763885  0.31477232  1
  O2-  O526  1  0.92178788  0.83778515  0.64124600  1
  O2-  O527  1  0.93184610  0.83085152  0.97984017  1
  O2-  O528  1  0.09917649  0.15707927  0.01402186  1
  O2-  O529  1  0.09480123  0.17681825  0.34578883  1
  O2-  O530  1  0.07574638  0.17174809  0.68638800  1
  O2-  O531  1  0.09750197  0.42572222  0.02798908  1
  O2-  O532  1  0.09481575  0.40884348  0.35199417  1
  O2-  O533  1  0.02950882  0.35554022  0.68782437  1
  O2-  O534  1  0.08642812  0.66810737  0.02921320  1
  O2-  O535  1  0.07002397  0.64904437  0.35656871  1
  O2-  O536  1  0.10069656  0.69093535  0.68156281  1
  O2-  O537  1  0.09484196  0.92401319  0.02099312  1
  O2-  O538  1  0.09235701  0.91562563  0.35811147  1
  O2-  O539  1  0.08531214  0.92321121  0.68663917  1
  O2-  O540  1  0.33521561  0.19160710  0.03872126  1
  O2-  O541  1  0.31976588  0.17258736  0.36384485  1
  O2-  O542  1  0.33446943  0.16716871  0.68915232  1
  O2-  O543  1  0.31286066  0.40833081  0.01029502  1
  O2-  O544  1  0.33662321  0.34265002  0.35324556  1
  O2-  O545  1  0.32771348  0.41014906  0.68438189  1
  O2-  O546  1  0.34137305  0.67290771  0.02770166  1
  O2-  O547  1  0.32947031  0.65178062  0.36124278  1
  O2-  O548  1  0.31760506  0.66820091  0.67455959  1
  O2-  O549  1  0.36999463  0.93398862  0.01136494  1
  O2-  O550  1  0.35811309  0.93242724  0.35814531  1
  O2-  O551  1  0.33902030  0.91659653  0.68098096  1
  O2-  O552  1  0.59305037  0.15940050  0.01679386  1
  O2-  O553  1  0.59269468  0.19166651  0.37104513  1
  O2-  O554  1  0.57026600  0.15227692  0.69483474  1
  O2-  O555  1  0.58916119  0.41825789  0.02972854  1
  O2-  O556  1  0.56751964  0.42411846  0.35789963  1
  O2-  O557  1  0.57501150  0.40236384  0.68609963  1
  O2-  O558  1  0.62473619  0.68817117  0.01439961  1
  O2-  O559  1  0.58285093  0.66997227  0.35752996  1
  O2-  O560  1  0.50185709  0.69512090  0.70252109  1
  O2-  O561  1  0.61013351  0.92143110  0.02123038  1
  O2-  O562  1  0.58778191  0.91812231  0.35205290  1
  O2-  O563  1  0.59184453  0.91725584  0.68593968  1
  O2-  O564  1  0.84747657  0.17895123  0.02297116  1
  O2-  O565  1  0.84556430  0.16762518  0.34824890  1
  O2-  O566  1  0.81268811  0.15710736  0.68872853  1
  O2-  O567  1  0.82568985  0.39586671  0.03202715  1
  O2-  O568  1  0.82652576  0.40917350  0.36353329  1
  O2-  O569  1  0.81630589  0.42405125  0.69869887  1
  O2-  O570  1  0.84177778  0.66352491  0.03026823  1
  O2-  O571  1  0.83576060  0.66553010  0.35615209  1
  O2-  O572  1  0.83305023  0.67415558  0.68618141  1
  O2-  O573  1  0.85639411  0.91795153  0.02524326  1
  O2-  O574  1  0.84462106  0.92481315  0.33725811  1
  O2-  O575  1  0.85325599  0.93074221  0.68659090  1
