# generated using pymatgen
data_H2O
_symmetry_space_group_name_H-M   'P 1'
_cell_length_a   17.98694851
_cell_length_b   17.99020402
_cell_length_c   22.00374486
_cell_angle_alpha   90.01466374
_cell_angle_beta   89.97637136
_cell_angle_gamma   120.03781045
_symmetry_Int_Tables_number   1
_chemical_formula_structural   H2O
_chemical_formula_sum   'H384 O192'
_cell_volume   6163.89427404
_cell_formula_units_Z   192
loop_
 _symmetry_equiv_pos_site_id
 _symmetry_equiv_pos_as_xyz
  1  'x, y, z'
loop_
 _atom_type_symbol
 _atom_type_oxidation_number
  H+  1.0
  O2-  -2.0
loop_
 _atom_site_type_symbol
 _atom_site_label
 _atom_site_symmetry_multiplicity
 _atom_site_fract_x
 _atom_site_fract_y
 _atom_site_fract_z
 _atom_site_occupancy
  H+  H0  1  0.15933669  0.59671042  0.92718113  1
  H+  H1  1  0.72473684  0.11517700  0.66289986  1
  H+  H2  1  0.64324496  0.12999797  0.66094414  1
  H+  H3  1  0.26157624  0.78346059  0.72491196  1
  H+  H4  1  0.23551137  0.11241209  0.18787710  1
  H+  H5  1  0.98486315  0.87238888  0.17413454  1
  H+  H6  1  0.25332871  0.90881349  0.32165230  1
  H+  H7  1  0.85269223  0.36643484  0.34560763  1
  H+  H8  1  0.87315272  0.12907076  0.16258257  1
  H+  H9  1  0.63110126  0.36225873  0.84409795  1
  H+  H10  1  0.52214018  0.89763683  -0.00050215  1
  H+  H11  1  0.87317099  0.38059421  0.83807311  1
  H+  H12  1  0.90820782  0.77261905  0.66409328  1
  H+  H13  1  0.60824847  0.97645576  0.83633182  1
  H+  H14  1  0.84992854  0.00287673  0.52967661  1
  H+  H15  1  0.38990657  0.01458656  0.70622650  1
  H+  H16  1  0.12578603  0.62406654  0.98915022  1
  H+  H17  1  0.60340706  0.98767266  0.15862011  1
  H+  H18  1  0.37130550  0.72010357  0.67167507  1
  H+  H19  1  0.48820153  0.37447914  0.82676460  1
  H+  H20  1  0.26473602  0.64599818  0.00372284  1
  H+  H21  1  0.36384025  0.21395540  0.17635412  1
  H+  H22  1  0.89870073  1.02917426  0.18195722  1
  H+  H23  1  0.89062730  0.53413494  0.99428303  1
  H+  H24  1  0.64023901  0.03426545  0.99153586  1
  H+  H25  1  0.08044861  0.66745311  0.06287945  1
  H+  H26  1  0.35812584  0.72135467  0.49479607  1
  H+  H27  1  0.95326793  0.62521812  0.49682792  1
  H+  H28  1  0.95695090  0.96025489  0.54641816  1
  H+  H29  1  0.26952176  0.14920721  0.68166931  1
  H+  H30  1  0.37662585  0.50306591  0.34334568  1
  H+  H31  1  0.11056889  0.63465299  0.15912082  1
  H+  H32  1  0.87329567  0.13583737  0.34048725  1
  H+  H33  1  0.51369656  0.36719754  0.49371728  1
  H+  H34  1  0.12569363  0.09282436  0.99217308  1
  H+  H35  1  0.19563602  0.10761214  0.28344424  1
  H+  H36  1  0.12852138  0.78462366  0.82173680  1
  H+  H37  1  0.37713207  0.35406874  0.50470927  1
  H+  H38  1  0.13628947  0.77982509  1.00130514  1
  H+  H39  1  0.72979994  0.61961654  0.17708038  1
  H+  H40  1  0.12887176  0.34726032  0.51332994  1
  H+  H41  1  0.08827972  0.59307567  0.50809828  1
  H+  H42  1  0.00280794  0.36542798  0.48728670  1
  H+  H43  1  0.22983466  0.60522832  0.32493082  1
  H+  H44  1  0.86171526  0.21815708  0.33877185  1
  H+  H45  1  0.89609834  0.37314245  -0.00854578  1
  H+  H46  1  0.98322998  0.11775064  0.99294197  1
  H+  H47  1  0.53296847  0.16354885  0.66805208  1
  H+  H48  1  0.47564507  0.86467355  0.32510338  1
  H+  H49  1  0.65390523  0.51158143  0.66559849  1
  H+  H50  1  0.27210061  0.89071288  0.49519760  1
  H+  H51  1  0.63517105  0.72713296  0.35690539  1
  H+  H52  1  0.11902826  0.22375340  0.15874473  1
  H+  H53  1  0.33529526  0.17642162  0.73793652  1
  H+  H54  1  0.23433150  0.61019384  0.66137376  1
  H+  H55  1  0.85527756  0.73273052  -0.00567141  1
  H+  H56  1  0.86092101  -0.01742399  1.00292522  1
  H+  H57  1  0.46907738  0.86749019  0.17037454  1
  H+  H58  1  0.85891904  0.65484927  0.72819730  1
  H+  H59  1  0.08433684  0.75269035  0.48591353  1
  H+  H60  1  0.15524428  0.27878731  0.84658571  1
  H+  H61  1  0.89114862  0.88377799  0.67979438  1
  H+  H62  1  0.47224249  0.61545838  0.17633341  1
  H+  H63  1  0.34333523  0.47022083  0.67025343  1
  H+  H64  1  0.15070204  0.49497423  0.50972694  1
  H+  H65  1  0.57231205  0.90962849  0.43028353  1
  H+  H66  1  1.12992267  0.39062418  0.83080983  1
  H+  H67  1  0.63247665  0.77660907  0.16719768  1
  H+  H68  1  0.61706841  0.97393546  0.33913818  1
  H+  H69  1  0.38258116  0.77559602  0.17161784  1
  H+  H70  1  1.01810281  0.64289319  1.00401438  1
  H+  H71  1  0.72106041  0.37179253  0.84269047  1
  H+  H72  1  0.87114772  0.86203861  0.98259790  1
  H+  H73  1  0.66382171  0.37546896  0.66211388  1
  H+  H74  1  0.75210579  0.87915421  0.34843206  1
  H+  H75  1  0.32569220  0.91447867  0.09713439  1
  H+  H76  1  0.70782823  0.12347728  0.18222378  1
  H+  H77  1  0.48834746  0.72069717  0.28733495  1
  H+  H78  1  0.40519603  0.49247402  0.32474587  1
  H+  H79  1  0.36194863  -0.02135027  0.49567794  1
  H+  H80  1  0.32751791  0.90744027  0.77598181  1
  H+  H81  1  0.90265414  0.10122372  0.51070482  1
  H+  H82  1  0.41369768  0.83793569  0.26682091  1
  H+  H83  1  0.11045919  0.72485699  0.15980745  1
  H+  H84  1  0.36482644  0.89401503  0.00252172  1
  H+  H85  1  0.86420744  0.66840859  0.35591245  1
  H+  H86  1  0.62919852  0.61195284  0.52411490  1
  H+  H87  1  0.38491788  0.77869485  0.99425372  1
  H+  H88  1  0.11863094  0.46578742  0.33676013  1
  H+  H89  1  0.86765020  0.20978156  0.83552799  1
  H+  H90  1  0.35221359  0.88511835  0.15799352  1
  H+  H91  1  0.76280587  0.38161431  0.49882698  1
  H+  H92  1  0.08560493  0.24187366  0.32153752  1
  H+  H93  1  0.60721688  0.90107995  0.14891748  1
  H+  H94  1  0.87357656  0.38166327  0.66634250  1
  H+  H95  1  0.43432583  0.58565681  0.98713732  1
  H+  H96  1  0.86945019  0.34921073  0.16919001  1
  H+  H97  1  0.63103472  0.26510150  0.51042959  1
  H+  H98  1  0.12127255  0.63893426  0.65994396  1
  H+  H99  1  0.19201720  0.31128548  0.33747376  1
  H+  H100  1  0.86481197  0.64624990  0.15007876  1
  H+  H101  1  0.61053305  0.63316440  0.16730044  1
  H+  H102  1  0.93293427  0.09366224  0.24054335  1
  H+  H103  1  0.09772736  0.63983123  0.82020553  1
  H+  H104  1  0.33535780  0.37860834  0.66924329  1
  H+  H105  1  0.41418482  0.57546056  0.60057563  1
  H+  H106  1  0.99382494  0.33245457  0.84657504  1
  H+  H107  1  0.62740300  0.35247466  0.50966125  1
  H+  H108  1  0.58875881  0.62413469  0.99732245  1
  H+  H109  1  0.47237995  0.86392149  0.84236694  1
  H+  H110  1  0.12367630  0.98355378  0.17194222  1
  H+  H111  1  0.37917411  0.51607653  0.50400173  1
  H+  H112  1  0.63673323  0.26976398  0.32905277  1
  H+  H113  1  0.02019038  0.61639379  0.34505123  1
  H+  H114  1  0.24329201  0.57784707  0.51187611  1
  H+  H115  1  0.27126554  0.46621249  0.96851020  1
  H+  H116  1  0.51511883  0.37170160  0.34194878  1
  H+  H117  1  0.89137423  1.02340776  0.67285801  1
  H+  H118  1  0.39838335  0.36006323  0.18369686  1
  H+  H119  1  0.12614740  0.21668556  0.01619052  1
  H+  H120  1  0.50680688  0.12497259  0.82056253  1
  H+  H121  1  0.62499670  0.26423959  0.17955637  1
  H+  H122  1  -0.02548086  0.89236881  0.81724303  1
  H+  H123  1  0.60574900  0.37461734  0.33836074  1
  H+  H124  1  0.62347653  0.70493447  0.67425549  1
  H+  H125  1  0.34676761  0.63508696  0.99942140  1
  H+  H126  1  0.11699250  0.50707363  0.98982217  1
  H+  H127  1  0.71626458  0.86134349  0.99382808  1
  H+  H128  1  0.88803722  0.62162339  0.99241562  1
  H+  H129  1  0.43695524  0.46623478  0.12224322  1
  H+  H130  1  0.12699852  1.00673040  0.34847239  1
  H+  H131  1  0.20036600  0.33091323  0.66527907  1
  H+  H132  1  0.03027486  0.91096047  0.49525951  1
  H+  H133  1  0.37112595  0.23299920  0.03477271  1
  H+  H134  1  0.13664493  0.52608459  0.84174871  1
  H+  H135  1  0.26626419  0.38153289  0.50209826  1
  H+  H136  1  0.46635843  0.86836243  0.66055228  1
  H+  H137  1  0.64155088  0.53010798  0.99316847  1
  H+  H138  1  0.62334473  0.47854094  0.81684878  1
  H+  H139  1  0.02836723  0.40018668  -0.00648369  1
  H+  H140  1  0.35077038  0.23676793  0.33026683  1
  H+  H141  1  0.40541963  0.15435095  0.65235039  1
  H+  H142  1  0.50078666  0.09990987  0.22822826  1
  H+  H143  1  0.51093076  0.62045229  0.49725852  1
  H+  H144  1  0.82316043  0.10750244  0.83262091  1
  H+  H145  1  0.59009877  1.00537325  0.68340158  1
  H+  H146  1  0.13190704  1.03461388  0.51396394  1
  H+  H147  1  0.67762557  0.84106047  0.65414063  1
  H+  H148  1  0.97591204  0.35569188  0.66347671  1
  H+  H149  1  0.61338866  0.84881846  0.47902719  1
  H+  H150  1  0.82401117  0.39782419  0.40484015  1
  H+  H151  1  0.10218875  0.46505511  0.15944285  1
  H+  H152  1  0.60465661  0.62296634  0.83136883  1
  H+  H153  1  0.52675530  0.62347597  0.67152436  1
  H+  H154  1  0.53439263  0.13653102  0.34155211  1
  H+  H155  1  0.60055801  0.12841493  0.49776339  1
  H+  H156  1  0.64375674  0.59955210  0.66971549  1
  H+  H157  1  0.13324568  0.14905373  0.47962304  1
  H+  H158  1  0.35435657  0.73478401  0.34081394  1
  H+  H159  1  0.28265315  0.13752515  0.83182394  1
  H+  H160  1  0.12830553  0.87350056  0.81800145  1
  H+  H161  1  0.48329427  0.35594634  0.18748833  1
  H+  H162  1  0.56874840  0.39257315  0.66445170  1
  H+  H163  1  0.44708558  0.37147268  0.66386820  1
  H+  H164  1  0.10108910  0.98834679  0.71733453  1
  H+  H165  1  0.34724610  1.01289290  0.70646507  1
  H+  H166  1  0.99197705  0.86200409  0.68235400  1
  H+  H167  1  0.10425239  0.70742020  0.33188544  1
  H+  H168  1  0.13097620  0.62753150  0.49609237  1
  H+  H169  1  0.62433170  0.39850933  1.01181472  1
  H+  H170  1  0.33789891  0.92265500  0.40379399  1
  H+  H171  1  0.36993722  0.23182390  0.82987151  1
  H+  H172  1  0.48290895  0.12185748  -0.00533070  1
  H+  H173  1  0.40306127  0.02795851  0.32903877  1
  H+  H174  1  0.12543248  0.35201437  0.16746698  1
  H+  H175  1  0.13018017  0.19308699  0.66611720  1
  H+  H176  1  0.22765528  0.86984068  1.00141832  1
  H+  H177  1  0.87716114  0.99846010  0.34958684  1
  H+  H178  1  0.60493040  0.13071572  0.82288432  1
  H+  H179  1  0.43554589  0.35913086  0.88825988  1
  H+  H180  1  0.89555117  0.80064729  0.33332654  1
  H+  H181  1  0.05691857  0.13655550  0.82551402  1
  H+  H182  1  0.38425150  0.60809039  0.50377554  1
  H+  H183  1  0.84970805  0.47365365  0.49459080  1
  H+  H184  1  0.72627834  0.62242173  0.99004726  1
  H+  H185  1  0.86729421  0.73578336  0.15918770  1
  H+  H186  1  0.62338438  0.01593217  0.50997430  1
  H+  H187  1  0.39001530  0.60764254  0.66131779  1
  H+  H188  1  0.04907790  0.11014524  0.32731387  1
  H+  H189  1  0.34661048  0.21604468  0.48387665  1
  H+  H190  1  0.36041950  0.72638356  0.82655720  1
  H+  H191  1  0.38149705  0.86080051  0.50552106  1
  H+  H192  1  0.57289912  0.65311131  0.10711583  1
  H+  H193  1  0.88980580  0.22748335  0.49264951  1
  H+  H194  1  0.26725098  0.36534067  0.01980946  1
  H+  H195  1  0.37066193  0.39263267  0.81730547  1
  H+  H196  1  0.86800648  0.60736837  0.33437201  1
  H+  H197  1  0.08933052  0.42006182  0.77625598  1
  H+  H198  1  0.85762068  0.12697584  0.67583285  1
  H+  H199  1  0.20553201  0.38214907  0.93064099  1
  H+  H200  1  0.64249585  0.28603996  -0.00340413  1
  H+  H201  1  0.87245605  0.89464764  0.16085363  1
  H+  H202  1  0.01156343  0.29413591  0.45846966  1
  H+  H203  1  0.68017898  0.88526623  0.83553541  1
  H+  H204  1  0.34445179  0.34729817  0.01784821  1
  H+  H205  1  0.02591019  0.46652174  0.71921654  1
  H+  H206  1  0.54208040  0.65366648  0.34095632  1
  H+  H207  1  0.39045340  0.11686608  0.83756596  1
  H+  H208  1  0.61990700  0.88617663  0.34238941  1
  H+  H209  1  0.61234728  0.75004384  0.48235320  1
  H+  H210  1  0.58186517  0.16535388  0.43707616  1
  H+  H211  1  0.78400184  0.89585901  0.15859242  1
  H+  H212  1  0.92912152  0.09885274  0.81403636  1
  H+  H213  1  0.50433174  0.98258174  0.71774299  1
  H+  H214  1  0.72460472  0.35779428  0.33118668  1
  H+  H215  1  0.12566531  0.77107866  0.65787984  1
  H+  H216  1  0.22203707  0.61736177  0.83678371  1
  H+  H217  1  0.76503697  0.64404308  0.34873581  1
  H+  H218  1  0.98063031  0.61415511  0.15874738  1
  H+  H219  1  0.87906514  0.91177173  0.34860428  1
  H+  H220  1  0.72964832  0.10555289  0.32985991  1
  H+  H221  1  0.36003182  0.63669471  0.82530973  1
  H+  H222  1  0.13365763  0.86192111  0.67417371  1
  H+  H223  1  0.22119813  0.61149175  0.16760963  1
  H+  H224  1  0.22330504  0.85905685  0.16362323  1
  H+  H225  1  0.11605393  0.34796340  0.32889382  1
  H+  H226  1  0.61708144  0.38444733  0.16573583  1
  H+  H227  1  1.01368569  0.37732716  0.16163414  1
  H+  H228  1  0.36740657  0.89323314  0.34299690  1
  H+  H229  1  0.62833970  0.24260747  0.67704802  1
  H+  H230  1  0.14441303  0.01805066  0.83222004  1
  H+  H231  1  0.14632523  0.11328221  0.18692969  1
  H+  H232  1  0.61837117  0.47485257  0.16779688  1
  H+  H233  1  0.38031462  0.52279563  0.83227414  1
  H+  H234  1  0.38196359  0.86350070  0.84325374  1
  H+  H235  1  0.39608079  0.31063046  0.27902089  1
  H+  H236  1  0.85285147  0.46658101  0.15471821  1
  H+  H237  1  0.58741394  0.85712671  0.65799820  1
  H+  H238  1  0.57539987  0.39819209  0.43663386  1
  H+  H239  1  0.37304593  0.14821611  0.01699594  1
  H+  H240  1  0.13816367  0.59658123  0.32549222  1
  H+  H241  1  0.87447077  0.14759006  -0.00221642  1
  H+  H242  1  0.77926174  0.39214101  0.00121278  1
  H+  H243  1  0.36726031  0.83219200  0.65963243  1
  H+  H244  1  0.63112026  0.86556894  -0.01201523  1
  H+  H245  1  0.12613108  0.88261097  1.01588759  1
  H+  H246  1  0.13036568  0.92219578  0.33866361  1
  H+  H247  1  0.24812315  0.84544763  0.68240699  1
  H+  H248  1  0.46846908  0.11429937  0.50007252  1
  H+  H249  1  0.37099770  0.27367217  0.66557844  1
  H+  H250  1  0.84349100  0.63412899  0.50397155  1
  H+  H251  1  0.24088052  0.36813304  0.83786140  1
  H+  H252  1  0.59213456  0.42520708  0.07230207  1
  H+  H253  1  0.73204964  0.12238269  -0.00886553  1
  H+  H254  1  0.87479990  0.17583544  0.43110470  1
  H+  H255  1  0.61212887  0.11627472  0.18157135  1
  H+  H256  1  0.74274669  0.44968523  0.76060571  1
  H+  H257  1  0.76398142  0.84380811  0.67262837  1
  H+  H258  1  0.11804952  0.16201630  0.76781351  1
  H+  H259  1  0.72887439  0.62293374  0.51933015  1
  H+  H260  1  0.14508639  0.27043582  0.50111655  1
  H+  H261  1  0.87727496  0.36412764  0.51045635  1
  H+  H262  1  0.94446184  0.57699063  0.33649755  1
  H+  H263  1  0.03282250  0.13371020  0.16401786  1
  H+  H264  1  0.89551835  0.61056958  0.65451247  1
  H+  H265  1  0.13404194  0.42128448  -0.00956938  1
  H+  H266  1  0.49862739  0.38243622  0.99475175  1
  H+  H267  1  0.02867675  0.63342711  0.65916445  1
  H+  H268  1  0.76268350  0.37762092  0.15825307  1
  H+  H269  1  0.78755053  0.63509221  0.67611733  1
  H+  H270  1  0.38333925  0.02309156  0.83917342  1
  H+  H271  1  0.22787282  0.26326693  0.39742878  1
  H+  H272  1  0.87067421  0.26080384  0.16932789  1
  H+  H273  1  0.90926588  0.42415772  0.84716609  1
  H+  H274  1  0.58146533  0.70690294  -0.00134695  1
  H+  H275  1  0.78650850  0.38569885  0.65960131  1
  H+  H276  1  0.29894141  0.14897879  0.42768910  1
  H+  H277  1  0.89657857  0.52099355  0.65045820  1
  H+  H278  1  0.11856486  0.89133413  0.16432164  1
  H+  H279  1  0.26345507  0.89130717  0.82873370  1
  H+  H280  1  -0.02806014  0.35295439  0.31893802  1
  H+  H281  1  0.07911052  0.66698997  0.75617895  1
  H+  H282  1  0.62233967  0.14729546  1.01055023  1
  H+  H283  1  0.62655142  0.90155684  0.65499541  1
  H+  H284  1  0.11522485  0.97501577  0.00885918  1
  H+  H285  1  0.15722971  0.11138990  0.84121732  1
  H+  H286  1  0.63741437  0.60259341  0.33380410  1
  H+  H287  1  0.51101940  0.87307323  0.49023308  1
  H+  H288  1  0.43762429  0.62626420  0.26291706  1
  H+  H289  1  0.32675336  0.41564721  0.76106518  1
  H+  H290  1  0.14929542  0.29396070  0.60434370  1
  H+  H291  1  0.66327040  0.07969433  0.27313078  1
  H+  H292  1  0.65435367  0.07752120  0.56746874  1
  H+  H293  1  0.16525693  0.57793735  0.22796745  1
  H+  H294  1  0.41311959  0.83411921  0.93327054  1
  H+  H295  1  0.10828580  0.49289370  0.68070518  1
  H+  H296  1  0.57963225  0.93076935  0.05902525  1
  H+  H297  1  0.22060182  0.11908082  0.51376705  1
  H+  H298  1  0.37067619  0.65772291  0.33893874  1
  H+  H299  1  0.71638883  0.12084813  0.83981907  1
  H+  H300  1  0.09538939  0.92445299  0.07743116  1
  H+  H301  1  0.31251135  0.39418231  0.43916989  1
  H+  H302  1  0.91295331  0.33353704  0.56757753  1
  H+  H303  1  0.43769357  0.29434844  0.96275236  1
  H+  H304  1  0.69650994  0.85617861  0.89906925  1
  H+  H305  1  0.94578043  0.87782099  0.58088414  1
  H+  H306  1  0.84739258  0.17245808  0.05969016  1
  H+  H307  1  0.41224189  0.82848598  0.56348283  1
  H+  H308  1  0.14034908  0.88296782  0.50753341  1
  H+  H309  1  0.57542737  0.64706508  0.77077906  1
  H+  H310  1  0.82673075  0.16016161  0.73315509  1
  H+  H311  1  0.08960476  0.93603515  0.43498507  1
  H+  H312  1  0.83753936  0.92633936  0.06316439  1
  H+  H313  1  0.15408718  0.09781566  0.61411400  1
  H+  H314  1  0.06819337  0.68659640  0.43357964  1
  H+  H315  1  0.15765928  0.06117749  0.93397056  1
  H+  H316  1  0.57681530  0.16560479  0.75571071  1
  H+  H317  1  0.57204976  0.92735204  0.77552955  1
  H+  H318  1  0.30761103  0.31218223  0.34942201  1
  H+  H319  1  0.92476794  0.84532699  0.23281695  1
  H+  H320  1  0.42400585  0.09360528  0.93502368  1
  H+  H321  1  0.36590116  -0.01603741  1.00424151  1
  H+  H322  1  0.66888350  0.34468977  0.93612873  1
  H+  H323  1  0.39114125  0.57631803  0.92286210  1
  H+  H324  1  0.17237011  0.84203818  0.22587386  1
  H+  H325  1  0.32819657  0.66865563  0.09736165  1
  H+  H326  1  0.35766280  0.63888387  0.15727697  1
  H+  H327  1  0.66991413  0.58427216  0.58862825  1
  H+  H328  1  -0.05236179  0.64214468  0.80605776  1
  H+  H329  1  0.59874799  0.42089627  0.75553261  1
  H+  H330  1  0.86198016  0.90832433  0.74132821  1
  H+  H331  1  0.23539694  0.96352355  0.27581881  1
  H+  H332  1  0.91783313  0.59251836  0.21647220  1
  H+  H333  1  0.59466319  0.17678283  0.07063911  1
  H+  H334  1  0.63683024  0.51329031  0.33229632  1
  H+  H335  1  0.33182396  0.15574389  0.11759218  1
  H+  H336  1  0.15743067  0.32277313  0.22446590  1
  H+  H337  1  0.67314766  0.58459683  0.23834553  1
  H+  H338  1  0.93347211  0.30938272  0.90430924  1
  H+  H339  1  0.90531574  0.32078907  0.26368102  1
  H+  H340  1  0.34149692  0.40107544  0.10758637  1
  H+  H341  1  0.92608788  0.01582144  0.83931556  1
  H+  H342  1  0.81479451  0.67596849  0.45121529  1
  H+  H343  1  0.16256597  0.84461010  0.56580775  1
  H+  H344  1  0.62272403  0.13691625  0.34612173  1
  H+  H345  1  0.75501026  0.84858768  0.58064983  1
  H+  H346  1  0.65969681  0.09601103  0.90046954  1
  H+  H347  1  0.90076486  0.28592089  0.99657449  1
  H+  H348  1  0.52011309  0.13543761  0.14382682  1
  H+  H349  1  0.67409080  0.33118492  0.60023343  1
  H+  H350  1  0.89893971  0.83644955  0.92128534  1
  H+  H351  1  0.40091669  0.31907521  0.56279489  1
  H+  H352  1  0.70498111  0.84144409  0.49958966  1
  H+  H353  1  0.07369675  0.39656766  0.39363144  1
  H+  H354  1  0.68579097  0.77087561  0.07453297  1
  H+  H355  1  0.33045448  0.66582773  0.43362882  1
  H+  H356  1  0.80066701  0.63316914  0.83192973  1
  H+  H357  1  0.83040398  0.86965574  0.53198563  1
  H+  H358  1  0.67877264  0.58588358  0.90189372  1
  H+  H359  1  0.93210008  0.09087241  0.93023439  1
  H+  H360  1  0.66561848  0.32967372  0.23487550  1
  H+  H361  1  0.70490072  0.74232423  0.07382051  1
  H+  H362  1  0.07641460  0.16241233  0.42868776  1
  H+  H363  1  0.43230204  0.12189835  0.59242975  1
  H+  H364  1  0.08562948  0.15628668  0.07321554  1
  H+  H365  1  0.65427957  0.84955422  0.21609507  1
  H+  H366  1  0.38592525  0.52769777  0.18053431  1
  H+  H367  1  0.70539829  0.82301261  0.29154436  1
  H+  H368  1  0.89483342  0.57303178  0.26939053  1
  H+  H369  1  0.83077487  0.68009212  0.05744858  1
  H+  H370  1  0.85853464  0.55620015  0.79423452  1
  H+  H371  1  0.83381472  0.41417085  0.06163854  1
  H+  H372  1  0.81709841  0.88851026  0.83605530  1
  H+  H373  1  0.98829020  0.88608655  0.32889818  1
  H+  H374  1  0.47155319  0.60855527  0.83757178  1
  H+  H375  1  0.91151529  0.07625356  0.61196716  1
  H+  H376  1  0.18013155  0.56330608  0.60201815  1
  H+  H377  1  0.57607419  0.64385560  0.43973359  1
  H+  H378  1  0.90913640  0.58333060  0.56055979  1
  H+  H379  1  0.78096165  0.09115274  0.13475436  1
  H+  H380  1  0.33782808  0.66434348  0.73332395  1
  H+  H381  1  0.81780311  0.43338593  0.74508485  1
  H+  H382  1  0.88825664  0.26275313  0.66163442  1
  H+  H383  1  0.37618928  0.10972235  0.49764044  1
  O2-  O384  1  0.09203924  0.16067681  0.14698427  1
  O2-  O385  1  0.12973810  0.19208574  0.45221583  1
  O2-  O386  1  0.11786253  0.17177712  0.81227940  1
  O2-  O387  1  0.07371792  0.40400858  0.14738780  1
  O2-  O388  1  0.04742757  0.35759431  0.46432703  1
  O2-  O389  1  0.09422396  0.41759261  0.82115782  1
  O2-  O390  1  0.07916218  0.66414821  0.14393904  1
  O2-  O391  1  0.03838225  0.70563698  0.46111390  1
  O2-  O392  1  0.07106830  0.67030289  0.80060010  1
  O2-  O393  1  0.09073893  0.92547131  0.15194832  1
  O2-  O394  1  0.09010538  0.93463106  0.48055459  1
  O2-  O395  1  0.07253157  0.92554933  0.79574372  1
  O2-  O396  1  0.32867509  0.15372588  0.16280779  1
  O2-  O397  1  0.31207822  0.15402770  0.47278538  1
  O2-  O398  1  0.34294616  0.17148936  0.81505395  1
  O2-  O399  1  0.38089147  0.43654727  0.14195497  1
  O2-  O400  1  0.32479931  0.41058561  0.48237065  1
  O2-  O401  1  0.33498846  0.41909798  0.80652487  1
  O2-  O402  1  0.32740570  0.66910086  0.14290246  1
  O2-  O403  1  0.33363416  0.66158526  0.47869762  1
  O2-  O404  1  0.32893213  0.66660271  0.81005070  1
  O2-  O405  1  0.31720502  0.90904956  0.14193480  1
  O2-  O406  1  0.33290827  0.91730632  0.48096060  1
  O2-  O407  1  0.32816881  0.91830352  0.82004065  1
  O2-  O408  1  0.56886506  0.16042484  0.17145411  1
  O2-  O409  1  0.57397174  0.16263643  0.48223284  1
  O2-  O410  1  0.56912930  0.15440712  0.80324034  1
  O2-  O411  1  0.58674012  0.41562399  0.15110600  1
  O2-  O412  1  0.57486937  0.39556002  0.48155491  1
  O2-  O413  1  0.58923901  0.41875234  0.80205781  1
  O2-  O414  1  0.57760049  0.66101548  0.15186071  1
  O2-  O415  1  0.57402399  0.65094027  0.48482145  1
  O2-  O416  1  0.56908091  0.64607599  0.81556371  1
  O2-  O417  1  0.57403885  0.92932212  0.13842723  1
  O2-  O418  1  0.57234786  0.90101057  0.47542044  1
  O2-  O419  1  0.58073938  0.91782531  0.81878400  1
  O2-  O420  1  0.83382257  0.14588428  0.14053804  1
  O2-  O421  1  0.90759519  0.19121918  0.47024255  1
  O2-  O422  1  0.81798027  0.15487313  0.81582576  1
  O2-  O423  1  0.82303810  0.40587200  0.14158254  1
  O2-  O424  1  0.82371058  0.41186650  0.48342728  1
  O2-  O425  1  0.79204645  0.44986498  0.77943013  1
  O2-  O426  1  0.83185453  0.67601426  0.14303488  1
  O2-  O427  1  0.81242737  0.66679031  0.49550620  1
  O2-  O428  1  0.76114152  0.65634321  0.83729548  1
  O2-  O429  1  0.84507670  0.92842262  0.14663238  1
  O2-  O430  1  0.77757488  0.87339207  0.53916115  1
  O2-  O431  1  0.87663625  0.91550909  0.81685807  1
  O2-  O432  1  0.17452491  0.08349796  0.20605412  1
  O2-  O433  1  0.16040054  0.09475881  0.53002861  1
  O2-  O434  1  0.18061591  0.07392485  0.85483204  1
  O2-  O435  1  0.15797167  0.32245308  0.18007548  1
  O2-  O436  1  0.16454582  0.32289629  0.52707372  1
  O2-  O437  1  0.18270049  0.34022158  0.85839752  1
  O2-  O438  1  0.16076862  0.58113102  0.18314375  1
  O2-  O439  1  0.19911529  0.52914891  0.53646202  1
  O2-  O440  1  0.16156304  0.58823053  0.85217308  1
  O2-  O441  1  0.16207917  0.82858522  0.18199277  1
  O2-  O442  1  0.16506807  0.84636610  0.52079348  1
  O2-  O443  1  0.16282396  0.84665393  0.83089692  1
  O2-  O444  1  0.45665347  0.04750699  0.25172345  1
  O2-  O445  1  0.40799457  0.08320311  0.51629980  1
  O2-  O446  1  0.42062762  0.08522268  0.85128781  1
  O2-  O447  1  0.42286913  0.32683071  0.20243291  1
  O2-  O448  1  0.40246684  0.31844906  0.51777509  1
  O2-  O449  1  0.42816283  0.34650755  0.84424644  1
  O2-  O450  1  0.41219034  0.58914241  0.19245493  1
  O2-  O451  1  0.41278766  0.57632182  0.51972976  1
  O2-  O452  1  0.40841727  0.58244072  0.84903032  1
  O2-  O453  1  0.41107257  0.83461233  0.18925137  1
  O2-  O454  1  0.41077918  0.82807221  0.51795812  1
  O2-  O455  1  0.41098582  0.83092432  0.85592443  1
  O2-  O456  1  0.64852419  0.08341601  0.19362542  1
  O2-  O457  1  0.64897800  0.07625191  0.52259837  1
  O2-  O458  1  0.65552136  0.09211444  0.85489669  1
  O2-  O459  1  0.66268929  0.32802121  0.18935992  1
  O2-  O460  1  0.66176007  0.32578401  0.52576256  1
  O2-  O461  1  0.66535128  0.33930831  0.86356688  1
  O2-  O462  1  0.66971990  0.58679064  0.19319998  1
  O2-  O463  1  0.66622149  0.58902454  0.53954809  1
  O2-  O464  1  0.67887703  0.58204244  0.85536735  1
  O2-  O465  1  0.66359058  0.84018653  0.17385080  1
  O2-  O466  1  0.64728991  0.81505144  0.47434916  1
  O2-  O467  1  0.72239298  0.87696113  0.85814052  1
  O2-  O468  1  0.92880207  0.09085851  0.19437523  1
  O2-  O469  1  0.90531502  0.05578349  0.53490648  1
  O2-  O470  1  0.94969450  0.07903757  0.84786573  1
  O2-  O471  1  0.89931130  0.31931362  0.18609749  1
  O2-  O472  1  0.91096050  0.33578139  0.52245717  1
  O2-  O473  1  0.94328972  0.28444774  0.86711460  1
  O2-  O474  1  0.91674715  0.58401162  0.17227451  1
  O2-  O475  1  0.89710156  0.58278948  0.51597814  1
  O2-  O476  1  0.88613420  0.62007398  0.79773526  1
  O2-  O477  1  0.92314458  0.84107701  0.18754285  1
  O2-  O478  1  0.94078454  0.90000895  0.54032605  1
  O2-  O479  1  0.91419326  0.86390590  0.83754023  1
  O2-  O480  1  0.19219986  0.11372475  0.32885204  1
  O2-  O481  1  0.16292099  0.09960187  0.65932972  1
  O2-  O482  1  0.14950440  0.05653712  0.97880076  1
  O2-  O483  1  0.13466402  0.30335009  0.31404553  1
  O2-  O484  1  0.14662605  0.28266962  0.64872181  1
  O2-  O485  1  0.21662688  0.41046760  0.97164206  1
  O2-  O486  1  0.16934904  0.56823231  0.30988167  1
  O2-  O487  1  0.17463771  0.58140530  0.64437387  1
  O2-  O488  1  0.15740447  0.59365059  0.97313381  1
  O2-  O489  1  0.20597557  0.90781216  0.29628136  1
  O2-  O490  1  0.15900572  0.83469505  0.64941192  1
  O2-  O491  1  0.16511133  0.84237281  0.99162551  1
  O2-  O492  1  0.43952631  0.08324204  0.30632565  1
  O2-  O493  1  0.45212682  0.14915304  0.63302295  1
  O2-  O494  1  0.42251848  0.09314716  0.98012339  1
  O2-  O495  1  0.38507203  0.30176361  0.32367537  1
  O2-  O496  1  0.39299283  0.33149905  0.64435726  1
  O2-  O497  1  0.44064268  0.34831330  0.97366593  1
  O2-  O498  1  0.46034907  0.66132706  0.30138762  1
  O2-  O499  1  0.41652629  0.57380487  0.64579778  1
  O2-  O500  1  0.37797627  0.56797777  0.96789734  1
  O2-  O501  1  0.41427927  0.83638975  0.31254898  1
  O2-  O502  1  0.41273938  0.82271013  0.64119535  1
  O2-  O503  1  0.41606679  0.83893608  0.97870817  1
  O2-  O504  1  0.66740372  0.07594592  0.31824347  1
  O2-  O505  1  0.66359833  0.08972585  0.64873541  1
  O2-  O506  1  0.67103289  0.09615700  0.97795061  1
  O2-  O507  1  0.66468279  0.33042879  0.31392277  1
  O2-  O508  1  0.68517506  0.33602084  0.64554794  1
  O2-  O509  1  0.67205133  0.34653965  0.98242025  1
  O2-  O510  1  0.67091886  0.57535078  0.31938162  1
  O2-  O511  1  0.67998655  0.57795407  0.65061141  1
  O2-  O512  1  0.66563673  0.58772161  0.97376751  1
  O2-  O513  1  0.69131850  0.83591827  0.33149232  1
  O2-  O514  1  0.70825917  0.80934277  0.64826924  1
  O2-  O515  1  0.65796081  0.83136711  0.97525645  1
  O2-  O516  1  0.93471632  0.09711277  0.31575609  1
  O2-  O517  1  0.90945992  0.08129302  0.65708177  1
  O2-  O518  1  0.92460263  0.09271573  0.97464393  1
  O2-  O519  1  0.91006217  0.32090627  0.30905935  1
  O2-  O520  1  0.91794400  0.32296629  0.64511962  1
  O2-  O521  1  0.93118005  0.34564311  0.97965935  1
  O2-  O522  1  0.88520829  0.56454629  0.31617205  1
  O2-  O523  1  0.92632852  0.58226181  0.63616914  1
  O2-  O524  1  0.92303494  0.59492759  0.98129271  1
  O2-  O525  1  0.92805288  0.85665749  0.31283383  1
  O2-  O526  1  0.94209032  0.83529051  0.65396782  1
  O2-  O527  1  0.89592076  0.82816794  0.96558819  1
  O2-  O528  1  0.08399112  0.15772570  0.02686706  1
  O2-  O529  1  0.02364694  0.14374590  0.34259092  1
  O2-  O530  1  0.11043036  0.13322762  0.68557735  1
  O2-  O531  1  0.09253626  0.44118290  0.00339469  1
  O2-  O532  1  0.08380021  0.40332658  0.34831940  1
  O2-  O533  1  0.06152933  0.44334671  0.70475979  1
  O2-  O534  1  0.08117173  0.67144821  0.01776667  1
  O2-  O535  1  0.08369578  0.65155573  0.35161532  1
  O2-  O536  1  0.08923951  0.66734765  0.67507123  1
  O2-  O537  1  0.09238118  0.91590995  0.03191818  1
  O2-  O538  1  0.09356843  0.94328647  0.35702432  1
  O2-  O539  1  0.08183357  0.92809742  0.72762468  1
  O2-  O540  1  0.34144357  0.17104388  0.04007052  1
  O2-  O541  1  0.28004829  0.13780746  0.35050082  1
  O2-  O542  1  0.33168548  0.18040764  0.69265499  1
  O2-  O543  1  0.29887444  0.34410947  0.04440610  1
  O2-  O544  1  0.25849987  0.31510963  0.37160956  1
  O2-  O545  1  0.30835131  0.41054956  0.68684181  1
  O2-  O546  1  0.32469407  0.67091107  0.01875345  1
  O2-  O547  1  0.32856279  0.67343530  0.35476506  1
  O2-  O548  1  0.33867778  0.66019844  0.68776438  1
  O2-  O549  1  0.33400045  0.92324251  0.01839484  1
  O2-  O550  1  0.34156908  0.92754095  0.35826570  1
  O2-  O551  1  0.29365636  0.83874706  0.70434413  1
  O2-  O552  1  0.59128907  0.17691268  0.02604816  1
  O2-  O553  1  0.59342288  0.16871502  0.35975265  1
  O2-  O554  1  0.58944507  0.18066265  0.69054765  1
  O2-  O555  1  0.59328029  0.42862482  0.02676736  1
  O2-  O556  1  0.57638100  0.40652203  0.35309410  1
  O2-  O557  1  0.62154450  0.42766689  0.68709991  1
  O2-  O558  1  0.55338547  0.64739204  0.01458379  1
  O2-  O559  1  0.59515679  0.66422272  0.36267219  1
  O2-  O560  1  0.58486040  0.64611729  0.68989019  1
  O2-  O561  1  0.58332039  0.93019787  0.01375625  1
  O2-  O562  1  0.58396017  0.91173601  0.35277519  1
  O2-  O563  1  0.53912615  0.95736569  0.70586613  1
  O2-  O564  1  0.84468238  0.17756975  0.01496774  1
  O2-  O565  1  0.83579845  0.15905214  0.35617779  1
  O2-  O566  1  0.82808051  0.16087510  0.68812468  1
  O2-  O567  1  0.83981205  0.41924394  0.01652886  1
  O2-  O568  1  0.82468562  0.39885786  0.35955213  1
  O2-  O569  1  0.84758024  0.41849110  0.67555849  1
  O2-  O570  1  0.82766215  0.67293274  0.01280383  1
  O2-  O571  1  0.82338201  0.68778804  0.36628860  1
  O2-  O572  1  0.85063679  0.66527790  0.68483284  1
  O2-  O573  1  0.82808623  0.92283770  0.01855997  1
  O2-  O574  1  0.84669944  0.93806546  0.36602166  1
  O2-  O575  1  0.85572934  0.90842716  0.69614092  1
