# generated using pymatgen
data_H2O
_symmetry_space_group_name_H-M   'P 1'
_cell_length_a   17.98830145
_cell_length_b   17.99689659
_cell_length_c   21.97831065
_cell_angle_alpha   89.99994385
_cell_angle_beta   90.02116545
_cell_angle_gamma   119.99479606
_symmetry_Int_Tables_number   1
_chemical_formula_structural   H2O
_chemical_formula_sum   'H384 O192'
_cell_volume   6162.19517228
_cell_formula_units_Z   192
loop_
 _symmetry_equiv_pos_site_id
 _symmetry_equiv_pos_as_xyz
  1  'x, y, z'
loop_
 _atom_type_symbol
 _atom_type_oxidation_number
  H+  1.0
  O2-  -2.0
loop_
 _atom_site_type_symbol
 _atom_site_label
 _atom_site_symmetry_multiplicity
 _atom_site_fract_x
 _atom_site_fract_y
 _atom_site_fract_z
 _atom_site_occupancy
  H+  H0  1  0.04646573  0.14497027  0.50586394  1
  H+  H1  1  0.58678978  0.91172186  0.08846081  1
  H+  H2  1  0.85466258  0.71872103  0.15384477  1
  H+  H3  1  0.80439203  0.14709933  0.48658480  1
  H+  H4  1  0.64452053  0.32996687  0.83134178  1
  H+  H5  1  0.61775630  0.95577298  0.70466029  1
  H+  H6  1  0.86244532  0.38199806  0.66774590  1
  H+  H7  1  0.03190586  0.87364914  0.66043745  1
  H+  H8  1  0.39808664  0.10634188  1.01335863  1
  H+  H9  1  0.59334848  0.97533599  0.48643315  1
  H+  H10  1  0.62097389  0.86939317  0.51100339  1
  H+  H11  1  0.38413479  0.28723593  0.84543472  1
  H+  H12  1  0.42758114  0.89386649  0.87553730  1
  H+  H13  1  0.62380703  0.84561776  0.67393915  1
  H+  H14  1  0.40769981  0.28463107  0.33482300  1
  H+  H15  1  0.37913237  0.50978877  0.32131355  1
  H+  H16  1  0.87281969  0.37373969  -0.00865450  1
  H+  H17  1  0.90148187  0.84880657  0.11618058  1
  H+  H18  1  0.97391614  0.79814242  0.30419422  1
  H+  H19  1  0.11932393  0.73608757  0.66588166  1
  H+  H20  1  0.97934752  0.60982150  0.98813030  1
  H+  H21  1  0.73508156  0.35010866  0.98979797  1
  H+  H22  1  0.26680784  0.36661568  0.16879518  1
  H+  H23  1  0.89790650  0.76426683  0.65208690  1
  H+  H24  1  0.61019620  0.63253085  0.15335996  1
  H+  H25  1  0.39088010  0.27368859  0.50620068  1
  H+  H26  1  0.63908939  0.00810036  0.85161792  1
  H+  H27  1  0.78255991  0.14872336  0.00474615  1
  H+  H28  1  0.88758809  0.52051897  0.99428076  1
  H+  H29  1  1.00582341  0.18237120  0.29025030  1
  H+  H30  1  0.98954321  0.38289252  0.16642402  1
  H+  H31  1  0.12874313  0.22711618  0.16810219  1
  H+  H32  1  0.13982712  1.02541988  0.18368473  1
  H+  H33  1  0.88834949  0.61184530  0.16882464  1
  H+  H34  1  0.74240280  0.62210220  0.83492586  1
  H+  H35  1  0.88904933  0.36210329  0.83350747  1
  H+  H36  1  0.89720020  0.37695318  0.16293762  1
  H+  H37  1  0.65961235  0.07806031  0.17669250  1
  H+  H38  1  0.13393022  0.53131733  0.51047116  1
  H+  H39  1  0.59674494  0.61170449  0.49423855  1
  H+  H40  1  0.22220725  0.62084989  0.51199258  1
  H+  H41  1  0.14220824  0.03139379  0.99803252  1
  H+  H42  1  0.07668252  0.66410858  0.43107649  1
  H+  H43  1  0.60376618  0.87455089  0.34300416  1
  H+  H44  1  0.22629838  0.62855058  0.66325371  1
  H+  H45  1  0.14331018  0.17532314  0.83334311  1
  H+  H46  1  0.14526966  1.02335323  0.80976150  1
  H+  H47  1  0.29041200  0.13924275  0.49905513  1
  H+  H48  1  1.02455585  0.13580238  0.66954351  1
  H+  H49  1  0.11596335  0.39279134  0.33811797  1
  H+  H50  1  0.10599287  0.63845517  0.49298496  1
  H+  H51  1  0.39416576  0.87199365  0.66921261  1
  H+  H52  1  0.41291997  0.52787319  -0.00979557  1
  H+  H53  1  0.85072741  0.71236559  0.48257357  1
  H+  H54  1  0.59590259  0.38588696  0.66355166  1
  H+  H55  1  0.35653634  0.15284601  0.11206159  1
  H+  H56  1  1.02531201  0.88702498  1.00170898  1
  H+  H57  1  0.34043826  0.88561322  0.81141953  1
  H+  H58  1  0.60780583  0.47154569  0.50472666  1
  H+  H59  1  0.02849830  0.14254548  0.00557515  1
  H+  H60  1  0.38021903  0.77529817  0.51971374  1
  H+  H61  1  0.91453751  0.12544624  0.50950934  1
  H+  H62  1  0.06860601  0.15712208  0.35760408  1
  H+  H63  1  0.81005811  0.40758418  0.43127709  1
  H+  H64  1  0.13227129  0.33374473  0.18823348  1
  H+  H65  1  0.03214977  0.64836833  0.15608526  1
  H+  H66  1  0.11053290  0.37483513  0.83212806  1
  H+  H67  1  0.86479531  -0.02561568  0.98543031  1
  H+  H68  1  0.63040800  0.38783683  0.18343944  1
  H+  H69  1  0.37805545  0.66435465  0.36640795  1
  H+  H70  1  0.41199272  0.33732841  0.56440778  1
  H+  H71  1  0.56117349  0.64211417  0.43167077  1
  H+  H72  1  0.89438244  0.12167349  0.99024734  1
  H+  H73  1  0.64858549  0.11511691  0.00348233  1
  H+  H74  1  0.51020692  0.37661487  0.50618945  1
  H+  H75  1  0.12792717  0.64068575  0.66437088  1
  H+  H76  1  0.29616840  0.14029272  0.67248412  1
  H+  H77  1  0.23620228  0.86825936  0.65049368  1
  H+  H78  1  0.14236634  0.11494165  0.18125250  1
  H+  H79  1  0.36147823  0.73031096  0.68066562  1
  H+  H80  1  0.76404599  0.88604759  0.20212512  1
  H+  H81  1  0.38097946  0.37037481  0.65799075  1
  H+  H82  1  0.23053698  0.37233029  0.50823222  1
  H+  H83  1  0.57947821  0.94785473  0.15357514  1
  H+  H84  1  0.57432784  0.89422272  0.76050692  1
  H+  H85  1  0.96923792  0.60869353  0.84282517  1
  H+  H86  1  0.25829888  0.16404791  0.85432559  1
  H+  H87  1  0.70629124  0.59967664  0.31712045  1
  H+  H88  1  0.84989032  0.62397676  0.48815697  1
  H+  H89  1  0.27949688  0.38707355  0.33352180  1
  H+  H90  1  0.89450105  0.52579551  0.16681419  1
  H+  H91  1  0.84656354  0.38664632  0.32528424  1
  H+  H92  1  0.46400101  0.83647823  1.02129422  1
  H+  H93  1  0.25695921  0.89326877  0.82130098  1
  H+  H94  1  0.27187966  0.88173362  0.00900732  1
  H+  H95  1  0.38009212  0.15590946  0.82539582  1
  H+  H96  1  0.61898538  0.47696177  0.17166789  1
  H+  H97  1  0.53309424  0.63826720  0.00047282  1
  H+  H98  1  1.00842141  0.36718633  0.83231414  1
  H+  H99  1  0.11969203  0.50474326  0.15431900  1
  H+  H100  1  0.00641498  0.14060099  0.29068674  1
  H+  H101  1  0.78023194  0.44958089  0.03236114  1
  H+  H102  1  0.90370517  0.03383677  0.50308726  1
  H+  H103  1  0.47717475  0.11208495  0.83159269  1
  H+  H104  1  0.66214446  0.67656544  0.85912557  1
  H+  H105  1  0.45665759  0.83597471  0.14572415  1
  H+  H106  1  0.84911197  0.96931181  0.69033710  1
  H+  H107  1  0.14278988  0.87306272  0.99262958  1
  H+  H108  1  0.14167000  1.00303134  0.34016134  1
  H+  H109  1  0.47960100  0.33875403  1.00135933  1
  H+  H110  1  0.58530473  0.21357969  0.66953733  1
  H+  H111  1  0.38602500  0.28223220  0.65620843  1
  H+  H112  1  0.62185189  0.03553662  0.62923915  1
  H+  H113  1  0.86224713  0.63601167  0.81869771  1
  H+  H114  1  0.87015064  0.59758885  0.31967751  1
  H+  H115  1  0.38337414  0.50081106  0.16466493  1
  H+  H116  1  0.35928430  0.89234545  0.50337514  1
  H+  H117  1  0.14418317  0.28689005  0.83315358  1
  H+  H118  1  0.86967173  0.73069332  0.82668125  1
  H+  H119  1  0.14003310  0.87090304  0.32642123  1
  H+  H120  1  0.14932443  0.02767034  0.51062257  1
  H+  H121  1  0.97971151  0.86076512  0.49282048  1
  H+  H122  1  0.93041170  0.81341450  0.58898827  1
  H+  H123  1  1.02683115  0.89007374  0.15738835  1
  H+  H124  1  0.35189468  1.00715526  0.14910047  1
  H+  H125  1  0.36946711  0.75188260  0.14980312  1
  H+  H126  1  0.38324236  0.61372940  0.65624210  1
  H+  H127  1  0.22647374  0.63511242  0.82910413  1
  H+  H128  1  0.86137532  0.63140736  0.67132268  1
  H+  H129  1  0.70904313  0.86878548  0.50842567  1
  H+  H130  1  0.70849451  0.83260429  0.32633676  1
  H+  H131  1  0.27979899  0.12805667  1.02943766  1
  H+  H132  1  0.58928680  0.18314654  0.44710103  1
  H+  H133  1  0.58590477  0.68452679  0.06909204  1
  H+  H134  1  0.73800140  0.59546473  0.99434902  1
  H+  H135  1  0.38286335  0.74848549  0.84536915  1
  H+  H136  1  -0.00244162  0.84126251  0.82603024  1
  H+  H137  1  0.18689680  0.09607781  0.27225376  1
  H+  H138  1  1.02763683  0.64311697  0.66610511  1
  H+  H139  1  0.89375461  0.84698598  0.84557425  1
  H+  H140  1  0.80220148  0.16431823  0.16072792  1
  H+  H141  1  0.42838866  0.82893222  0.95346544  1
  H+  H142  1  0.10205394  0.01880383  0.81431715  1
  H+  H143  1  0.08451503  0.91892090  0.06218892  1
  H+  H144  1  0.46071990  0.38211877  0.85053773  1
  H+  H145  1  0.92250961  0.36020662  0.25853757  1
  H+  H146  1  0.87739058  0.28603256  0.99183605  1
  H+  H147  1  0.27557712  0.40665570  0.82484933  1
  H+  H148  1  0.58024375  0.13311930  0.16891809  1
  H+  H149  1  0.46661476  0.86198948  0.33505338  1
  H+  H150  1  0.64900096  0.28419014  0.18933523  1
  H+  H151  1  0.32786699  0.92742357  0.09323868  1
  H+  H152  1  0.35683208  0.87213273  1.02074440  1
  H+  H153  1  0.78905673  0.39447975  0.15821653  1
  H+  H154  1  0.11331349  0.64441164  0.84507421  1
  H+  H155  1  0.36223912  0.38686029  0.48702922  1
  H+  H156  1  0.23016321  0.61466165  0.16950907  1
  H+  H157  1  0.61095802  0.37559118  0.51396625  1
  H+  H158  1  0.60129854  0.71427225  0.66758137  1
  H+  H159  1  0.62046706  0.60504914  0.31764671  1
  H+  H160  1  0.85526792  0.85167962  0.33570624  1
  H+  H161  1  0.47627385  0.85971812  0.67683762  1
  H+  H162  1  0.12557495  0.85784417  0.83509117  1
  H+  H163  1  0.61838229  0.45266224  1.00193324  1
  H+  H164  1  0.36363935  0.58673270  0.30091336  1
  H+  H165  1  0.65332294  0.34172404  0.70823386  1
  H+  H166  1  0.49765178  0.37045976  0.33079587  1
  H+  H167  1  0.92720395  0.10225755  0.22903471  1
  H+  H168  1  0.35893638  0.63839458  0.50274778  1
  H+  H169  1  0.27227979  0.89376600  0.34625307  1
  H+  H170  1  0.26170133  0.62009536  0.99897012  1
  H+  H171  1  0.53568624  0.15079448  0.50869582  1
  H+  H172  1  0.38251649  0.14951887  0.34528620  1
  H+  H173  1  0.89047652  0.85566885  -0.01892440  1
  H+  H174  1  0.72837444  0.61091025  0.65502184  1
  H+  H175  1  0.36472344  0.48333299  0.67236131  1
  H+  H176  1  0.71369006  0.60129327  0.50006926  1
  H+  H177  1  0.22750612  0.61963418  0.33318871  1
  H+  H178  1  0.51593436  0.14758748  0.35574742  1
  H+  H179  1  0.79088381  0.01333193  0.30439655  1
  H+  H180  1  0.46565148  0.11155439  0.61142834  1
  H+  H181  1  0.83216300  0.90414149  0.29095807  1
  H+  H182  1  0.88476430  0.11184555  0.66555621  1
  H+  H183  1  0.10873879  0.63702411  0.33548991  1
  H+  H184  1  0.87643641  0.63811649  1.00533979  1
  H+  H185  1  0.65701280  0.02975863  1.00040639  1
  H+  H186  1  0.50365696  0.62317557  0.34291769  1
  H+  H187  1  0.12186392  0.65072226  0.15716131  1
  H+  H188  1  0.84465536  0.70044619  0.33214668  1
  H+  H189  1  0.96863633  0.37903428  0.32381981  1
  H+  H190  1  0.85480767  0.97716602  0.19931624  1
  H+  H191  1  0.58345150  0.40219579  0.82911426  1
  H+  H192  1  0.08893963  0.17511847  0.06551312  1
  H+  H193  1  0.12027861  0.96463333  0.67274011  1
  H+  H194  1  0.15570764  0.10629963  0.66771702  1
  H+  H195  1  0.01556372  0.38139738  0.68129041  1
  H+  H196  1  0.64544197  0.38952672  0.34785070  1
  H+  H197  1  0.14444209  0.86421467  0.65542785  1
  H+  H198  1  0.40813637  0.09036065  0.26418886  1
  H+  H199  1  0.14405330  0.29072949  0.66584195  1
  H+  H200  1  0.50430442  0.87297471  0.85630781  1
  H+  H201  1  0.38262190  1.02839270  0.32322301  1
  H+  H202  1  0.14073787  0.52886978  0.32852277  1
  H+  H203  1  0.61268807  0.11315690  0.82273841  1
  H+  H204  1  0.39755076  0.03088347  0.52135128  1
  H+  H205  1  0.76328775  0.13043827  0.82582850  1
  H+  H206  1  0.13612561  0.61612301  0.98260211  1
  H+  H207  1  0.66072810  0.33613666  0.57626007  1
  H+  H208  1  0.41138337  0.26416177  0.18531161  1
  H+  H209  1  0.60156404  0.62655887  0.66151497  1
  H+  H210  1  0.33827877  0.65518408  0.87067189  1
  H+  H211  1  0.40952194  0.57763638  0.56633211  1
  H+  H212  1  0.74453016  0.83092204  0.83251057  1
  H+  H213  1  0.11314520  0.89013511  0.49194357  1
  H+  H214  1  0.89376399  0.52348229  0.65642714  1
  H+  H215  1  0.37827193  0.51805993  0.50440119  1
  H+  H216  1  0.39974833  0.01976372  1.00646949  1
  H+  H217  1  0.82271124  0.15038945  0.30731542  1
  H+  H218  1  0.47304876  0.61158066  0.65362611  1
  H+  H219  1  0.52690402  0.37529088  0.18040213  1
  H+  H220  1  0.29700527  0.15265137  0.34699473  1
  H+  H221  1  0.62753048  0.27061781  0.51475148  1
  H+  H222  1  0.37299970  0.38977720  0.33693798  1
  H+  H223  1  0.17213622  0.13238622  0.33643949  1
  H+  H224  1  0.14684920  0.12235018  1.00423704  1
  H+  H225  1  0.10954241  0.39253025  0.68177782  1
  H+  H226  1  0.11522146  0.88833391  0.16086285  1
  H+  H227  1  0.88042697  0.26907914  0.65896493  1
  H+  H228  1  0.27184912  0.40670403  0.00515184  1
  H+  H229  1  0.38862160  0.99689778  0.67241933  1
  H+  H230  1  0.55602919  0.92988039  -0.00900100  1
  H+  H231  1  0.07495232  0.67090630  0.89988033  1
  H+  H232  1  0.87909433  0.52022424  0.50172859  1
  H+  H233  1  0.86776248  0.47580570  0.82122016  1
  H+  H234  1  0.15886801  0.12066190  0.51647056  1
  H+  H235  1  0.63073812  0.87632356  0.99127432  1
  H+  H236  1  0.23315352  0.37897907  0.66693020  1
  H+  H237  1  0.62804457  0.85574932  0.17314461  1
  H+  H238  1  0.13409508  0.27876510  -0.01041605  1
  H+  H239  1  0.35101070  0.19014354  0.76811832  1
  H+  H240  1  0.11996304  0.73786345  -0.00027274  1
  H+  H241  1  0.88987191  0.25050595  0.15815418  1
  H+  H242  1  0.68375631  0.10860179  0.31011859  1
  H+  H243  1  0.88554401  0.36982606  0.50546864  1
  H+  H244  1  0.77526924  0.88775346  -0.02112429  1
  H+  H245  1  0.78461088  0.38039648  0.81771089  1
  H+  H246  1  0.15809074  0.29183718  0.33403793  1
  H+  H247  1  0.62195252  0.21814150  0.01237832  1
  H+  H248  1  0.61213597  0.36223097  0.99938443  1
  H+  H249  1  0.34979177  0.60686762  0.15133688  1
  H+  H250  1  0.59357295  0.71088684  0.34665035  1
  H+  H251  1  0.89806861  0.28804653  0.50588859  1
  H+  H252  1  0.13086995  0.77451181  0.50149827  1
  H+  H253  1  0.35671519  0.36756968  0.16078541  1
  H+  H254  1  0.37128237  0.21375256  1.02392954  1
  H+  H255  1  0.84603924  0.48012173  0.32328371  1
  H+  H256  1  0.73403677  0.36031102  0.67026258  1
  H+  H257  1  0.35014952  0.70548418  0.00999749  1
  H+  H258  1  1.03759715  0.13984194  0.15996967  1
  H+  H259  1  0.88950353  0.85479478  0.50465022  1
  H+  H260  1  0.02781965  0.39828654  0.49661790  1
  H+  H261  1  0.87455352  0.72709213  0.00493168  1
  H+  H262  1  0.76721748  0.13673073  0.66748162  1
  H+  H263  1  1.00912552  0.39383171  0.99718166  1
  H+  H264  1  0.76171556  0.38406186  0.49494364  1
  H+  H265  1  0.59061502  0.12843926  0.35517717  1
  H+  H266  1  0.96818337  0.60992438  0.50068598  1
  H+  H267  1  0.13416626  0.42742732  0.13927216  1
  H+  H268  1  0.16349544  0.83331036  0.56143094  1
  H+  H269  1  0.76164751  0.88101126  0.68198001  1
  H+  H270  1  0.59044032  0.69903131  0.84636374  1
  H+  H271  1  0.61317848  0.75119179  1.00470001  1
  H+  H272  1  0.39411405  0.16009487  0.67532590  1
  H+  H273  1  0.85197984  0.22010483  0.82411703  1
  H+  H274  1  0.35686962  0.39456293  0.83096568  1
  H+  H275  1  0.64365159  0.54485805  0.83359734  1
  H+  H276  1  0.36164641  0.74291040  0.35397792  1
  H+  H277  1  0.51900577  0.62762991  0.15414148  1
  H+  H278  1  0.84699890  1.00140023  0.85042525  1
  H+  H279  1  0.41072214  0.53858910  0.83208701  1
  H+  H280  1  0.09979134  0.17255524  0.62311092  1
  H+  H281  1  0.38051611  0.86762505  0.34008978  1
  H+  H282  1  0.14576824  0.78345959  0.85052413  1
  H+  H283  1  0.04566854  0.92645048  0.33729397  1
  H+  H284  1  0.64912106  0.24563934  0.82797480  1
  H+  H285  1  0.46981587  0.14084155  0.16361862  1
  H+  H286  1  0.13186485  0.77722376  0.32657714  1
  H+  H287  1  0.71746156  0.03298550  0.53157655  1
  H+  H288  1  0.62294197  0.12130813  0.63889131  1
  H+  H289  1  0.87324921  0.05451662  0.34453019  1
  H+  H290  1  0.16541793  0.34242803  0.89651129  1
  H+  H291  1  0.33004933  0.66421590  0.73555862  1
  H+  H292  1  0.83632503  0.66101459  0.09486488  1
  H+  H293  1  0.07484219  0.43024795  0.05322672  1
  H+  H294  1  0.60303506  0.05181728  0.23575668  1
  H+  H295  1  0.50375166  0.88735208  0.49780798  1
  H+  H296  1  0.27231520  0.89503824  0.49897148  1
  H+  H297  1  0.58212183  0.18017823  0.10799476  1
  H+  H298  1  0.68056333  0.31013674  0.92823132  1
  H+  H299  1  0.08504396  0.42044577  0.39788620  1
  H+  H300  1  0.89727611  0.12089737  0.16727288  1
  H+  H301  1  0.92287312  0.81791577  0.92774405  1
  H+  H302  1  0.67132850  0.87370045  0.83403680  1
  H+  H303  1  0.33797174  0.42616227  0.73414389  1
  H+  H304  1  0.33514420  0.93366143  0.72604476  1
  H+  H305  1  0.17279359  0.59482494  0.23117302  1
  H+  H306  1  0.33277416  0.41695311  0.42772885  1
  H+  H307  1  0.06963489  0.40221776  0.76778585  1
  H+  H308  1  0.91488700  0.08502705  0.93061786  1
  H+  H309  1  0.11617972  0.39694559  0.49863736  1
  H+  H310  1  0.90715110  0.57385160  0.25890613  1
  H+  H311  1  0.11813680  0.19091325  0.76693087  1
  H+  H312  1  0.42775078  0.63331473  0.83343252  1
  H+  H313  1  0.12518912  0.52218546  0.97922020  1
  H+  H314  1  0.40259455  0.12149770  0.51910419  1
  H+  H315  1  0.78639638  0.85898168  0.07641763  1
  H+  H316  1  0.13174618  0.23911920  0.50878426  1
  H+  H317  1  0.91561975  0.07699508  0.61014792  1
  H+  H318  1  0.32952171  0.67582732  0.44763955  1
  H+  H319  1  0.26733930  0.90474401  0.15952206  1
  H+  H320  1  0.16757528  0.58696834  0.88555180  1
  H+  H321  1  0.82748819  0.24148655  0.30934652  1
  H+  H322  1  0.33224650  0.92997384  0.40563171  1
  H+  H323  1  0.68943644  0.09857430  0.54769139  1
  H+  H324  1  0.56661815  0.42427524  0.76226982  1
  H+  H325  1  0.87382149  0.18971247  0.43352443  1
  H+  H326  1  0.09127234  0.67693240  0.05789131  1
  H+  H327  1  0.59476910  0.39419874  0.40535429  1
  H+  H328  1  0.40618200  0.31324773  0.95161822  1
  H+  H329  1  0.09364869  0.93174652  0.43389285  1
  H+  H330  1  0.78237691  0.97474565  0.43918916  1
  H+  H331  1  0.31497516  0.63283346  0.09140033  1
  H+  H332  1  0.66886950  0.07843480  0.90596775  1
  H+  H333  1  0.70246564  0.35130281  0.24497521  1
  H+  H334  1  0.63032779  0.76805944  0.17667488  1
  H+  H335  1  0.17434652  0.83968356  0.23190270  1
  H+  H336  1  0.49966106  0.61243607  0.49798959  1
  H+  H337  1  0.84922253  0.18610251  0.06040947  1
  H+  H338  1  0.87631186  0.87034864  0.17917037  1
  H+  H339  1  0.01697245  0.63097212  0.33398676  1
  H+  H340  1  0.17795471  0.33333904  0.26438100  1
  H+  H341  1  0.17593397  0.84940703  0.93180134  1
  H+  H342  1  0.83822607  0.42498291  0.09169765  1
  H+  H343  1  0.12587079  0.36344001  0.98597577  1
  H+  H344  1  0.82439956  0.92439035  0.41235405  1
  H+  H345  1  0.53148731  0.13070312  0.02088146  1
  H+  H346  1  0.75558417  0.83946333  0.10264890  1
  H+  H347  1  0.72144836  0.60617661  0.16373678  1
  H+  H348  1  0.66250456  0.57806118  0.56451574  1
  H+  H349  1  0.58070257  0.13959709  0.76082822  1
  H+  H350  1  0.91964150  0.80828378  0.25319842  1
  H+  H351  1  0.91842860  0.58258934  0.59735699  1
  H+  H352  1  0.83292502  0.66630502  0.72898156  1
  H+  H353  1  0.82060269  0.16256947  0.73022720  1
  H+  H354  1  0.91574409  0.33420540  0.60154292  1
  H+  H355  1  0.18595239  0.08088202  0.60710591  1
  H+  H356  1  0.65515106  0.83313999  0.60833168  1
  H+  H357  1  0.83994982  0.41878456  0.72705676  1
  H+  H358  1  0.64452702  0.81349207  0.27074940  1
  H+  H359  1  0.90276691  0.57099550  0.89542916  1
  H+  H360  1  0.90670482  0.33279564  0.89804131  1
  H+  H361  1  0.17660549  0.34983869  0.57127508  1
  H+  H362  1  0.61115784  1.01131229  0.32744039  1
  H+  H363  1  0.35289766  0.17297069  0.44023198  1
  H+  H364  1  0.57180253  0.90668640  0.40077630  1
  H+  H365  1  0.43183961  0.33029733  0.24130104  1
  H+  H366  1  0.32717311  0.42444150  0.06504337  1
  H+  H367  1  0.41584304  0.56448547  0.22124769  1
  H+  H368  1  0.19812737  0.13093143  0.91382951  1
  H+  H369  1  0.78689056  0.89772793  0.77633107  1
  H+  H370  1  0.45529330  0.58224185  0.92752416  1
  H+  H371  1  0.68388642  0.56919903  0.93358535  1
  H+  H372  1  0.12190042  0.18381816  0.41880296  1
  H+  H373  1  0.16610586  0.59914588  0.60139798  1
  H+  H374  1  0.38235105  1.03372751  0.82936081  1
  H+  H375  1  0.05923224  0.87413844  0.76257810  1
  H+  H376  1  0.50955007  0.39033076  0.66528785  1
  H+  H377  1  0.14685877  0.78235653  0.17025975  1
  H+  H378  1  0.81423852  0.64434106  0.39307953  1
  H+  H379  1  0.63640835  0.52324085  0.65483446  1
  H+  H380  1  0.63662445  0.82773269  0.93007073  1
  H+  H381  1  0.41492558  0.83740989  0.57779002  1
  H+  H382  1  0.86611618  0.09586762  0.83880240  1
  H+  H383  1  0.66102159  0.58462307  0.22367329  1
  O2-  O384  1  0.09751958  0.16890176  0.14566768  1
  O2-  O385  1  0.10881002  0.17772912  0.49545246  1
  O2-  O386  1  0.10855846  0.19621060  0.80981456  1
  O2-  O387  1  0.09156418  0.44541174  0.13437490  1
  O2-  O388  1  0.08815653  0.42801698  0.48127925  1
  O2-  O389  1  0.06963472  0.39837889  0.81571920  1
  O2-  O390  1  0.09226919  0.68129189  0.14087945  1
  O2-  O391  1  0.07403993  0.66628320  0.47634212  1
  O2-  O392  1  0.07833866  0.67352467  0.85555617  1
  O2-  O393  1  0.08752846  0.92050697  0.14483574  1
  O2-  O394  1  0.08559642  0.92451918  0.47878436  1
  O2-  O395  1  0.05754801  0.86110557  0.80613431  1
  O2-  O396  1  0.36666984  0.15804230  0.15944192  1
  O2-  O397  1  0.35189635  0.17327350  0.48628524  1
  O2-  O398  1  0.35386410  0.19207112  0.81297393  1
  O2-  O399  1  0.32616743  0.39785300  0.14885551  1
  O2-  O400  1  0.33192394  0.41748134  0.47361161  1
  O2-  O401  1  0.33563091  0.43035303  0.80990214  1
  O2-  O402  1  0.31525162  0.63296846  0.13771156  1
  O2-  O403  1  0.32950921  0.67144278  0.49322787  1
  O2-  O404  1  0.35181354  0.68665781  0.83225584  1
  O2-  O405  1  0.32582088  0.94374014  0.13956776  1
  O2-  O406  1  0.33460883  0.92764332  0.48806927  1
  O2-  O407  1  0.31752196  0.92285450  0.80099749  1
  O2-  O408  1  0.57060070  0.17984144  0.15336387  1
  O2-  O409  1  0.59506477  0.18893391  0.49323778  1
  O2-  O410  1  0.58844326  0.14841269  0.80511732  1
  O2-  O411  1  0.59219849  0.41137063  0.16790954  1
  O2-  O412  1  0.57670032  0.40686174  0.49557998  1
  O2-  O413  1  0.56393006  0.43555088  0.80641899  1
  O2-  O414  1  0.58103163  0.66586494  0.14285191  1
  O2-  O415  1  0.56198475  0.63872985  0.47886281  1
  O2-  O416  1  0.65101734  0.72557434  0.85737586  1
  O2-  O417  1  0.57840332  0.89799128  0.13405783  1
  O2-  O418  1  0.56197721  0.91359291  0.47751371  1
  O2-  O419  1  0.58227247  0.90650743  0.82792210  1
  O2-  O420  1  0.85969011  0.18839789  0.14389018  1
  O2-  O421  1  0.86754720  0.18422795  0.47767688  1
  O2-  O422  1  0.82050057  0.16205619  0.80528502  1
  O2-  O423  1  0.84726056  0.42436692  0.13989640  1
  O2-  O424  1  0.81948126  0.41150440  0.47566930  1
  O2-  O425  1  0.84422924  0.41665473  0.80238571  1
  O2-  O426  1  0.82986166  0.65838181  0.14137195  1
  O2-  O427  1  0.81647192  0.65055759  0.47122836  1
  O2-  O428  1  0.83594295  0.66949566  0.80360818  1
  O2-  O429  1  0.82652830  0.91639750  0.21437592  1
  O2-  O430  1  0.81717809  0.94926380  0.45071884  1
  O2-  O431  1  0.76838100  0.89179382  0.82063155  1
  O2-  O432  1  0.16519467  0.08214270  0.20349701  1
  O2-  O433  1  0.18589368  0.08608596  0.52862957  1
  O2-  O434  1  0.20719410  0.16023361  0.87415337  1
  O2-  O435  1  0.17364888  0.31731858  0.20133412  1
  O2-  O436  1  0.17140139  0.34276399  0.52594634  1
  O2-  O437  1  0.16759344  0.34821750  0.85062594  1
  O2-  O438  1  0.17014775  0.59647097  0.18603530  1
  O2-  O439  1  0.16089966  0.59187013  0.52574658  1
  O2-  O440  1  0.16637551  0.59762400  0.84097659  1
  O2-  O441  1  0.17582293  0.84295020  0.18639727  1
  O2-  O442  1  0.16129944  0.83539192  0.51578545  1
  O2-  O443  1  0.17341195  0.84692902  0.85550839  1
  O2-  O444  1  0.40573062  0.10572295  0.17612830  1
  O2-  O445  1  0.43157010  0.09121365  0.53673370  1
  O2-  O446  1  0.41750961  0.09376924  0.84291599  1
  O2-  O447  1  0.43527939  0.32609247  0.19572599  1
  O2-  O448  1  0.41894219  0.33644730  0.51876787  1
  O2-  O449  1  0.40196858  0.34403021  0.86528512  1
  O2-  O450  1  0.41492276  0.56382809  0.17629392  1
  O2-  O451  1  0.41195385  0.57879417  0.51974647  1
  O2-  O452  1  0.45084104  0.59733343  0.84778915  1
  O2-  O453  1  0.39467205  0.81461396  0.14871270  1
  O2-  O454  1  0.40989409  0.83701416  0.53244362  1
  O2-  O455  1  0.44036549  0.84728129  0.87735341  1
  O2-  O456  1  0.59999844  0.05130753  0.18950133  1
  O2-  O457  1  0.70671718  0.07575656  0.51242384  1
  O2-  O458  1  0.66454183  0.07126970  0.86045229  1
  O2-  O459  1  0.68599345  0.34579790  0.20008950  1
  O2-  O460  1  0.65719395  0.33766213  0.53172517  1
  O2-  O461  1  0.68145240  0.30731495  0.84294434  1
  O2-  O462  1  0.66035176  0.57642866  0.17760763  1
  O2-  O463  1  0.65417021  0.57126114  0.51813519  1
  O2-  O464  1  0.68490336  0.59578675  0.85664627  1
  O2-  O465  1  0.65552853  0.82636301  0.19551761  1
  O2-  O466  1  0.65516014  0.84664336  0.53077227  1
  O2-  O467  1  0.61040337  0.84732951  0.84983605  1
  O2-  O468  1  0.91992332  0.08555973  0.18604402  1
  O2-  O469  1  0.93694574  0.08853536  0.52523374  1
  O2-  O470  1  0.88871664  0.06222089  0.85882113  1
  O2-  O471  1  0.92954303  0.34932087  0.18193472  1
  O2-  O472  1  0.92126338  0.34680090  0.52258669  1
  O2-  O473  1  0.91145474  0.32666703  0.85297296  1
  O2-  O474  1  0.92155050  0.58521207  0.18527605  1
  O2-  O475  1  0.90803477  0.58036440  0.51701684  1
  O2-  O476  1  0.90613031  0.57191751  0.84986242  1
  O2-  O477  1  0.90615902  0.84128226  0.15989497  1
  O2-  O478  1  0.91778018  0.82066911  0.50413083  1
  O2-  O479  1  0.91589702  0.80994353  0.85835905  1
  O2-  O480  1  0.19667468  0.09848194  0.31858102  1
  O2-  O481  1  0.18807536  0.07904578  0.65270044  1
  O2-  O482  1  0.18052489  0.09420258  0.99224232  1
  O2-  O483  1  0.18156232  0.34755638  0.31318071  1
  O2-  O484  1  0.17250590  0.35033571  0.65061012  1
  O2-  O485  1  0.16009722  0.33762468  0.97135680  1
  O2-  O486  1  0.16982094  0.58977042  0.31400113  1
  O2-  O487  1  0.16635024  0.60425088  0.64714168  1
  O2-  O488  1  0.16082015  0.58267479  0.96415558  1
  O2-  O489  1  0.16646625  0.83727402  0.31131930  1
  O2-  O490  1  0.17534948  0.83388189  0.63782700  1
  O2-  O491  1  0.17429172  0.84347407  0.97758039  1
  O2-  O492  1  0.41363478  0.08914626  0.30880976  1
  O2-  O493  1  0.46671073  0.11505541  0.65760437  1
  O2-  O494  1  0.43378401  0.08187295  0.99897011  1
  O2-  O495  1  0.43640497  0.34396979  0.31706755  1
  O2-  O496  1  0.41194487  0.34196249  0.63936530  1
  O2-  O497  1  0.41597372  0.30327733  0.99406908  1
  O2-  O498  1  0.40810287  0.57103221  0.30378091  1
  O2-  O499  1  0.40981317  0.58157263  0.63893848  1
  O2-  O500  1  0.46691970  0.57256690  0.97006128  1
  O2-  O501  1  0.40381051  0.83003494  0.32765098  1
  O2-  O502  1  0.41850301  0.83472658  0.65722586  1
  O2-  O503  1  0.41152897  0.81948192  0.99757042  1
  O2-  O504  1  0.62095121  0.06582686  0.30848737  1
  O2-  O505  1  0.65922520  0.09725581  0.62411301  1
  O2-  O506  1  0.68260045  0.09149471  0.98372370  1
  O2-  O507  1  0.72438228  0.36840689  0.31823030  1
  O2-  O508  1  0.66754688  0.32893247  0.66810403  1
  O2-  O509  1  0.67607974  0.31066943  0.97287534  1
  O2-  O510  1  0.65347166  0.58497139  0.29409047  1
  O2-  O511  1  0.66896281  0.58136209  0.63639228  1
  O2-  O512  1  0.68109897  0.55478281  0.97743851  1
  O2-  O513  1  0.64720783  0.81085566  0.31669195  1
  O2-  O514  1  0.65635507  0.82216859  0.65268621  1
  O2-  O515  1  0.65115748  0.83465707  0.97386052  1
  O2-  O516  1  0.84642110  0.06514557  0.30965393  1
  O2-  O517  1  0.91734184  0.08213969  0.65497461  1
  O2-  O518  1  0.92372116  0.09051963  0.97631276  1
  O2-  O519  1  0.91214400  0.35849677  0.30368933  1
  O2-  O520  1  0.91242570  0.33101517  0.64687641  1
  O2-  O521  1  0.90393497  0.34589762  0.97450556  1
  O2-  O522  1  0.90121157  0.56728203  0.30501139  1
  O2-  O523  1  0.92456535  0.58449193  0.64259335  1
  O2-  O524  1  0.91904297  0.57950025  0.97363372  1
  O2-  O525  1  0.92484700  0.80650942  0.29751520  1
  O2-  O526  1  0.93807849  0.82065776  0.63324085  1
  O2-  O527  1  0.92399046  0.82549447  0.97494754  1
  O2-  O528  1  0.08942079  0.17602446  0.02008985  1
  O2-  O529  1  0.12726229  0.18677919  0.37323246  1
  O2-  O530  1  0.08938213  0.16763226  0.66689047  1
  O2-  O531  1  0.07140459  0.42201044  0.00850369  1
  O2-  O532  1  0.08291058  0.42066406  0.35261352  1
  O2-  O533  1  0.07244371  0.41164071  0.70172867  1
  O2-  O534  1  0.09021702  0.67594985  0.01254806  1
  O2-  O535  1  0.07622078  0.66555864  0.34979706  1
  O2-  O536  1  0.08893053  0.67468180  0.68118871  1
  O2-  O537  1  0.08645709  0.91990742  0.01705203  1
  O2-  O538  1  0.10178054  0.94026605  0.35328581  1
  O2-  O539  1  0.09058883  0.90228665  0.68104787  1
  O2-  O540  1  0.34037833  0.15388337  0.04409510  1
  O2-  O541  1  0.35653677  0.18211513  0.36449130  1
  O2-  O542  1  0.35616214  0.18356488  0.68469712  1
  O2-  O543  1  0.32709738  0.44714563  0.02433333  1
  O2-  O544  1  0.34075493  0.41877043  0.35073641  1
  O2-  O545  1  0.33549092  0.42284431  0.68817075  1
  O2-  O546  1  0.31876729  0.64323935  0.01855947  1
  O2-  O547  1  0.33339255  0.67954436  0.37088085  1
  O2-  O548  1  0.32787723  0.66747138  0.69106105  1
  O2-  O549  1  0.32915634  0.90711437  0.03029653  1
  O2-  O550  1  0.33273268  0.92839504  0.36025460  1
  O2-  O551  1  0.34875142  0.93571712  0.68148308  1
  O2-  O552  1  0.59347672  0.16308867  0.03583556  1
  O2-  O553  1  0.57169682  0.16549818  0.37516599  1
  O2-  O554  1  0.55716785  0.15018991  0.67627174  1
  O2-  O555  1  0.58414780  0.39228102  0.01697709  1
  O2-  O556  1  0.60007097  0.40263642  0.36139421  1
  O2-  O557  1  0.57044647  0.41776935  0.68178913  1
  O2-  O558  1  0.58943789  0.68936266  0.02327906  1
  O2-  O559  1  0.56157680  0.65029434  0.36241952  1
  O2-  O560  1  0.56626309  0.65123895  0.67537332  1
  O2-  O561  1  0.60055880  0.93203139  0.01733774  1
  O2-  O562  1  0.57761045  0.90951000  0.35553975  1
  O2-  O563  1  0.57441356  0.89639529  0.71261548  1
  O2-  O564  1  0.84556044  0.18607788  0.01555434  1
  O2-  O565  1  0.78905162  0.17951505  0.30304344  1
  O2-  O566  1  0.82584324  0.16397010  0.68421666  1
  O2-  O567  1  0.82223552  0.43069205  0.02702553  1
  O2-  O568  1  0.81353783  0.41588377  0.34208406  1
  O2-  O569  1  0.83328720  0.41488486  0.68135154  1
  O2-  O570  1  0.84733094  0.66781959  0.02363549  1
  O2-  O571  1  0.81386143  0.64104477  0.34740427  1
  O2-  O572  1  0.82912278  0.66069625  0.68288695  1
  O2-  O573  1  0.83613060  0.91111697  -0.01020204  1
  O2-  O574  1  0.82548422  0.88482744  0.33470221  1
  O2-  O575  1  0.81546400  0.91050528  0.70612611  1
