# generated using pymatgen
data_H2O
_symmetry_space_group_name_H-M   'P 1'
_cell_length_a   17.98823529
_cell_length_b   17.98942893
_cell_length_c   22.00404549
_cell_angle_alpha   89.98699674
_cell_angle_beta   90.03642153
_cell_angle_gamma   119.97273665
_symmetry_Int_Tables_number   1
_chemical_formula_structural   H2O
_chemical_formula_sum   'H384 O192'
_cell_volume   6168.19731194
_cell_formula_units_Z   192
loop_
 _symmetry_equiv_pos_site_id
 _symmetry_equiv_pos_as_xyz
  1  'x, y, z'
loop_
 _atom_type_symbol
 _atom_type_oxidation_number
  H+  1.0
  O2-  -2.0
loop_
 _atom_site_type_symbol
 _atom_site_label
 _atom_site_symmetry_multiplicity
 _atom_site_fract_x
 _atom_site_fract_y
 _atom_site_fract_z
 _atom_site_occupancy
  H+  H0  1  0.88450697  0.60811100  0.84809904  1
  H+  H1  1  0.36111292  0.22162600  0.82797160  1
  H+  H2  1  0.35843871  0.37240262  0.83060460  1
  H+  H3  1  0.34266655  0.45738821  0.68454620  1
  H+  H4  1  0.39720776  0.55753679  0.62892256  1
  H+  H5  1  0.15831005  0.11474782  0.19757666  1
  H+  H6  1  0.38535690  0.36021445  0.17397731  1
  H+  H7  1  0.53636069  0.77897290  0.44075541  1
  H+  H8  1  0.01942610  0.62428726  0.48739421  1
  H+  H9  1  0.01977772  0.37870502  0.16242066  1
  H+  H10  1  0.36370271  0.46453343  0.48034678  1
  H+  H11  1  0.88317110  0.27632245  0.31968412  1
  H+  H12  1  0.13326751  0.51719495  0.17282580  1
  H+  H13  1  0.05104581  0.06010051  0.14881993  1
  H+  H14  1  0.65232061  0.87589383  0.16726526  1
  H+  H15  1  0.69363623  0.84431538  0.69771123  1
  H+  H16  1  0.11620776  0.97795798  0.17781048  1
  H+  H17  1  0.13925477  0.11177472  0.50808278  1
  H+  H18  1  0.78037754  0.88506396  0.49962789  1
  H+  H19  1  0.12759542  0.47135927  0.66284667  1
  H+  H20  1  0.97255343  0.60747628  0.85223368  1
  H+  H21  1  0.89158952  0.85985035  0.50071101  1
  H+  H22  1  0.09776227  0.71812775  0.16466133  1
  H+  H23  1  0.36892764  0.14442739  0.15951317  1
  H+  H24  1  0.10358401  0.75160425  0.52215661  1
  H+  H25  1  0.52754884  0.62902604  0.67610956  1
  H+  H26  1  0.63559274  0.60734142  0.83873469  1
  H+  H27  1  0.31809687  0.91554989  0.08025510  1
  H+  H28  1  0.37553724  0.59909943  0.17370299  1
  H+  H29  1  0.12366204  0.22656564  0.34322392  1
  H+  H30  1  0.36158561  0.13286894  0.82640116  1
  H+  H31  1  0.73711423  0.61321240  0.17627572  1
  H+  H32  1  0.16173784  0.88962014  0.98027026  1
  H+  H33  1  0.36139768  0.63741045  0.33248960  1
  H+  H34  1  0.14061948  0.26485595  0.49922413  1
  H+  H35  1  0.63431721  0.89053515  0.81406636  1
  H+  H36  1  0.80533049  0.90816143  0.00393186  1
  H+  H37  1  0.42910220  0.86008841  0.17145830  1
  H+  H38  1  0.36407827  0.12854915  1.00456188  1
  H+  H39  1  0.09997822  0.74310200  1.01098578  1
  H+  H40  1  0.05041091  0.68474310  0.77774046  1
  H+  H41  1  0.60734968  0.17906423  0.75483671  1
  H+  H42  1  0.90190671  0.25410062  0.85060897  1
  H+  H43  1  0.38579603  0.01951277  0.83809548  1
  H+  H44  1  0.86309128  0.13833587  1.00661493  1
  H+  H45  1  0.11659357  0.47824827  0.80902849  1
  H+  H46  1  0.82793421  0.41165296  0.10265541  1
  H+  H47  1  0.86472715  0.63078775  0.49404024  1
  H+  H48  1  0.48455295  0.37467908  0.32303039  1
  H+  H49  1  0.86603946  0.88812731  0.16198866  1
  H+  H50  1  0.63538963  0.27804804  0.84286454  1
  H+  H51  1  0.23299042  0.86918656  0.15920735  1
  H+  H52  1  0.90009571  0.51781923  0.65773344  1
  H+  H53  1  0.62789512  0.60842115  -0.01067190  1
  H+  H54  1  0.89232768  1.01612067  0.51391493  1
  H+  H55  1  0.65920806  0.32184812  0.23492286  1
  H+  H56  1  0.11159681  0.63010496  0.49121461  1
  H+  H57  1  0.43378562  0.90807527  0.52915373  1
  H+  H58  1  0.63386614  0.36340662  0.66300558  1
  H+  H59  1  0.27544910  0.86054278  0.55527382  1
  H+  H60  1  0.60672993  0.47484951  0.49520921  1
  H+  H61  1  0.13113560  0.25487649  0.17867892  1
  H+  H62  1  0.39272564  1.03438022  0.32512158  1
  H+  H63  1  0.36705919  0.75699356  0.99762450  1
  H+  H64  1  0.18415423  0.59401249  0.62528293  1
  H+  H65  1  0.85421838  0.12955413  0.45705605  1
  H+  H66  1  0.22969922  0.61165289  0.32254690  1
  H+  H67  1  0.55952608  0.71266047  -0.00929325  1
  H+  H68  1  0.01960551  0.89779563  0.17193425  1
  H+  H69  1  0.12362120  0.48575170  0.01244402  1
  H+  H70  1  0.88743232  0.77798823  0.33117166  1
  H+  H71  1  0.85906178  0.38046696  0.67552923  1
  H+  H72  1  0.12253912  0.88603015  0.83124844  1
  H+  H73  1  0.13999889  1.01897510  0.83601501  1
  H+  H74  1  0.63840243  0.83809920  0.51038256  1
  H+  H75  1  0.10314356  0.21212962  0.82264429  1
  H+  H76  1  0.38199569  0.77877415  0.84722501  1
  H+  H77  1  0.36469674  0.89095357  0.82347424  1
  H+  H78  1  0.11189987  0.88883742  0.32732751  1
  H+  H79  1  0.66071327  0.16403456  0.51654782  1
  H+  H80  1  0.61153364  0.38524337  0.34154260  1
  H+  H81  1  0.37984337  0.49959523  -0.00362094  1
  H+  H82  1  0.64522473  0.11006635  0.83724687  1
  H+  H83  1  0.85104576  0.47737630  0.01360293  1
  H+  H84  1  0.96477281  0.84243318  1.03246053  1
  H+  H85  1  0.47028881  0.35732017  0.84135226  1
  H+  H86  1  0.23504614  0.86608628  0.83660636  1
  H+  H87  1  0.85962876  0.97522749  0.16237063  1
  H+  H88  1  0.41092747  0.32406801  0.90175418  1
  H+  H89  1  0.10946255  0.85483700  0.17650568  1
  H+  H90  1  0.19979404  0.09407281  0.28730881  1
  H+  H91  1  0.42540839  0.79544942  0.58540777  1
  H+  H92  1  0.05643286  0.13346423  0.67903160  1
  H+  H93  1  0.63837617  0.09215274  0.09244748  1
  H+  H94  1  0.51782958  0.13847335  0.66990859  1
  H+  H95  1  0.12017537  0.38820600  0.80346688  1
  H+  H96  1  0.16381421  0.33121695  0.26549138  1
  H+  H97  1  0.13424921  0.14354790  0.34814048  1
  H+  H98  1  0.87738164  0.11087813  0.16995083  1
  H+  H99  1  0.10831018  0.63393623  0.15863405  1
  H+  H100  1  0.21400609  0.14314959  0.67180135  1
  H+  H101  1  0.36374849  0.70326551  0.49157156  1
  H+  H102  1  0.89327803  0.85985800  0.83717531  1
  H+  H103  1  0.38434029  0.35525507  0.65156126  1
  H+  H104  1  0.48818121  0.12326206  0.19509582  1
  H+  H105  1  0.77657172  0.87500058  0.81737891  1
  H+  H106  1  0.26917307  0.37411478  0.01042504  1
  H+  H107  1  0.87042261  0.63810983  0.15884282  1
  H+  H108  1  0.96375508  0.35343335  0.49383255  1
  H+  H109  1  -0.01814229  0.38368280  0.00111566  1
  H+  H110  1  0.03416798  0.88852355  0.49875951  1
  H+  H111  1  0.85704354  0.88680311  0.34332095  1
  H+  H112  1  0.73189659  0.85946004  0.17353784  1
  H+  H113  1  0.77316829  0.63070712  0.83274649  1
  H+  H114  1  0.49299424  0.40241398  0.16429343  1
  H+  H115  1  0.38774619  0.26271154  0.49514410  1
  H+  H116  1  0.47320400  0.10857048  0.84292076  1
  H+  H117  1  0.96201022  0.10198005  0.17738743  1
  H+  H118  1  0.88457267  0.09596808  0.53653926  1
  H+  H119  1  0.13277110  0.34113682  0.65651499  1
  H+  H120  1  0.14089824  0.52320444  0.50554856  1
  H+  H121  1  0.48265887  0.79767317  0.53012362  1
  H+  H122  1  0.74328492  0.15351582  0.50654409  1
  H+  H123  1  0.21905233  0.34385724  0.17151686  1
  H+  H124  1  0.37278334  1.00735722  0.47651995  1
  H+  H125  1  0.61882810  0.21397414  0.01444151  1
  H+  H126  1  0.24321734  0.11173418  0.18194286  1
  H+  H127  1  0.89673564  0.27241485  0.65726586  1
  H+  H128  1  0.37972476  0.25913370  0.99211811  1
  H+  H129  1  0.60620097  0.23889892  0.49853207  1
  H+  H130  1  0.61244135  0.72582616  0.33564965  1
  H+  H131  1  0.61582076  1.01245402  0.48022966  1
  H+  H132  1  0.35969750  0.47469290  0.33621213  1
  H+  H133  1  0.46450033  0.60380600  0.16880499  1
  H+  H134  1  0.91958458  0.03701297  0.66955534  1
  H+  H135  1  0.60547971  0.47105183  0.82605991  1
  H+  H136  1  0.60645955  0.50632149  0.15421741  1
  H+  H137  1  0.64346641  0.76784035  0.83814119  1
  H+  H138  1  0.11735636  0.37590532  0.49780606  1
  H+  H139  1  0.76547008  0.88169777  0.34338967  1
  H+  H140  1  0.92294720  0.55170358  0.33642822  1
  H+  H141  1  1.03064114  0.13877639  0.49091250  1
  H+  H142  1  0.89046201  0.77025834  0.49784912  1
  H+  H143  1  0.37772515  0.11495756  0.65298492  1
  H+  H144  1  0.46877814  0.34997682  0.99468919  1
  H+  H145  1  0.72068578  0.34438986  0.17784795  1
  H+  H146  1  0.60126923  0.00120990  0.51262366  1
  H+  H147  1  0.38509374  0.51311004  0.83914102  1
  H+  H148  1  0.11806484  0.48410646  0.32595286  1
  H+  H149  1  0.36792957  0.62344795  0.00941250  1
  H+  H150  1  0.97447907  0.86854588  0.32381069  1
  H+  H151  1  0.35086066  0.46003900  0.16052965  1
  H+  H152  1  0.22698235  0.61081921  0.49716339  1
  H+  H153  1  0.80795168  0.90381632  0.65745134  1
  H+  H154  1  0.89984484  0.04152446  1.00316380  1
  H+  H155  1  0.62291212  0.35983120  0.84523474  1
  H+  H156  1  0.72019389  0.35758511  1.00185244  1
  H+  H157  1  0.14113197  0.61332759  0.32646882  1
  H+  H158  1  0.24364765  0.11627268  0.35446516  1
  H+  H159  1  0.03195654  0.88368712  0.82848661  1
  H+  H160  1  0.84701902  0.37625396  0.48764572  1
  H+  H161  1  -0.01990483  0.34694776  0.84013387  1
  H+  H162  1  0.39089869  1.02263134  0.00453930  1
  H+  H163  1  0.43704290  0.90558134  0.49520677  1
  H+  H164  1  0.63430251  -0.03428981  1.00016212  1
  H+  H165  1  0.97316309  0.60478080  0.17178159  1
  H+  H166  1  0.14411485  0.85040259  0.67586821  1
  H+  H167  1  0.63992648  0.60776448  0.50632453  1
  H+  H168  1  0.85888933  0.46864127  0.16323324  1
  H+  H169  1  0.31738601  0.86322534  0.16649805  1
  H+  H170  1  0.39275005  0.36999214  0.31892755  1
  H+  H171  1  0.62141092  0.11911495  0.34236989  1
  H+  H172  1  1.06788481  0.40037066  0.54270954  1
  H+  H173  1  0.98412371  0.10146993  0.84897821  1
  H+  H174  1  0.38420025  0.60186176  0.47463782  1
  H+  H175  1  0.25170773  0.56175063  0.62666719  1
  H+  H176  1  0.23929379  0.87065673  0.31539893  1
  H+  H177  1  0.88668046  0.77523465  0.17675661  1
  H+  H178  1  0.11452786  0.97752324  0.33698090  1
  H+  H179  1  0.86138451  0.39420761  0.00876606  1
  H+  H180  1  0.60474967  0.46585601  0.00180035  1
  H+  H181  1  0.63244678  0.86583728  0.32390637  1
  H+  H182  1  0.69681827  0.22891489  0.78709124  1
  H+  H183  1  0.64141995  0.10915284  0.99276291  1
  H+  H184  1  0.51757792  0.37880958  0.66987242  1
  H+  H185  1  0.52112847  0.62994021  0.83087379  1
  H+  H186  1  0.60253612  -0.01741060  0.34399932  1
  H+  H187  1  0.30672412  0.67247552  0.69486813  1
  H+  H188  1  0.85216847  0.60423694  0.67835964  1
  H+  H189  1  0.71152112  0.34301816  0.32980723  1
  H+  H190  1  0.86136884  1.02176503  0.33077396  1
  H+  H191  1  0.27444767  0.37530911  0.48615090  1
  H+  H192  1  0.27087311  0.11928740  0.99987132  1
  H+  H193  1  0.12026688  0.38641403  0.32429740  1
  H+  H194  1  0.72190408  0.58728835  0.66475760  1
  H+  H195  1  0.68676954  0.79433149  0.98640122  1
  H+  H196  1  0.11755626  0.73460077  0.82912615  1
  H+  H197  1  0.38684046  0.11576523  0.35134386  1
  H+  H198  1  0.83927472  0.66447225  0.40128221  1
  H+  H199  1  0.85783474  0.11343161  0.82920117  1
  H+  H200  1  0.56927083  0.87563094  0.42817863  1
  H+  H201  1  0.63211028  0.37192369  0.50749654  1
  H+  H202  1  0.86227460  0.96626020  0.81519243  1
  H+  H203  1  0.76147175  0.38442699  0.49142714  1
  H+  H204  1  0.35711806  -0.01719479  0.66741263  1
  H+  H205  1  0.61883631  0.71606098  0.49762674  1
  H+  H206  1  0.36893548  0.12450977  0.46856814  1
  H+  H207  1  0.36641695  0.73005541  0.32653179  1
  H+  H208  1  0.90046810  0.62749374  0.33104676  1
  H+  H209  1  0.11594970  0.23503797  1.03551614  1
  H+  H210  1  0.64525965  0.60948121  0.66153407  1
  H+  H211  1  0.22860259  0.35836775  0.82141041  1
  H+  H212  1  0.02743860  0.15089627  0.02207989  1
  H+  H213  1  0.64502268  0.61361709  0.32776774  1
  H+  H214  1  0.85068377  0.63469604  0.00559381  1
  H+  H215  1  0.60541549  0.46936966  0.67245804  1
  H+  H216  1  0.78144669  0.63561344  0.34096641  1
  H+  H217  1  0.51707060  0.38313906  0.49255885  1
  H+  H218  1  0.75283572  0.14558986  0.32733861  1
  H+  H219  1  0.15258108  0.09231742  0.57491727  1
  H+  H220  1  0.86355142  0.71915380  0.83000294  1
  H+  H221  1  0.26414305  0.81758360  0.54207822  1
  H+  H222  1  0.62601842  0.97443569  0.81979889  1
  H+  H223  1  0.10915150  0.12659745  0.83104403  1
  H+  H224  1  0.72909816  0.10290895  0.84118954  1
  H+  H225  1  0.14681674  0.98151695  0.67843911  1
  H+  H226  1  0.22804753  0.11047866  0.83510079  1
  H+  H227  1  0.66464256  0.83615459  0.26533324  1
  H+  H228  1  0.45347038  0.03330192  0.53714314  1
  H+  H229  1  0.12245716  0.97351975  0.50999785  1
  H+  H230  1  0.51801801  0.73026731  0.12119909  1
  H+  H231  1  0.35167446  0.71560438  0.16249721  1
  H+  H232  1  0.85683964  0.22702748  0.15408250  1
  H+  H233  1  0.88432199  0.36106107  0.16730631  1
  H+  H234  1  0.10713027  0.84295139  0.53016077  1
  H+  H235  1  0.52103292  0.14004927  0.50239581  1
  H+  H236  1  -0.00608976  0.60075395  0.65384206  1
  H+  H237  1  0.47684813  0.61038718  0.32540759  1
  H+  H238  1  0.27283018  0.88617983  0.67122274  1
  H+  H239  1  0.87676292  0.26507264  0.49239082  1
  H+  H240  1  0.85216669  0.72473418  0.00475036  1
  H+  H241  1  0.88155968  0.51571215  0.50394358  1
  H+  H242  1  0.60690167  0.37830347  1.01142278  1
  H+  H243  1  0.91333240  0.33030036  0.22652621  1
  H+  H244  1  0.39577769  0.88268586  0.66275473  1
  H+  H245  1  0.13432557  0.37414578  1.01123132  1
  H+  H246  1  0.15369793  0.78162363  0.32782890  1
  H+  H247  1  0.33316422  0.66964188  0.42083898  1
  H+  H248  1  0.78794636  0.14131512  0.67341275  1
  H+  H249  1  0.64792763  0.12147301  0.66207982  1
  H+  H250  1  0.26312128  0.36614578  0.67173595  1
  H+  H251  1  0.51693193  0.89094593  0.33986233  1
  H+  H252  1  0.88733082  0.83697074  0.65652259  1
  H+  H253  1  0.60394801  0.75016658  0.15224446  1
  H+  H254  1  0.13222839  0.71191390  0.67120248  1
  H+  H255  1  1.02299944  0.38750837  0.32488892  1
  H+  H256  1  0.56868858  0.43926276  0.09466959  1
  H+  H257  1  0.85472878  0.47280062  0.82666494  1
  H+  H258  1  0.72393513  0.36380303  0.66113034  1
  H+  H259  1  0.52629812  0.63103813  0.48550998  1
  H+  H260  1  0.22688758  0.37081144  0.32403912  1
  H+  H261  1  0.76231328  0.12884080  0.00290726  1
  H+  H262  1  0.55604869  0.89297798  0.14152916  1
  H+  H263  1  0.77540176  0.63038570  0.49409214  1
  H+  H264  1  0.22340767  0.60616067  0.83717926  1
  H+  H265  1  0.26714536  0.62481384  0.15878204  1
  H+  H266  1  0.67833579  0.58095506  0.23571912  1
  H+  H267  1  0.81135481  0.45481142  0.33721482  1
  H+  H268  1  0.10521352  0.92608922  0.73741800  1
  H+  H269  1  0.51391004  0.14179982  0.35212279  1
  H+  H270  1  0.13320921  0.60402480  0.83576718  1
  H+  H271  1  1.02301346  0.38537090  0.66112270  1
  H+  H272  1  0.60756546  0.22747186  0.66690997  1
  H+  H273  1  0.64399447  0.52421208  0.33162859  1
  H+  H274  1  0.38919000  0.63983605  0.63575658  1
  H+  H275  1  0.32786097  0.40697566  0.39162534  1
  H+  H276  1  0.96060758  0.62267112  1.00273310  1
  H+  H277  1  0.76563860  0.13745719  0.14051818  1
  H+  H278  1  0.38116006  0.89443949  0.32366920  1
  H+  H279  1  0.60619966  0.72403893  0.67499368  1
  H+  H280  1  0.41967649  0.11115889  0.24245068  1
  H+  H281  1  0.39223749  0.76204268  0.69107592  1
  H+  H282  1  0.33638390  0.92396778  0.76296911  1
  H+  H283  1  0.36123377  0.63170358  0.84074806  1
  H+  H284  1  0.64171893  1.01331553  0.12940677  1
  H+  H285  1  0.61832924  0.26297024  0.33528428  1
  H+  H286  1  0.67305927  0.87722030  0.98866170  1
  H+  H287  1  0.92221872  0.01764703  0.88893197  1
  H+  H288  1  0.71665121  0.60998052  0.99328592  1
  H+  H289  1  0.63127112  -0.00805312  0.66319180  1
  H+  H290  1  0.87869034  0.14161187  0.67579131  1
  H+  H291  1  0.62780268  0.20232105  0.20471675  1
  H+  H292  1  0.47015979  0.58746030  0.99451337  1
  H+  H293  1  0.41592000  0.57705945  0.26660816  1
  H+  H294  1  0.09104594  0.16792058  0.42994106  1
  H+  H295  1  1.06214529  0.94409694  0.97869305  1
  H+  H296  1  0.92126308  0.57585819  0.56297147  1
  H+  H297  1  0.81898686  0.62483372  0.73937205  1
  H+  H298  1  0.83261513  0.91897758  0.43702569  1
  H+  H299  1  0.40544926  0.84172853  0.90153612  1
  H+  H300  1  0.89313477  0.79991262  0.59489180  1
  H+  H301  1  0.91257907  0.88653697  0.00826867  1
  H+  H302  1  0.48977098  0.88877100  0.66262592  1
  H+  H303  1  0.66181435  0.57515824  0.89806676  1
  H+  H304  1  0.57260040  0.40944243  0.76736382  1
  H+  H305  1  0.35416418  0.22497714  0.67069978  1
  H+  H306  1  0.23506651  0.60683865  -0.00876122  1
  H+  H307  1  0.89021264  0.07654999  0.26985672  1
  H+  H308  1  0.09580305  0.67000007  0.39922486  1
  H+  H309  1  0.33313091  0.39907261  0.76733930  1
  H+  H310  1  0.91483986  0.32647056  0.59528875  1
  H+  H311  1  0.53185545  0.12526279  0.01257163  1
  H+  H312  1  0.82921118  0.16884183  0.06771045  1
  H+  H313  1  0.07251613  0.14138531  0.10852213  1
  H+  H314  1  0.11272916  0.64010952  0.71974685  1
  H+  H315  1  0.58065368  0.66095545  0.77138311  1
  H+  H316  1  0.90381732  0.58062746  0.94295174  1
  H+  H317  1  0.68884852  0.83757441  0.89198928  1
  H+  H318  1  0.66465336  0.34344783  0.56751283  1
  H+  H319  1  0.35710046  0.88844846  0.02314720  1
  H+  H320  1  0.16541940  0.58112247  0.22932070  1
  H+  H321  1  0.85229723  0.93340792  0.06972842  1
  H+  H322  1  0.41657276  0.08740477  0.59521474  1
  H+  H323  1  0.83818053  0.13488204  0.32674361  1
  H+  H324  1  0.67314946  0.82510944  0.57449150  1
  H+  H325  1  0.58875633  0.66678834  0.39511446  1
  H+  H326  1  0.58201469  0.41724221  0.40011294  1
  H+  H327  1  0.43409859  0.35130991  0.23564747  1
  H+  H328  1  0.14812905  0.80836083  0.61410056  1
  H+  H329  1  0.66863128  0.57767331  0.56679108  1
  H+  H330  1  0.06874000  0.67951326  0.06836258  1
  H+  H331  1  0.82412097  0.41549497  0.40013782  1
  H+  H332  1  0.63167139  0.10254722  0.27545864  1
  H+  H333  1  0.69261987  0.11809681  0.60141130  1
  H+  H334  1  0.16624060  0.06938891  0.92408921  1
  H+  H335  1  0.61828735  0.91155472  0.06191805  1
  H+  H336  1  0.08962654  0.42588251  0.07405386  1
  H+  H337  1  0.47085018  0.81012036  0.28284606  1
  H+  H338  1  0.08517846  0.41653371  0.73296792  1
  H+  H339  1  0.23933527  0.87637927  0.99884509  1
  H+  H340  1  0.92594494  0.34177256  0.94273295  1
  H+  H341  1  0.82027377  0.17083845  0.40905848  1
  H+  H342  1  0.18192638  0.83769054  0.89975774  1
  H+  H343  1  0.04494479  0.65505009  0.33683467  1
  H+  H344  1  0.38130349  0.34814274  0.49761245  1
  H+  H345  1  0.32523020  0.39954768  0.10181271  1
  H+  H346  1  0.84641302  0.91604106  0.72496899  1
  H+  H347  1  0.60308365  0.93275319  0.72435819  1
  H+  H348  1  0.41326471  0.56526753  0.90143640  1
  H+  H349  1  0.35656118  0.36816152  0.00725062  1
  H+  H350  1  0.17486212  0.32261840  0.55953704  1
  H+  H351  1  0.92669168  0.10291087  0.94460538  1
  H+  H352  1  0.41204556  0.32114765  0.59303331  1
  H+  H353  1  0.16139838  0.34017796  0.87284349  1
  H+  H354  1  0.17029567  0.57396999  0.93495647  1
  H+  H355  1  0.33747509  0.65462032  0.06875054  1
  H+  H356  1  0.82756142  0.41479684  0.73233799  1
  H+  H357  1  0.57629804  0.69022452  0.05734543  1
  H+  H358  1  0.34888929  0.67809675  0.78357793  1
  H+  H359  1  0.65815618  0.32551419  0.94398324  1
  H+  H360  1  0.32397191  0.15341341  0.09947360  1
  H+  H361  1  0.57585896  0.17502043  0.41308151  1
  H+  H362  1  0.40438749  0.58119690  0.53766023  1
  H+  H363  1  0.10762099  0.37530202  0.16468989  1
  H+  H364  1  0.90757408  0.83223620  0.23800202  1
  H+  H365  1  0.32461943  0.16633069  0.73113451  1
  H+  H366  1  0.34832903  0.93089879  0.37844610  1
  H+  H367  1  0.95310122  0.09438922  0.61174969  1
  H+  H368  1  0.14672111  0.82631268  0.23394831  1
  H+  H369  1  0.67399396  0.08156017  0.93209899  1
  H+  H370  1  0.92446233  0.83567705  0.89835904  1
  H+  H371  1  0.83838531  0.15387267  0.77068710  1
  H+  H372  1  0.61876394  0.11453704  0.18078513  1
  H+  H373  1  0.41986265  0.07546036  0.94186742  1
  H+  H374  1  0.14631970  0.25846177  0.65748683  1
  H+  H375  1  0.13264243  0.30844050  0.96139187  1
  H+  H376  1  0.39355321  0.81804211  0.23765628  1
  H+  H377  1  0.30425000  0.78124135  0.96788324  1
  H+  H378  1  0.91738659  0.58289901  0.23208402  1
  H+  H379  1  0.83644394  0.66894260  0.10162886  1
  H+  H380  1  0.76225430  0.39147401  0.82619318  1
  H+  H381  1  0.89153100  0.36880272  0.32199322  1
  H+  H382  1  0.28259371  0.92083996  0.46835039  1
  H+  H383  1  0.63310763  0.87066933  0.66399234  1
  O2-  O384  1  0.06223185  0.11898846  0.15266374  1
  O2-  O385  1  0.09056139  0.17050269  0.47683477  1
  O2-  O386  1  0.06958034  0.14909315  0.82137487  1
  O2-  O387  1  0.08241020  0.41078659  0.15150887  1
  O2-  O388  1  0.08193358  0.40537471  0.49959643  1
  O2-  O389  1  0.08916133  0.41906095  0.78889327  1
  O2-  O390  1  0.07232361  0.65902325  0.14639446  1
  O2-  O391  1  0.08023810  0.65760650  0.47311520  1
  O2-  O392  1  0.07966687  0.67501302  0.81160373  1
  O2-  O393  1  0.07845427  0.92451827  0.15464626  1
  O2-  O394  1  0.09712886  0.91396089  0.49425749  1
  O2-  O395  1  0.09300041  0.91696025  0.81568133  1
  O2-  O396  1  0.32520259  0.15870581  0.14408747  1
  O2-  O397  1  0.34402355  0.16077364  0.45763466  1
  O2-  O398  1  0.33113566  0.16230348  0.81048359  1
  O2-  O399  1  0.32086264  0.39877743  0.14730339  1
  O2-  O400  1  0.33375815  0.40273992  0.46843813  1
  O2-  O401  1  0.32952878  0.40347538  0.81228273  1
  O2-  O402  1  0.32949777  0.65563548  0.14680725  1
  O2-  O403  1  0.32837187  0.65302392  0.46494923  1
  O2-  O404  1  0.33172200  0.66321905  0.82706214  1
  O2-  O405  1  0.29472288  0.89726525  0.14687540  1
  O2-  O406  1  0.33365194  0.96119986  0.44615579  1
  O2-  O407  1  0.33566942  0.92360456  0.80865717  1
  O2-  O408  1  0.59996081  0.13916082  0.21393935  1
  O2-  O409  1  0.58304005  0.17861859  0.48456029  1
  O2-  O410  1  0.63596663  0.19219013  0.79645522  1
  O2-  O411  1  0.55358605  0.46100250  0.13150842  1
  O2-  O412  1  0.57787198  0.41529755  0.47788165  1
  O2-  O413  1  0.57164897  0.40961429  0.81297151  1
  O2-  O414  1  0.55375478  0.70412772  0.12736715  1
  O2-  O415  1  0.58886224  0.66065993  0.47510635  1
  O2-  O416  1  0.58218830  0.66167364  0.81656016  1
  O2-  O417  1  0.61634065  0.92182933  0.13055356  1
  O2-  O418  1  0.55953751  0.83387072  0.46172676  1
  O2-  O419  1  0.60947419  0.92275174  0.79465368  1
  O2-  O420  1  0.83034564  0.16787891  0.13585197  1
  O2-  O421  1  0.82895567  0.16634053  0.45491771  1
  O2-  O422  1  0.83202826  0.14767164  0.81582547  1
  O2-  O423  1  0.83110739  0.40826082  0.14823009  1
  O2-  O424  1  0.82095693  0.41059145  0.47306747  1
  O2-  O425  1  0.81937210  0.41628604  0.80672589  1
  O2-  O426  1  0.84296596  0.67238039  0.14654205  1
  O2-  O427  1  0.83480489  0.66059626  0.47716655  1
  O2-  O428  1  0.83410808  0.65754061  0.81886351  1
  O2-  O429  1  0.83628493  0.91735168  0.14288269  1
  O2-  O430  1  0.83899873  0.92074207  0.48257937  1
  O2-  O431  1  0.83770658  0.90627571  0.80134168  1
  O2-  O432  1  0.18804267  0.08343028  0.20825672  1
  O2-  O433  1  0.16222221  0.08175121  0.53272377  1
  O2-  O434  1  0.16769347  0.08000671  0.85112062  1
  O2-  O435  1  0.15908264  0.31599335  0.18883352  1
  O2-  O436  1  0.17340032  0.32715078  0.51467787  1
  O2-  O437  1  0.16425798  0.33352761  0.82913068  1
  O2-  O438  1  0.16462438  0.57942651  0.18400768  1
  O2-  O439  1  0.17050418  0.58390910  0.51859718  1
  O2-  O440  1  0.16001464  0.56924700  0.84560582  1
  O2-  O441  1  0.13382606  0.81742893  0.18933450  1
  O2-  O442  1  0.10560024  0.79274017  0.55252029  1
  O2-  O443  1  0.17552514  0.83347306  0.85427408  1
  O2-  O444  1  0.42865486  0.11163592  0.19813375  1
  O2-  O445  1  0.43529207  0.07443620  0.52618207  1
  O2-  O446  1  0.41401418  0.07901794  0.85717195  1
  O2-  O447  1  0.43321583  0.35110193  0.18775989  1
  O2-  O448  1  0.41226096  0.31979268  0.51528014  1
  O2-  O449  1  0.40921945  0.32500557  0.85600177  1
  O2-  O450  1  0.40677513  0.56831752  0.18653190  1
  O2-  O451  1  0.41609582  0.57536739  0.49456354  1
  O2-  O452  1  0.41543743  0.57231827  0.85623134  1
  O2-  O453  1  0.37782286  0.81422061  0.19043690  1
  O2-  O454  1  0.43190632  0.75904246  0.55425414  1
  O2-  O455  1  0.40790769  0.84045214  0.85678917  1
  O2-  O456  1  0.66219046  0.07971005  0.12849090  1
  O2-  O457  1  0.70995987  0.16350324  0.53759703  1
  O2-  O458  1  0.66852750  0.07593330  0.85631068  1
  O2-  O459  1  0.66098328  0.30700961  0.19181542  1
  O2-  O460  1  0.66548830  0.34410382  0.52206054  1
  O2-  O461  1  0.65618701  0.33404253  0.86306188  1
  O2-  O462  1  0.67687653  0.58347506  0.19074200  1
  O2-  O463  1  0.66903240  0.57647891  0.52119090  1
  O2-  O464  1  0.66500431  0.57574340  0.85261202  1
  O2-  O465  1  0.67175148  0.83607334  0.18808749  1
  O2-  O466  1  0.67636648  0.81952032  0.53016176  1
  O2-  O467  1  0.68112398  0.83046182  0.84688140  1
  O2-  O468  1  0.90070167  0.07687613  0.18953588  1
  O2-  O469  1  0.92569931  0.07623183  0.53174420  1
  O2-  O470  1  0.92166609  0.06458366  0.86697803  1
  O2-  O471  1  0.91389530  0.32836181  0.18133766  1
  O2-  O472  1  0.90461537  0.32398985  0.51027969  1
  O2-  O473  1  0.94624889  0.30577001  0.87175698  1
  O2-  O474  1  0.91212897  0.57607981  0.18732278  1
  O2-  O475  1  0.91609726  0.57642784  0.51751173  1
  O2-  O476  1  0.91202016  0.57585694  0.86539172  1
  O2-  O477  1  0.91057081  0.83510161  0.19228617  1
  O2-  O478  1  0.92173323  0.82954730  0.51457915  1
  O2-  O479  1  0.92367852  0.83066477  0.85397309  1
  O2-  O480  1  0.18825638  0.09202195  0.33180151  1
  O2-  O481  1  0.15245479  0.11736368  0.65754128  1
  O2-  O482  1  0.16178898  0.05892115  0.96998105  1
  O2-  O483  1  0.16442693  0.34171417  0.31029352  1
  O2-  O484  1  0.16978575  0.31925168  0.64158857  1
  O2-  O485  1  0.16099401  0.33648646  0.99902838  1
  O2-  O486  1  0.16712457  0.57904704  0.30956833  1
  O2-  O487  1  0.20527657  0.56268784  0.64988997  1
  O2-  O488  1  0.17362990  0.57744503  0.97953361  1
  O2-  O489  1  0.17597650  0.83869052  0.30826277  1
  O2-  O490  1  0.16951032  0.81643900  0.65862631  1
  O2-  O491  1  0.18244393  0.84837993  0.97636669  1
  O2-  O492  1  0.41983003  0.09800189  0.32389735  1
  O2-  O493  1  0.41237715  0.08815019  0.64195680  1
  O2-  O494  1  0.42447192  0.08193252  0.98663289  1
  O2-  O495  1  0.42808766  0.34705025  0.30165382  1
  O2-  O496  1  0.41457185  0.32462369  0.63865230  1
  O2-  O497  1  0.40862238  0.32095201  0.97842942  1
  O2-  O498  1  0.41548480  0.58029397  0.31185673  1
  O2-  O499  1  0.36708722  0.58547353  0.61264061  1
  O2-  O500  1  0.41036106  0.56044126  0.98004250  1
  O2-  O501  1  0.42483420  0.81826183  0.29899196  1
  O2-  O502  1  0.42750507  0.85112498  0.65331059  1
  O2-  O503  1  0.36411682  0.80709182  0.98045186  1
  O2-  O504  1  0.64677473  0.09027204  0.31700741  1
  O2-  O505  1  0.68445389  0.09892504  0.64596138  1
  O2-  O506  1  0.67652513  0.08214403  0.97778113  1
  O2-  O507  1  0.65222965  0.32334298  0.31708805  1
  O2-  O508  1  0.66351081  0.33354344  0.64564029  1
  O2-  O509  1  0.65826917  0.32316708  0.98923105  1
  O2-  O510  1  0.67808030  0.58491193  0.31647693  1
  O2-  O511  1  0.66458806  0.57140080  0.64449907  1
  O2-  O512  1  0.65695063  0.57717423  0.97609123  1
  O2-  O513  1  0.66047744  0.83286844  0.31099453  1
  O2-  O514  1  0.66026754  0.83177181  0.66029082  1
  O2-  O515  1  0.71048740  0.85235109  0.96951242  1
  O2-  O516  1  0.88141252  0.07989725  0.31401829  1
  O2-  O517  1  0.95261756  0.09891346  0.65672870  1
  O2-  O518  1  0.92355710  0.10327972  0.98964277  1
  O2-  O519  1  0.92118129  0.33843415  0.30713198  1
  O2-  O520  1  0.92568617  0.33215995  0.63994243  1
  O2-  O521  1  0.92285675  0.35849699  0.98507063  1
  O2-  O522  1  0.93704811  0.60371294  0.31362258  1
  O2-  O523  1  0.93343772  0.57671085  0.64039780  1
  O2-  O524  1  0.89928078  0.58485850  0.98799125  1
  O2-  O525  1  0.91025436  0.83686724  0.31469553  1
  O2-  O526  1  0.86808475  0.78222061  0.63602277  1
  O2-  O527  1  0.94082678  0.85240071  0.99549399  1
  O2-  O528  1  0.08349436  0.17232750  0.04269968  1
  O2-  O529  1  0.09790461  0.16879767  0.36067451  1
  O2-  O530  1  0.11967478  0.16714958  0.68891800  1
  O2-  O531  1  0.09141378  0.42468058  0.02873165  1
  O2-  O532  1  0.08618046  0.41906160  0.33716208  1
  O2-  O533  1  0.08416136  0.41102673  0.67877421  1
  O2-  O534  1  0.05673979  0.68547523  0.02516468  1
  O2-  O535  1  0.10332191  0.67456171  0.35344698  1
  O2-  O536  1  0.10735250  0.64793181  0.67639974  1
  O2-  O537  1  0.12387231  0.96549530  -0.02746886  1
  O2-  O538  1  0.07535557  0.91482423  0.33328220  1
  O2-  O539  1  0.11229530  0.92281487  0.69291650  1
  O2-  O540  1  0.33001640  0.15701634  0.01511765  1
  O2-  O541  1  0.34346145  0.16346524  0.39348748  1
  O2-  O542  1  0.31558016  0.16554453  0.68632010  1
  O2-  O543  1  0.33009537  0.40192261  0.02408485  1
  O2-  O544  1  0.32569463  0.41210802  0.34625512  1
  O2-  O545  1  0.32360103  0.39676792  0.68926382  1
  O2-  O546  1  0.34149340  0.65763078  0.02331482  1
  O2-  O547  1  0.33063403  0.66823179  0.34473349  1
  O2-  O548  1  0.36749505  0.70069844  0.70619439  1
  O2-  O549  1  0.33190716  0.92450934  0.03417142  1
  O2-  O550  1  0.34881405  0.92374220  0.33309351  1
  O2-  O551  1  0.33424955  0.92399214  0.68514186  1
  O2-  O552  1  0.59355985  0.15180989  0.02423862  1
  O2-  O553  1  0.57570703  0.17299083  0.36684033  1
  O2-  O554  1  0.57929598  0.16754126  0.68358358  1
  O2-  O555  1  0.57358869  0.40811691  0.02078362  1
  O2-  O556  1  0.58600366  0.42107292  0.35473729  1
  O2-  O557  1  0.57564951  0.40931243  0.68910870  1
  O2-  O558  1  0.58228931  0.68094930  0.01246768  1
  O2-  O559  1  0.58408616  0.66496405  0.34992012  1
  O2-  O560  1  0.58566890  0.66483031  0.69119263  1
  O2-  O561  1  0.61875773  0.90787575  0.01476275  1
  O2-  O562  1  0.57665014  0.92119974  0.35701510  1
  O2-  O563  1  0.59738697  0.93114780  0.67804704  1
  O2-  O564  1  0.82577131  0.16332864  0.02045004  1
  O2-  O565  1  0.81569632  0.17521071  0.33879269  1
  O2-  O566  1  0.84800703  0.17137915  0.69042663  1
  O2-  O567  1  0.82378835  0.41612044  0.02639067  1
  O2-  O568  1  0.83026948  0.41679546  0.35387921  1
  O2-  O569  1  0.83011975  0.41283676  0.68634722  1
  O2-  O570  1  0.81927570  0.66574009  0.02028188  1
  O2-  O571  1  0.84260882  0.66680749  0.35552355  1
  O2-  O572  1  0.80011646  0.59200752  0.70102862  1
  O2-  O573  1  0.86325095  0.94139766  0.02418888  1
  O2-  O574  1  0.82467698  0.91424765  0.36032778  1
  O2-  O575  1  0.86075092  0.93229060  0.68121813  1
