# generated using pymatgen
data_H2O
_symmetry_space_group_name_H-M   'P 1'
_cell_length_a   17.99584594
_cell_length_b   17.99513415
_cell_length_c   22.00423677
_cell_angle_alpha   89.99428332
_cell_angle_beta   89.99870347
_cell_angle_gamma   120.01671473
_symmetry_Int_Tables_number   1
_chemical_formula_structural   H2O
_chemical_formula_sum   'H384 O192'
_cell_volume   6170.08462092
_cell_formula_units_Z   192
loop_
 _symmetry_equiv_pos_site_id
 _symmetry_equiv_pos_as_xyz
  1  'x, y, z'
loop_
 _atom_type_symbol
 _atom_type_oxidation_number
  H+  1.0
  O2-  -2.0
loop_
 _atom_site_type_symbol
 _atom_site_label
 _atom_site_symmetry_multiplicity
 _atom_site_fract_x
 _atom_site_fract_y
 _atom_site_fract_z
 _atom_site_occupancy
  H+  H0  1  0.76474200  0.13778881  0.49606143  1
  H+  H1  1  0.19591892  0.77158417  0.88750964  1
  H+  H2  1  0.86595780  0.71510801  0.67587583  1
  H+  H3  1  0.03363278  0.88907634  0.33835406  1
  H+  H4  1  0.77302615  0.38626930  0.32933938  1
  H+  H5  1  0.10730916  0.47608570  0.46555348  1
  H+  H6  1  0.89739488  0.09362231  0.26714749  1
  H+  H7  1  0.87143530  0.76333205  0.81445111  1
  H+  H8  1  0.29812192  0.40095989  0.68862134  1
  H+  H9  1  0.71868291  0.86261055  0.17458695  1
  H+  H10  1  0.68177309  0.13739555  0.33563681  1
  H+  H11  1  0.47398734  0.87030019  0.67789171  1
  H+  H12  1  0.84220315  0.63268216  0.83286045  1
  H+  H13  1  0.87913619  0.03821798  0.17582826  1
  H+  H14  1  0.32992145  0.65254332  0.72674509  1
  H+  H15  1  0.63703142  0.03224809  0.66454483  1
  H+  H16  1  0.13911070  0.60681079  0.48451765  1
  H+  H17  1  0.67975068  0.62364064  0.50711331  1
  H+  H18  1  0.62381254  0.59952993  0.17500838  1
  H+  H19  1  0.23304792  0.61963692  0.64155869  1
  H+  H20  1  0.25951991  0.13487082  0.16101036  1
  H+  H21  1  0.86255428  0.71339128  0.34215347  1
  H+  H22  1  0.72778249  0.83356154  0.98683807  1
  H+  H23  1  0.34743606  0.46962187  1.00668165  1
  H+  H24  1  0.83237306  0.12926964  0.33357279  1
  H+  H25  1  0.38861092  0.51842749  0.84117906  1
  H+  H26  1  0.23481066  0.11651368  0.67190035  1
  H+  H27  1  0.88016067  0.85759446  0.16902499  1
  H+  H28  1  0.85627207  0.88439155  0.00744035  1
  H+  H29  1  0.79504615  0.62123382  0.50212653  1
  H+  H30  1  0.12323169  0.71183626  0.15456815  1
  H+  H31  1  0.58547983  0.70266638  0.66888170  1
  H+  H32  1  0.60930939  0.09017857  0.85889975  1
  H+  H33  1  0.72603940  0.36658529  0.85320636  1
  H+  H34  1  0.36222987  0.13633677  0.01131929  1
  H+  H35  1  0.61209055  0.38997829  0.00882898  1
  H+  H36  1  0.23410188  0.10175471  -0.01595421  1
  H+  H37  1  0.28680918  0.89086552  0.35005616  1
  H+  H38  1  0.28175978  0.64038151  0.32621036  1
  H+  H39  1  0.29613224  0.42157039  0.48216941  1
  H+  H40  1  0.64828094  0.28800274  1.01017012  1
  H+  H41  1  0.36567204  0.57411102  0.65645105  1
  H+  H42  1  0.77714149  0.38596278  0.48750800  1
  H+  H43  1  0.27639865  0.38747970  0.84122624  1
  H+  H44  1  0.89739980  0.76124637  0.51575318  1
  H+  H45  1  0.38707268  0.08405159  0.50621463  1
  H+  H46  1  0.75215375  0.62808864  0.82558891  1
  H+  H47  1  0.86973059  0.88439815  0.67275783  1
  H+  H48  1  0.78078036  0.16468871  1.00998283  1
  H+  H49  1  0.38185846  0.86410823  0.67873770  1
  H+  H50  1  0.27508518  0.89568270  0.67500927  1
  H+  H51  1  0.39729266  0.11700417  0.34708117  1
  H+  H52  1  0.70063321  0.09905903  0.16509866  1
  H+  H53  1  0.88384719  0.62650132  0.49718995  1
  H+  H54  1  0.88556744  0.49592033  0.16531375  1
  H+  H55  1  0.84759128  0.92649135  0.09112725  1
  H+  H56  1  0.15356285  0.13519347  0.83505116  1
  H+  H57  1  0.60751116  0.96013093  0.83176614  1
  H+  H58  1  -0.01469306  0.60857498  0.65300400  1
  H+  H59  1  0.10915883  0.85453997  0.83324687  1
  H+  H60  1  0.52462074  0.13863042  0.83685861  1
  H+  H61  1  0.64439159  0.03155004  0.50768450  1
  H+  H62  1  0.21599968  0.58272369  0.47566588  1
  H+  H63  1  0.15391831  0.82484871  0.10935607  1
  H+  H64  1  0.37439723  0.98025240  0.36085090  1
  H+  H65  1  0.14316264  0.77846356  0.64870315  1
  H+  H66  1  0.12282785  0.58923259  0.98529531  1
  H+  H67  1  0.97585584  0.35544593  0.48521412  1
  H+  H68  1  0.46858338  0.10688036  1.00487686  1
  H+  H69  1  0.87602605  0.11075333  -0.00588980  1
  H+  H70  1  0.73839769  0.09276940  0.83538407  1
  H+  H71  1  0.41437920  0.33355070  0.60319420  1
  H+  H72  1  0.99750515  0.37176479  0.18309957  1
  H+  H73  1  0.87670757  0.99594919  0.49176826  1
  H+  H74  1  0.47429032  0.36861678  0.50425825  1
  H+  H75  1  0.15353552  0.61406992  0.82434160  1
  H+  H76  1  0.62277669  0.89423852  0.33745072  1
  H+  H77  1  0.13963444  0.85902861  0.50201808  1
  H+  H78  1  0.10888299  0.73373864  0.34602515  1
  H+  H79  1  0.60731972  0.37338491  0.16734401  1
  H+  H80  1  0.87820468  0.10223091  0.84283309  1
  H+  H81  1  0.39129849  0.26742124  0.65921402  1
  H+  H82  1  0.37856945  0.63844186  0.16562155  1
  H+  H83  1  0.13096481  0.47341466  0.15841283  1
  H+  H84  1  0.47655893  0.36447529  0.32279398  1
  H+  H85  1  0.13168080  0.28062357  0.84523553  1
  H+  H86  1  0.38196724  0.28545901  0.50122836  1
  H+  H87  1  0.14862807  0.52774707  0.33457047  1
  H+  H88  1  0.15632554  0.60206221  0.17047417  1
  H+  H89  1  0.88674821  0.52427149  0.00840163  1
  H+  H90  1  0.20279095  0.38189448  1.00489249  1
  H+  H91  1  0.88179391  0.60429730  0.33391641  1
  H+  H92  1  0.01587185  0.63887410  0.34613437  1
  H+  H93  1  0.59895208  0.88038946  0.14832583  1
  H+  H94  1  0.57158080  0.92983828  0.04169658  1
  H+  H95  1  0.08648040  0.24216643  0.01880028  1
  H+  H96  1  0.15196813  0.34224056  0.90399661  1
  H+  H97  1  0.34933291  0.87449307  0.00792093  1
  H+  H98  1  0.13893400  0.27780173  0.64920442  1
  H+  H99  1  0.62607703  0.50987385  -0.00603914  1
  H+  H100  1  0.39194636  0.60982901  0.83834521  1
  H+  H101  1  0.63362557  0.51841659  0.66260727  1
  H+  H102  1  0.11912853  0.14505243  0.67427511  1
  H+  H103  1  0.87287495  0.35627807  0.32151176  1
  H+  H104  1  0.23199291  0.46291699  0.53485306  1
  H+  H105  1  0.86453630  0.90347621  0.33607149  1
  H+  H106  1  0.60406292  0.72467039  1.00671875  1
  H+  H107  1  0.83791381  0.62349011  0.16412886  1
  H+  H108  1  0.58654419  0.21966672  0.17832678  1
  H+  H109  1  0.11665830  0.39293836  0.36747582  1
  H+  H110  1  0.37207413  0.13609537  0.67579377  1
  H+  H111  1  0.56903351  0.63020667  0.50094237  1
  H+  H112  1  0.92344335  0.94869499  0.46806712  1
  H+  H113  1  0.12132456  0.39131915  0.82270212  1
  H+  H114  1  0.00914902  0.87532717  0.16558022  1
  H+  H115  1  0.85881695  0.88486759  0.81859097  1
  H+  H116  1  0.39178451  0.65142152  1.01158751  1
  H+  H117  1  0.51827934  0.38688414  0.67649792  1
  H+  H118  1  0.12709338  0.11171250  0.32723975  1
  H+  H119  1  -0.03256778  0.12617186  0.17932703  1
  H+  H120  1  0.85082345  -0.02805542  1.00547496  1
  H+  H121  1  0.33696302  0.91130939  0.10744852  1
  H+  H122  1  0.86598852  1.03165924  0.32522384  1
  H+  H123  1  0.03064032  0.88920423  0.49877927  1
  H+  H124  1  0.61262567  0.71977941  0.16440121  1
  H+  H125  1  0.26946293  0.14473011  0.33464358  1
  H+  H126  1  0.04826287  0.63829395  0.78966946  1
  H+  H127  1  0.38854556  0.36334725  0.84923064  1
  H+  H128  1  0.47363626  0.86108853  0.17030415  1
  H+  H129  1  0.62775929  0.36788409  0.65996268  1
  H+  H130  1  0.84184009  0.14445241  0.16407283  1
  H+  H131  1  0.83212007  0.41153441  0.39058809  1
  H+  H132  1  0.12691377  0.64394741  0.64207571  1
  H+  H133  1  0.57693925  0.65158063  0.76586180  1
  H+  H134  1  0.11452078  0.72903828  0.49411457  1
  H+  H135  1  0.72536155  0.60504397  0.65731513  1
  H+  H136  1  0.38232449  0.35880884  0.17130782  1
  H+  H137  1  0.00304072  0.12753350  0.33936269  1
  H+  H138  1  0.24617499  0.60512953  0.17178780  1
  H+  H139  1  0.62969086  0.76886072  0.32924119  1
  H+  H140  1  0.93403316  0.97674769  0.12732285  1
  H+  H141  1  0.88817097  0.02047620  0.84167112  1
  H+  H142  1  0.91349224  0.08656671  0.59870638  1
  H+  H143  1  0.73349876  0.85522812  0.50834275  1
  H+  H144  1  0.17852157  0.58972793  0.57882525  1
  H+  H145  1  0.10213352  0.88339943  0.16302536  1
  H+  H146  1  0.38809956  0.51664643  0.17236896  1
  H+  H147  1  0.63890210  0.27816948  0.50328443  1
  H+  H148  1  0.22740882  0.37591167  0.33732077  1
  H+  H149  1  0.40844632  0.19169671  0.46656971  1
  H+  H150  1  0.81125337  0.15731226  0.43096341  1
  H+  H151  1  0.53790889  0.77577929  0.61394232  1
  H+  H152  1  0.59969060  0.88837040  0.67025466  1
  H+  H153  1  0.89701464  0.26201861  0.65395335  1
  H+  H154  1  0.38278500  0.01632336  0.99932492  1
  H+  H155  1  0.84755675  0.62854142  0.01551002  1
  H+  H156  1  0.91314864  0.37769601  0.99912137  1
  H+  H157  1  1.00959132  0.14603969  1.01523848  1
  H+  H158  1  1.02397705  0.14555083  0.82633931  1
  H+  H159  1  0.49002069  0.11802327  0.66715380  1
  H+  H160  1  0.26891962  0.88625095  0.01629966  1
  H+  H161  1  0.09756916  0.13721739  0.16467907  1
  H+  H162  1  1.13160358  0.46407608  0.99508470  1
  H+  H163  1  0.87187470  0.77168473  0.00057211  1
  H+  H164  1  0.93094650  0.32036871  0.59308069  1
  H+  H165  1  0.37400207  0.48664641  0.33630259  1
  H+  H166  1  0.15241293  0.52534122  0.82804622  1
  H+  H167  1  0.32803839  0.16450974  0.06938875  1
  H+  H168  1  0.60686336  0.63539131  0.34636104  1
  H+  H169  1  0.08754733  0.92136311  0.40044442  1
  H+  H170  1  0.72857739  0.11756483  0.66213467  1
  H+  H171  1  0.36245188  0.72001634  0.67453092  1
  H+  H172  1  0.12802361  0.76636526  1.00158119  1
  H+  H173  1  0.09789079  0.88342030  1.01592433  1
  H+  H174  1  0.40055751  0.86951328  0.33169108  1
  H+  H175  1  0.11623622  0.17251018  0.49609491  1
  H+  H176  1  0.12651686  -0.02730722  0.49760352  1
  H+  H177  1  0.14400470  0.87098536  0.33333532  1
  H+  H178  1  0.49107618  0.87411482  0.32792406  1
  H+  H179  1  0.86413743  0.47914157  0.68317920  1
  H+  H180  1  0.60953918  0.47172807  0.33829976  1
  H+  H181  1  0.87752849  0.23817013  1.00527041  1
  H+  H182  1  0.62297323  0.50848149  0.17899965  1
  H+  H183  1  0.89404633  0.60558672  0.65860325  1
  H+  H184  1  0.81193385  0.18563325  0.83707951  1
  H+  H185  1  0.87475111  0.11693150  0.50273278  1
  H+  H186  1  0.38913065  1.02664884  0.84497889  1
  H+  H187  1  0.12321735  0.02388865  0.17620684  1
  H+  H188  1  0.63366659  0.90497016  0.49217779  1
  H+  H189  1  0.18012354  0.08772869  0.88454171  1
  H+  H190  1  0.91441675  0.31771676  0.84278153  1
  H+  H191  1  0.60957686  0.38598180  0.49231828  1
  H+  H192  1  0.62342237  0.14476713  0.49415273  1
  H+  H193  1  0.92003445  0.83289943  0.76516258  1
  H+  H194  1  0.14295014  0.36212465  0.18229435  1
  H+  H195  1  0.53248620  0.13688283  0.48895789  1
  H+  H196  1  0.52002483  0.62763690  0.82701574  1
  H+  H197  1  0.87311210  0.41423567  0.84089779  1
  H+  H198  1  0.37381512  0.72656495  0.16799353  1
  H+  H199  1  0.64044337  0.27328460  0.85277669  1
  H+  H200  1  0.86347932  0.75968323  0.16983650  1
  H+  H201  1  0.36720879  0.98257744  0.67923294  1
  H+  H202  1  0.57763793  0.41582330  0.73682575  1
  H+  H203  1  0.41533512  0.33328943  0.94097915  1
  H+  H204  1  0.71838113  0.60751610  0.33073676  1
  H+  H205  1  0.35129636  0.35507380  0.69093922  1
  H+  H206  1  0.04127008  0.61935234  0.16424134  1
  H+  H207  1  0.09659574  0.40677108  0.10237880  1
  H+  H208  1  0.49563062  0.12655719  0.17589084  1
  H+  H209  1  0.13214238  0.72583472  0.80788152  1
  H+  H210  1  0.26163271  0.10507916  0.50903705  1
  H+  H211  1  0.51956705  0.38341739  0.83395121  1
  H+  H212  1  0.01899286  0.36982343  0.66557035  1
  H+  H213  1  0.78044724  0.88200631  0.66746405  1
  H+  H214  1  0.28081144  0.87426052  0.49961419  1
  H+  H215  1  0.13618488  0.27178460  0.18666108  1
  H+  H216  1  0.65765696  0.57881825  0.27175935  1
  H+  H217  1  0.38573414  0.27477497  1.00071010  1
  H+  H218  1  0.98787612  0.86463572  0.67091861  1
  H+  H219  1  0.14062933  0.86663209  0.65783872  1
  H+  H220  1  0.27083517  0.38165816  0.16684967  1
  H+  H221  1  0.12057065  -0.02152461  0.68354353  1
  H+  H222  1  0.02920395  0.14240765  0.66841314  1
  H+  H223  1  0.34432510  -0.09723167  0.44328812  1
  H+  H224  1  0.11838589  0.37730659  0.66413208  1
  H+  H225  1  0.36881513  0.14459881  0.82895714  1
  H+  H226  1  0.86261696  0.12865943  0.67537092  1
  H+  H227  1  0.40847029  0.71174481  0.53740623  1
  H+  H228  1  0.84440217  0.38705751  0.59406085  1
  H+  H229  1  0.35183354  0.22053958  0.16261263  1
  H+  H230  1  0.11090000  0.25544897  0.48699664  1
  H+  H231  1  0.91199826  0.38047115  0.18044947  1
  H+  H232  1  0.89041123  0.02337752  0.65579063  1
  H+  H233  1  0.36020741  0.87757902  0.16835147  1
  H+  H234  1  0.89499532  0.51206417  0.50298085  1
  H+  H235  1  0.63262763  0.81730200  0.59218893  1
  H+  H236  1  0.87865679  0.53452171  0.85505927  1
  H+  H237  1  0.51768850  0.71178921  0.03878804  1
  H+  H238  1  0.37371604  0.72975819  0.33251104  1
  H+  H239  1  0.60964707  0.87181786  0.82649251  1
  H+  H240  1  0.71840019  0.37434690  0.66213642  1
  H+  H241  1  0.91780715  0.33230168  0.25700652  1
  H+  H242  1  0.37499492  0.39860623  0.48603598  1
  H+  H243  1  0.24265430  0.85327271  0.84421619  1
  H+  H244  1  0.63246164  0.76162163  0.83155016  1
  H+  H245  1  0.62040678  0.01975662  1.01308971  1
  H+  H246  1  0.28446495  0.63442220  0.82488707  1
  H+  H247  1  0.96966694  0.13043250  0.50590968  1
  H+  H248  1  0.37150394  0.72409786  0.82203245  1
  H+  H249  1  0.68483131  0.32414547  0.15589980  1
  H+  H250  1  0.46082132  0.66591081  0.51647089  1
  H+  H251  1  0.80031993  0.40906611  0.17565813  1
  H+  H252  1  0.37044880  0.01560177  0.18216006  1
  H+  H253  1  0.44472496  0.56339116  0.66623703  1
  H+  H254  1  0.85739279  0.25732271  0.31720367  1
  H+  H255  1  0.63642533  0.15915371  0.01452786  1
  H+  H256  1  0.88597230  0.26899359  0.49392288  1
  H+  H257  1  0.86420104  0.38083233  0.48444708  1
  H+  H258  1  0.62539076  0.51469418  0.84436223  1
  H+  H259  1  0.51852124  0.38533623  0.00771309  1
  H+  H260  1  0.39136136  0.27560533  0.84398175  1
  H+  H261  1  0.60733774  0.62676987  0.67136816  1
  H+  H262  1  0.64275043  0.36161381  0.31905000  1
  H+  H263  1  0.78819297  0.38951657  1.01451975  1
  H+  H264  1  0.15846566  0.83705862  0.94929845  1
  H+  H265  1  0.14246782  0.01720417  0.98343158  1
  H+  H266  1  0.60387043  0.02071917  0.91006707  1
  H+  H267  1  0.72109831  0.60537477  -0.00481858  1
  H+  H268  1  0.53231244  0.22229537  0.04706471  1
  H+  H269  1  0.37268229  0.39351037  0.33582411  1
  H+  H270  1  0.83553141  0.65856774  0.40412241  1
  H+  H271  1  0.06884991  0.17640027  0.10917220  1
  H+  H272  1  0.62468449  0.15034766  0.68129548  1
  H+  H273  1  0.47628731  0.85705245  0.84017626  1
  H+  H274  1  0.80412568  0.34481287  0.59732238  1
  H+  H275  1  0.95827988  0.63122524  0.86386241  1
  H+  H276  1  0.16412702  0.40719520  0.48656599  1
  H+  H277  1  0.59649848  0.96787658  0.14956485  1
  H+  H278  1  0.97307874  0.77661374  0.28612761  1
  H+  H279  1  0.38296893  0.76450332  -0.00479635  1
  H+  H280  1  0.36869915  0.88905496  0.82739137  1
  H+  H281  1  0.59084917  0.16885608  0.78109385  1
  H+  H282  1  0.62400909  0.60465493  0.84273108  1
  H+  H283  1  0.38941739  0.61339065  0.32039541  1
  H+  H284  1  0.14031831  0.03112240  0.32659376  1
  H+  H285  1  0.96170469  0.85893140  1.00089076  1
  H+  H286  1  0.96448429  0.66667408  0.19073124  1
  H+  H287  1  0.61033403  0.09357543  0.17297095  1
  H+  H288  1  0.64598411  0.57597232  0.57086624  1
  H+  H289  1  0.60224080  0.47162954  0.49226580  1
  H+  H290  1  0.04094916  0.40720825  0.82249170  1
  H+  H291  1  0.66489077  0.13654936  0.95210481  1
  H+  H292  1  0.65782418  0.57487842  0.93006661  1
  H+  H293  1  0.41717945  0.08376919  0.90501268  1
  H+  H294  1  0.83182635  0.43525576  0.78352540  1
  H+  H295  1  0.41101190  0.57318925  0.93259303  1
  H+  H296  1  0.92339770  0.56759187  0.56598957  1
  H+  H297  1  0.36024204  0.23381958  0.33282883  1
  H+  H298  1  0.15667507  0.08686872  0.23337056  1
  H+  H299  1  0.33899449  0.37783725  0.00811290  1
  H+  H300  1  0.72039787  0.85355838  0.83307927  1
  H+  H301  1  0.08847721  0.65379203  0.06367829  1
  H+  H302  1  0.42399817  0.83664857  0.23542557  1
  H+  H303  1  0.57890700  0.41128366  0.10861994  1
  H+  H304  1  0.38758833  0.83233991  0.52240922  1
  H+  H305  1  0.84908034  0.41995650  0.07294662  1
  H+  H306  1  0.48537036  0.11574033  0.34890240  1
  H+  H307  1  0.88898895  0.51827973  0.32773601  1
  H+  H308  1  0.32745759  0.39641665  0.78007585  1
  H+  H309  1  0.08376860  0.18236731  0.76723583  1
  H+  H310  1  0.63368472  0.23179406  0.33466795  1
  H+  H311  1  0.43370184  0.08207600  0.60592930  1
  H+  H312  1  0.91984969  0.81448891  0.25894305  1
  H+  H313  1  0.02002890  0.63323576  0.01106770  1
  H+  H314  1  0.82016888  0.17020282  0.10154772  1
  H+  H315  1  0.60816118  0.17737863  0.39641737  1
  H+  H316  1  0.07758984  0.67355465  0.41582206  1
  H+  H317  1  0.24275942  0.03191830  0.55544858  1
  H+  H318  1  0.07058461  0.92002607  0.07154932  1
  H+  H319  1  0.38202370  0.69009162  0.07517365  1
  H+  H320  1  0.46551691  0.60138425  0.99445136  1
  H+  H321  1  0.09416041  0.90847683  0.73795629  1
  H+  H322  1  0.51846322  0.63528178  0.34049451  1
  H+  H323  1  0.91085941  0.08078641  0.93747514  1
  H+  H324  1  0.60572329  0.93642082  0.43346436  1
  H+  H325  1  0.92625066  0.82753150  0.61314810  1
  H+  H326  1  0.60914669  0.38429366  0.83445849  1
  H+  H327  1  0.56307444  0.66812967  0.43672643  1
  H+  H328  1  0.82679551  0.15493177  0.73354514  1
  H+  H329  1  0.08512474  0.40871146  0.72842501  1
  H+  H330  1  0.82529120  0.64963110  0.73064189  1
  H+  H331  1  0.02567961  0.63324658  0.49425769  1
  H+  H332  1  0.72027654  0.85681214  0.32697784  1
  H+  H333  1  0.92652702  0.59663332  0.24385762  1
  H+  H334  1  0.32125005  0.41010438  0.10302550  1
  H+  H335  1  0.82938840  0.92268480  0.76629309  1
  H+  H336  1  0.63745546  0.77466783  0.50159247  1
  H+  H337  1  0.28145631  0.14957946  0.82273722  1
  H+  H338  1  0.33148221  0.92045410  0.77243595  1
  H+  H339  1  0.83602384  0.92713601  0.39754536  1
  H+  H340  1  0.47092091  0.35620128  0.17352057  1
  H+  H341  1  0.34524185  0.17069576  0.73496397  1
  H+  H342  1  0.10535907  0.67389622  0.70445030  1
  H+  H343  1  0.36624816  0.10201537  0.17919727  1
  H+  H344  1  0.99850852  0.36829442  0.99426364  1
  H+  H345  1  0.67147939  0.80086168  0.92636311  1
  H+  H346  1  0.88302231  0.84103420  0.51963705  1
  H+  H347  1  0.40619368  0.82284007  0.89528103  1
  H+  H348  1  0.15742167  0.56833491  0.92433422  1
  H+  H349  1  0.66989512  0.33252592  0.25704108  1
  H+  H350  1  0.42126746  0.57810197  0.26437892  1
  H+  H351  1  0.84267587  0.38357603  0.69402456  1
  H+  H352  1  0.16849022  0.83343284  0.56393852  1
  H+  H353  1  0.17322178  0.34824225  0.59345446  1
  H+  H354  1  0.02572025  0.86192017  0.82340312  1
  H+  H355  1  0.06801818  0.16626167  0.39452786  1
  H+  H356  1  0.17434106  0.56771754  0.26772412  1
  H+  H357  1  0.61858244  0.23628552  0.68110087  1
  H+  H358  1  0.57917002  0.40891581  0.39516803  1
  H+  H359  1  0.58709215  0.92002687  0.73574166  1
  H+  H360  1  0.48078701  0.60457538  0.17327796  1
  H+  H361  1  0.90544397  0.58647809  0.95154181  1
  H+  H362  1  0.66044105  0.82952461  0.23337225  1
  H+  H363  1  0.22762094  0.85423334  0.15727931  1
  H+  H364  1  0.74697542  0.61967639  0.16628244  1
  H+  H365  1  0.31439701  0.61934074  0.41165241  1
  H+  H366  1  0.33684718  0.17864056  0.41972058  1
  H+  H367  1  0.17648919  0.83743599  0.27781893  1
  H+  H368  1  0.16193493  0.34309829  0.28352768  1
  H+  H369  1  0.80624729  0.65334755  0.07044139  1
  H+  H370  1  0.17870528  0.08393742  0.61283282  1
  H+  H371  1  0.57660212  0.66717390  0.10303017  1
  H+  H372  1  0.94321819  0.36608586  0.90579045  1
  H+  H373  1  0.40956091  0.81870065  0.58963554  1
  H+  H374  1  0.67420175  0.33691579  0.94586507  1
  H+  H375  1  0.39684781  0.00260174  0.51173351  1
  H+  H376  1  0.66823481  0.09081722  0.56891367  1
  H+  H377  1  0.63864923  0.98963996  0.33874307  1
  H+  H378  1  0.66659721  0.33936093  0.56181490  1
  H+  H379  1  0.41460923  0.33647177  0.26358149  1
  H+  H380  1  0.33908740  0.61128672  0.48089075  1
  H+  H381  1  0.30049968  0.74825679  0.96038138  1
  H+  H382  1  0.55893152  0.17345050  0.09704525  1
  H+  H383  1  0.35064442  0.42911025  0.41272546  1
  O2-  O384  1  0.06837226  0.17053996  0.15502316  1
  O2-  O385  1  0.07924989  0.19343491  0.48067433  1
  O2-  O386  1  0.08397834  0.18367164  0.81238217  1
  O2-  O387  1  0.09357817  0.41087584  0.14697542  1
  O2-  O388  1  0.08477487  0.41403253  0.45014923  1
  O2-  O389  1  0.09598512  0.42384002  0.80141342  1
  O2-  O390  1  0.09735889  0.64960518  0.14383738  1
  O2-  O391  1  0.08343077  0.66988158  0.47421663  1
  O2-  O392  1  0.11034564  0.67070847  0.78485227  1
  O2-  O393  1  0.07024903  0.91343298  0.15340000  1
  O2-  O394  1  0.08725397  0.91633129  0.47808116  1
  O2-  O395  1  0.08644499  0.88621511  0.81163483  1
  O2-  O396  1  0.32012015  0.16041161  0.14678968  1
  O2-  O397  1  0.34994437  0.18195137  0.46606469  1
  O2-  O398  1  0.34525259  0.17856362  0.81012210  1
  O2-  O399  1  0.32970678  0.41204614  0.14799907  1
  O2-  O400  1  0.35321716  0.43434263  0.46460518  1
  O2-  O401  1  0.33562845  0.41301046  0.82510167  1
  O2-  O402  1  0.34854759  0.66819446  0.14872031  1
  O2-  O403  1  0.29217196  0.58336944  0.44878183  1
  O2-  O404  1  0.34437190  0.66305015  0.80878297  1
  O2-  O405  1  0.32739694  0.90566380  0.15227059  1
  O2-  O406  1  0.34248600  0.90171312  0.48887372  1
  O2-  O407  1  0.33392603  0.91736190  0.81807434  1
  O2-  O408  1  0.55734017  0.15941537  0.16018102  1
  O2-  O409  1  0.59307460  0.17424960  0.47667886  1
  O2-  O410  1  0.58739210  0.16465453  0.82643795  1
  O2-  O411  1  0.57679177  0.40845726  0.15340643  1
  O2-  O412  1  0.57505027  0.41188077  0.47658199  1
  O2-  O413  1  0.58044677  0.41472028  0.81757832  1
  O2-  O414  1  0.58355672  0.66013351  0.14796109  1
  O2-  O415  1  0.56165780  0.67562907  0.48189542  1
  O2-  O416  1  0.58095727  0.65571450  0.81144828  1
  O2-  O417  1  0.56566968  0.90635795  0.13303112  1
  O2-  O418  1  0.60979092  0.94077146  0.47847568  1
  O2-  O419  1  0.57886581  0.90307956  0.81223515  1
  O2-  O420  1  0.80507700  0.16415551  0.14510171  1
  O2-  O421  1  0.82325706  0.16329642  0.47529060  1
  O2-  O422  1  0.79623076  0.13081067  0.81814563  1
  O2-  O423  1  0.85564948  0.43453570  0.15434017  1
  O2-  O424  1  0.83661585  0.41453613  0.47041724  1
  O2-  O425  1  0.83504152  0.43743124  0.82911078  1
  O2-  O426  1  0.80814339  0.65308597  0.14905198  1
  O2-  O427  1  0.85204958  0.65792788  0.48488311  1
  O2-  O428  1  0.81189583  0.65584451  0.80837939  1
  O2-  O429  1  0.87275884  0.93928348  0.13502902  1
  O2-  O430  1  0.86537198  0.93846430  0.47452624  1
  O2-  O431  1  0.82868440  0.91811353  0.81120019  1
  O2-  O432  1  0.15333583  0.08536219  0.18781796  1
  O2-  O433  1  0.21512311  0.05952111  0.53449151  1
  O2-  O434  1  0.18569170  0.10472832  0.84082194  1
  O2-  O435  1  0.17169895  0.33245650  0.20105005  1
  O2-  O436  1  0.20691655  0.40614916  0.51587869  1
  O2-  O437  1  0.16195223  0.34204473  0.85984860  1
  O2-  O438  1  0.18467134  0.57046212  0.18549430  1
  O2-  O439  1  0.15799440  0.56647953  0.49719588  1
  O2-  O440  1  0.17896768  0.58417749  0.84650874  1
  O2-  O441  1  0.16147301  0.82145713  0.15310145  1
  O2-  O442  1  0.16693600  0.82676492  0.51820933  1
  O2-  O443  1  0.18361223  0.80784825  0.86123769  1
  O2-  O444  1  0.39804488  0.07532984  0.19715641  1
  O2-  O445  1  0.42467353  0.06545529  0.52402269  1
  O2-  O446  1  0.42089582  0.08705451  0.85965007  1
  O2-  O447  1  0.40985158  0.32673402  0.18833994  1
  O2-  O448  1  0.41306767  0.34440618  0.51834751  1
  O2-  O449  1  0.42157664  0.33468364  0.86276552  1
  O2-  O450  1  0.42037894  0.57656920  0.18908743  1
  O2-  O451  1  0.40582478  0.65483360  0.53366499  1
  O2-  O452  1  0.42124139  0.57961476  0.85579858  1
  O2-  O453  1  0.41491329  0.83036479  0.19035621  1
  O2-  O454  1  0.41475827  0.80625017  0.54635731  1
  O2-  O455  1  0.41378309  0.82991208  0.85041985  1
  O2-  O456  1  0.63998447  0.06049867  0.17855769  1
  O2-  O457  1  0.67083189  0.09321058  0.52362135  1
  O2-  O458  1  0.63698684  0.05770164  0.87580511  1
  O2-  O459  1  0.64862949  0.32480252  0.18831991  1
  O2-  O460  1  0.66857433  0.33990395  0.51648309  1
  O2-  O461  1  0.66621875  0.33323548  0.86875224  1
  O2-  O462  1  0.65360834  0.57035431  0.19346209  1
  O2-  O463  1  0.63215250  0.57323938  0.52582531  1
  O2-  O464  1  0.65518404  0.57549052  0.86058969  1
  O2-  O465  1  0.65926608  0.82751686  0.18772298  1
  O2-  O466  1  0.67387762  0.83325095  0.52026830  1
  O2-  O467  1  0.65978961  0.82190137  0.84750421  1
  O2-  O468  1  0.90569036  0.09618514  0.19362751  1
  O2-  O469  1  0.90973600  0.09135291  0.51929045  1
  O2-  O470  1  0.91665252  0.08117966  0.85646062  1
  O2-  O471  1  0.93807391  0.34933049  0.19971322  1
  O2-  O472  1  0.92100933  0.33002040  0.50797194  1
  O2-  O473  1  0.94218789  0.37526960  0.86001600  1
  O2-  O474  1  0.93128422  0.60486139  0.19788741  1
  O2-  O475  1  0.92727313  0.57217990  0.52036238  1
  O2-  O476  1  0.89813083  0.59318090  0.87393222  1
  O2-  O477  1  0.90033610  0.81908612  0.18638291  1
  O2-  O478  1  0.92262729  0.82116127  0.53180131  1
  O2-  O479  1  0.91091244  0.82681878  0.80904867  1
  O2-  O480  1  0.16543078  0.09042612  0.31075163  1
  O2-  O481  1  0.17343011  0.08645480  0.65719839  1
  O2-  O482  1  0.18799311  0.06013048  0.95723348  1
  O2-  O483  1  0.16589251  0.35083010  0.32835202  1
  O2-  O484  1  0.16276941  0.33945296  0.63745110  1
  O2-  O485  1  0.14294727  0.35769458  0.98754724  1
  O2-  O486  1  0.17778300  0.58190633  0.31152243  1
  O2-  O487  1  0.17534979  0.59845595  0.62289579  1
  O2-  O488  1  0.14806630  0.55592816  0.96857982  1
  O2-  O489  1  0.16964046  0.83400219  0.32191102  1
  O2-  O490  1  0.17404044  0.84172864  0.63893651  1
  O2-  O491  1  0.15739944  0.83025147  0.99367266  1
  O2-  O492  1  0.42540246  0.08635922  0.36345967  1
  O2-  O493  1  0.43003297  0.08572772  0.65078823  1
  O2-  O494  1  0.41239496  0.07673281  0.98392441  1
  O2-  O495  1  0.41518535  0.33890441  0.30955370  1
  O2-  O496  1  0.41942703  0.32966041  0.64771082  1
  O2-  O497  1  0.41553799  0.33611714  0.98653816  1
  O2-  O498  1  0.41989140  0.58022724  0.31017540  1
  O2-  O499  1  0.38376384  0.53071489  0.65503604  1
  O2-  O500  1  0.40574633  0.56921402  0.97814473  1
  O2-  O501  1  0.43042601  0.84067581  0.31364066  1
  O2-  O502  1  0.41238053  0.83289472  0.66706906  1
  O2-  O503  1  0.35874610  0.79440408  0.96871703  1
  O2-  O504  1  0.71411206  0.10666004  0.32397038  1
  O2-  O505  1  0.66767711  0.09269748  0.64898497  1
  O2-  O506  1  0.67743652  0.14487224  0.99566143  1
  O2-  O507  1  0.67736090  0.33647959  0.30382697  1
  O2-  O508  1  0.66062104  0.34028696  0.64409164  1
  O2-  O509  1  0.68052725  0.34547157  0.99125145  1
  O2-  O510  1  0.65775449  0.57977130  0.31737021  1
  O2-  O511  1  0.66442703  0.57746875  0.64383156  1
  O2-  O512  1  0.65943771  0.57226762  0.97727327  1
  O2-  O513  1  0.66074274  0.82793546  0.31103911  1
  O2-  O514  1  0.59641807  0.80058889  0.62976977  1
  O2-  O515  1  0.68211945  0.78196133  0.96606418  1
  O2-  O516  1  0.89266868  0.09268186  0.31310405  1
  O2-  O517  1  0.91824148  0.08482474  0.64389338  1
  O2-  O518  1  0.90542500  0.07813633  0.98257232  1
  O2-  O519  1  0.89777034  0.31947493  0.30639148  1
  O2-  O520  1  0.93262254  0.32163678  0.63824063  1
  O2-  O521  1  0.93955218  0.34763530  0.97774768  1
  O2-  O522  1  0.91900628  0.58187480  0.31731849  1
  O2-  O523  1  0.92187903  0.57274630  0.64410624  1
  O2-  O524  1  0.91148558  0.58620646  0.99656996  1
  O2-  O525  1  0.94046084  0.80384241  0.29918223  1
  O2-  O526  1  0.92524713  0.83172326  0.65820580  1
  O2-  O527  1  0.90144237  0.83144179  0.98615005  1
  O2-  O528  1  0.06598131  0.18404461  0.03478493  1
  O2-  O529  1  0.05560250  0.13223013  0.35728986  1
  O2-  O530  1  0.08911486  0.17771436  0.68340808  1
  O2-  O531  1  0.10585887  0.40571316  0.01672487  1
  O2-  O532  1  0.08818154  0.42555076  0.38361369  1
  O2-  O533  1  0.08185530  0.40404434  0.68237849  1
  O2-  O534  1  0.08322242  0.66115089  0.01927914  1
  O2-  O535  1  0.07531171  0.67440922  0.36432881  1
  O2-  O536  1  0.09352893  0.67206768  0.66040490  1
  O2-  O537  1  0.06788494  0.91502000  0.02663008  1
  O2-  O538  1  0.09254525  0.92226854  0.35504985  1
  O2-  O539  1  0.09001472  0.91563920  0.69270873  1
  O2-  O540  1  0.33527620  0.17033854  0.02412090  1
  O2-  O541  1  0.32992425  0.17441401  0.35035048  1
  O2-  O542  1  0.34071016  0.16590751  0.68904074  1
  O2-  O543  1  0.31051748  0.40962420  0.02276997  1
  O2-  O544  1  0.34544602  0.42592663  0.35465568  1
  O2-  O545  1  0.30601991  0.35993436  0.71323113  1
  O2-  O546  1  0.40807281  0.70606089  0.03346707  1
  O2-  O547  1  0.34321608  0.66676761  0.34037590  1
  O2-  O548  1  0.32929804  0.65709569  0.68184262  1
  O2-  O549  1  0.33044908  0.91241051  0.02753945  1
  O2-  O550  1  0.34553229  0.91588806  0.36613827  1
  O2-  O551  1  0.33178747  0.92329711  0.69614558  1
  O2-  O552  1  0.56076279  0.18822602  0.04868552  1
  O2-  O553  1  0.61141236  0.17282474  0.35147619  1
  O2-  O554  1  0.59306333  0.17779709  0.69932918  1
  O2-  O555  1  0.58067536  0.41987029  0.02161647  1
  O2-  O556  1  0.58034639  0.40972649  0.34992691  1
  O2-  O557  1  0.57934521  0.41892473  0.69149203  1
  O2-  O558  1  0.55325044  0.68445274  0.03403726  1
  O2-  O559  1  0.57699250  0.66664514  0.35990393  1
  O2-  O560  1  0.57014876  0.64765551  0.68891070  1
  O2-  O561  1  0.58234707  0.95948557  0.00214111  1
  O2-  O562  1  0.59927949  0.93048021  0.35292997  1
  O2-  O563  1  0.58483177  0.92836068  0.69088949  1
  O2-  O564  1  0.84016978  0.17840045  0.01946918  1
  O2-  O565  1  0.80093279  0.16015938  0.34975440  1
  O2-  O566  1  0.83370630  0.16121719  0.68905696  1
  O2-  O567  1  0.84963713  0.42011015  0.02779715  1
  O2-  O568  1  0.83504923  0.41490410  0.34511450  1
  O2-  O569  1  0.82466160  0.42462151  0.70576511  1
  O2-  O570  1  0.80971287  0.65315318  0.02505854  1
  O2-  O571  1  0.82905408  0.65444513  0.35913894  1
  O2-  O572  1  0.83373811  0.65287902  0.68549680  1
  O2-  O573  1  0.82363987  0.91306533  0.02363366  1
  O2-  O574  1  0.82726549  0.92342621  0.35254681  1
  O2-  O575  1  0.83867111  0.91626681  0.68316394  1
