# generated using pymatgen
data_H2O
_symmetry_space_group_name_H-M   'P 1'
_cell_length_a   17.98291438
_cell_length_b   17.98599726
_cell_length_c   22.00091814
_cell_angle_alpha   89.98025357
_cell_angle_beta   90.00140154
_cell_angle_gamma   120.02345341
_symmetry_Int_Tables_number   1
_chemical_formula_structural   H2O
_chemical_formula_sum   'H384 O192'
_cell_volume   6161.17178419
_cell_formula_units_Z   192
loop_
 _symmetry_equiv_pos_site_id
 _symmetry_equiv_pos_as_xyz
  1  'x, y, z'
loop_
 _atom_type_symbol
 _atom_type_oxidation_number
  H+  1.0
  O2-  -2.0
loop_
 _atom_site_type_symbol
 _atom_site_label
 _atom_site_symmetry_multiplicity
 _atom_site_fract_x
 _atom_site_fract_y
 _atom_site_fract_z
 _atom_site_occupancy
  H+  H0  1  0.71362971  0.61057764  0.65783341  1
  H+  H1  1  0.63319866  0.02395721  0.96710242  1
  H+  H2  1  0.72149891  0.36443205  0.63959134  1
  H+  H3  1  0.58679051  0.72336704  1.00612231  1
  H+  H4  1  0.77169048  0.64414910  0.16455592  1
  H+  H5  1  0.86973667  0.63117554  0.82575583  1
  H+  H6  1  0.26345270  0.49439671  0.89039487  1
  H+  H7  1  0.91031257  0.84063957  0.27359133  1
  H+  H8  1  0.60043473  0.88329168  0.19887158  1
  H+  H9  1  1.07537418  0.54810100  0.29355435  1
  H+  H10  1  0.37719259  0.62466638  0.65953391  1
  H+  H11  1  0.85659921  1.01332107  0.50722238  1
  H+  H12  1  0.12364853  0.35625097  0.82871046  1
  H+  H13  1  0.37333692  0.41600463  0.33116431  1
  H+  H14  1  0.37156172  0.88895861  0.85477572  1
  H+  H15  1  0.61557315  0.14632768  0.19272463  1
  H+  H16  1  0.48922023  0.86780512  0.19312300  1
  H+  H17  1  0.83985668  0.48925827  0.64956045  1
  H+  H18  1  0.60109538  0.72049097  0.67048258  1
  H+  H19  1  0.60597098  0.88587572  0.66553994  1
  H+  H20  1  0.50023423  0.65461452  0.84020816  1
  H+  H21  1  0.92883858  0.10428154  0.26952855  1
  H+  H22  1  0.88374694  0.78350092  0.17640817  1
  H+  H23  1  -0.01969119  0.60736603  0.17476237  1
  H+  H24  1  0.64812128  0.11856210  0.96628979  1
  H+  H25  1  0.11703078  0.47438557  0.33286846  1
  H+  H26  1  0.59818898  0.63785887  0.48777067  1
  H+  H27  1  0.52991218  0.13768395  0.82061149  1
  H+  H28  1  0.36829027  0.53351114  0.64735125  1
  H+  H29  1  0.79692827  0.39339164  0.35472379  1
  H+  H30  1  0.66624452  0.13233393  0.33597190  1
  H+  H31  1  0.77107443  0.38428756  0.17846867  1
  H+  H32  1  0.64152579  0.86356945  0.83022106  1
  H+  H33  1  0.35988500  0.74546460  0.84062992  1
  H+  H34  1  0.12673703  0.01922879  0.84953369  1
  H+  H35  1  0.77723909  0.13544300  1.00381515  1
  H+  H36  1  0.66353562  0.59691772  0.26925357  1
  H+  H37  1  0.14067336  0.01206305  0.49011080  1
  H+  H38  1  0.49795799  0.64897161  0.27261310  1
  H+  H39  1  0.36747289  0.21942930  0.01917132  1
  H+  H40  1  0.58845693  0.66344375  0.76431158  1
  H+  H41  1  0.15331899  0.68395961  0.36965020  1
  H+  H42  1  0.86825015  -0.02587415  0.82980338  1
  H+  H43  1  0.92796667  0.11187521  0.49981692  1
  H+  H44  1  0.88816462  0.36055633  0.18893140  1
  H+  H45  1  0.10976412  0.91425688  0.16450297  1
  H+  H46  1  0.40774788  0.97729224  0.32864082  1
  H+  H47  1  0.11988176  0.15995201  0.65659910  1
  H+  H48  1  0.72066397  0.86677007  0.33631476  1
  H+  H49  1  0.23040953  0.14030934  0.62491946  1
  H+  H50  1  0.84116366  0.75287066  0.36035959  1
  H+  H51  1  0.63108215  0.62024155  0.17657551  1
  H+  H52  1  0.47297735  0.86029571  0.51165788  1
  H+  H53  1  0.25984324  0.12631357  0.16787907  1
  H+  H54  1  1.02969418  0.40666368  0.66017825  1
  H+  H55  1  0.10448065  0.87105080  0.48025868  1
  H+  H56  1  0.75236283  0.66426992  0.36129908  1
  H+  H57  1  0.25068288  0.63530871  0.50966582  1
  H+  H58  1  0.89136383  0.62097817  1.00511782  1
  H+  H59  1  -0.01149823  0.14144014  0.18364134  1
  H+  H60  1  0.60370107  0.36610779  0.47750147  1
  H+  H61  1  0.89752060  0.12809978  0.33794217  1
  H+  H62  1  0.59990688  0.40356006  0.32252345  1
  H+  H63  1  0.40911539  0.39913469  0.17989398  1
  H+  H64  1  0.06526743  0.55042343  0.95419104  1
  H+  H65  1  0.39549528  0.35966015  0.65976042  1
  H+  H66  1  0.88816470  0.26587500  0.99832842  1
  H+  H67  1  0.66826149  0.84223562  0.24338514  1
  H+  H68  1  0.31492902  0.44495980  0.21817113  1
  H+  H69  1  0.40246780  0.10629587  0.63644752  1
  H+  H70  1  0.27005346  0.62380525  1.00572698  1
  H+  H71  1  0.22617072  0.12297632  0.32878593  1
  H+  H72  1  0.46211147  0.62150169  0.49547294  1
  H+  H73  1  0.51055810  0.63402886  0.67037221  1
  H+  H74  1  0.00419299  0.61255385  0.51786494  1
  H+  H75  1  0.00883438  0.37266633  -0.00030864  1
  H+  H76  1  0.15425556  0.10177796  0.46730890  1
  H+  H77  1  0.03205185  0.64212644  0.82930076  1
  H+  H78  1  0.13518735  0.28684550  0.65445123  1
  H+  H79  1  0.77896901  0.88557276  0.82895654  1
  H+  H80  1  0.08655720  0.91825324  0.73747152  1
  H+  H81  1  0.12139662  0.64247789  0.82548416  1
  H+  H82  1  0.91795722  0.76917752  0.64274378  1
  H+  H83  1  0.66676181  0.86225343  0.99288280  1
  H+  H84  1  0.23163759  0.87629749  0.31414555  1
  H+  H85  1  0.62411605  0.61059401  0.66304487  1
  H+  H86  1  0.89433385  0.47420068  0.35107843  1
  H+  H87  1  0.75345411  0.39923270  0.49452205  1
  H+  H88  1  0.70979449  0.85974641  0.66048606  1
  H+  H89  1  0.13577579  0.69207743  0.17957029  1
  H+  H90  1  0.14119084  0.53747879  0.66437472  1
  H+  H91  1  0.62202198  0.13043214  0.49273272  1
  H+  H92  1  0.38233091  0.85644392  0.16811804  1
  H+  H93  1  0.02813336  0.15218647  0.66467021  1
  H+  H94  1  0.36940393  0.21554780  0.65235375  1
  H+  H95  1  0.36288941  0.96929051  0.15929851  1
  H+  H96  1  0.02762212  0.39263610  0.81898459  1
  H+  H97  1  0.90122673  0.37906270  0.62476815  1
  H+  H98  1  0.39064481  0.26108721  0.50239273  1
  H+  H99  1  0.09330303  0.62533922  0.53379065  1
  H+  H100  1  0.29858504  0.67586837  0.33644546  1
  H+  H101  1  0.13038355  0.76927655  0.43793169  1
  H+  H102  1  0.38168324  0.85715443  0.51060805  1
  H+  H103  1  0.36668436  0.98621541  0.68404804  1
  H+  H104  1  0.91538303  0.82902891  0.93424297  1
  H+  H105  1  0.64762134  0.27111788  0.34307466  1
  H+  H106  1  0.52855343  0.40136662  0.16483965  1
  H+  H107  1  0.45171144  0.57780123  0.18296487  1
  H+  H108  1  0.08251850  0.92095929  0.39669628  1
  H+  H109  1  0.57370065  0.16763271  -0.08586531  1
  H+  H110  1  0.34664337  0.71430292  -0.01138711  1
  H+  H111  1  0.12939610  0.64387097  0.67699742  1
  H+  H112  1  0.36235265  0.32127124  0.79767565  1
  H+  H113  1  0.70101230  0.36222310  0.79011061  1
  H+  H114  1  0.63026110  0.85813659  0.50894957  1
  H+  H115  1  0.88619153  0.85484450  0.83732134  1
  H+  H116  1  0.51422321  0.90719040  0.00353049  1
  H+  H117  1  0.13390611  0.04580637  0.17481650  1
  H+  H118  1  0.13103147  0.38797867  0.34101853  1
  H+  H119  1  0.73101500  0.12103550  0.17523915  1
  H+  H120  1  0.88222758  0.87225979  0.18016203  1
  H+  H121  1  0.28366072  0.12353050  0.48351670  1
  H+  H122  1  0.12068195  0.44928209  0.14745036  1
  H+  H123  1  0.84247763  0.41785932  -0.04972216  1
  H+  H124  1  0.87103667  0.38174188  0.86287944  1
  H+  H125  1  0.61384659  0.97390925  0.49651970  1
  H+  H126  1  0.49044011  0.10691028  0.64907540  1
  H+  H127  1  0.83098042  0.16603311  0.06714947  1
  H+  H128  1  0.63524538  0.53319358  0.17539612  1
  H+  H129  1  0.38812532  0.76774442  0.16588352  1
  H+  H130  1  0.17314099  0.41127570  0.23952689  1
  H+  H131  1  0.22713299  0.11475755  0.00050020  1
  H+  H132  1  0.39994394  0.65692123  0.14989442  1
  H+  H133  1  0.97168260  0.87434406  0.33127020  1
  H+  H134  1  0.88440454  0.89685080  0.00959710  1
  H+  H135  1  0.66049641  0.35679438  0.37150456  1
  H+  H136  1  0.85774569  0.88524965  0.49867202  1
  H+  H137  1  0.51833150  0.38531921  0.81807998  1
  H+  H138  1  0.88556221  0.22681082  0.36067310  1
  H+  H139  1  0.63597002  0.28377583  0.20227899  1
  H+  H140  1  0.89454619  0.27169958  0.83419219  1
  H+  H141  1  0.90640897  0.08629015  0.59456282  1
  H+  H142  1  0.03172341  0.14845330  0.00029210  1
  H+  H143  1  1.01460080  0.60664781  0.33191408  1
  H+  H144  1  0.61327332  0.47798252  0.67119218  1
  H+  H145  1  0.34462780  0.81449790  0.35703736  1
  H+  H146  1  0.11592936  0.89123886  0.83647621  1
  H+  H147  1  0.12495442  0.65761395  0.01394969  1
  H+  H148  1  0.12215840  0.14486493  1.00386652  1
  H+  H149  1  0.46832886  0.10641290  0.19303736  1
  H+  H150  1  0.36665093  0.46915223  -0.01341502  1
  H+  H151  1  0.25009436  0.39210245  0.32527407  1
  H+  H152  1  0.12635505  0.74640313  0.34007947  1
  H+  H153  1  0.85192498  0.61794307  0.71070402  1
  H+  H154  1  0.57620662  0.41591049  0.39190608  1
  H+  H155  1  0.63411715  0.78751659  0.18185717  1
  H+  H156  1  0.35533721  0.63877242  0.49042057  1
  H+  H157  1  0.88934441  0.52365778  0.17944154  1
  H+  H158  1  0.23390339  0.62883455  0.67162683  1
  H+  H159  1  0.03334467  0.38032025  0.35142606  1
  H+  H160  1  -0.02374524  0.10925388  0.83399654  1
  H+  H161  1  0.39646198  0.10847150  0.84706248  1
  H+  H162  1  0.57978710  0.17805032  0.14074200  1
  H+  H163  1  0.10091296  0.47074361  -0.00498233  1
  H+  H164  1  0.79674949  0.13985621  0.35611780  1
  H+  H165  1  0.12796205  0.26093423  0.20641008  1
  H+  H166  1  0.86454024  0.14196708  0.16269213  1
  H+  H167  1  0.23512418  0.62152368  0.83778613  1
  H+  H168  1  0.63993444  0.03603427  0.18978922  1
  H+  H169  1  0.48194319  0.35421464  0.00532547  1
  H+  H170  1  0.89988585  0.29233992  0.64082328  1
  H+  H171  1  0.62948817  0.77532938  0.32696805  1
  H+  H172  1  0.10812868  0.98228669  0.01077940  1
  H+  H173  1  0.62739725  0.53677677  0.32825784  1
  H+  H174  1  0.38856761  0.00728617  0.49588127  1
  H+  H175  1  0.86099997  0.22785172  0.16489248  1
  H+  H176  1  0.73014338  0.37161607  0.99040460  1
  H+  H177  1  0.11116918  0.13770542  0.34636420  1
  H+  H178  1  0.64756501  0.11612699  0.82651045  1
  H+  H179  1  0.37861643  0.29487161  0.33077750  1
  H+  H180  1  0.12782236  0.80540311  0.15570471  1
  H+  H181  1  0.88608110  0.04007966  0.65934242  1
  H+  H182  1  0.33418326  0.91298703  0.09720602  1
  H+  H183  1  0.63248341  0.52336928  0.84854264  1
  H+  H184  1  0.24089119  0.87719219  0.67788644  1
  H+  H185  1  0.87235805  0.14032692  0.81811752  1
  H+  H186  1  0.62454532  0.76680617  0.50385791  1
  H+  H187  1  0.16199759  0.32264753  0.92010766  1
  H+  H188  1  0.80203643  0.90448805  0.01225971  1
  H+  H189  1  0.14616920  0.52872289  0.82910853  1
  H+  H190  1  0.40252891  0.47203822  0.70626473  1
  H+  H191  1  0.27814600  0.48836067  0.85984367  1
  H+  H192  1  0.47580716  0.11013533  0.98878856  1
  H+  H193  1  0.01650865  0.90492490  0.16670829  1
  H+  H194  1  0.89207347  0.35892311  0.99376143  1
  H+  H195  1  0.85704042  0.72774167  0.00837176  1
  H+  H196  1  0.44538437  0.50435946  0.79365210  1
  H+  H197  1  0.36035964  0.12741544  1.01464322  1
  H+  H198  1  0.41732242  0.30882043  0.74877460  1
  H+  H199  1  0.78222268  0.38340902  0.86087626  1
  H+  H200  1  0.64117994  0.61699684  0.84460212  1
  H+  H201  1  0.99035231  0.86400414  0.65836664  1
  H+  H202  1  0.62509685  0.14006383  0.66848403  1
  H+  H203  1  0.12082841  0.88992451  0.68139956  1
  H+  H204  1  0.35761058  0.20470312  0.81566050  1
  H+  H205  1  0.84572884  0.88739067  0.34488975  1
  H+  H206  1  0.89681373  0.12157068  0.99462813  1
  H+  H207  1  0.60566971  0.64609971  0.01260860  1
  H+  H208  1  0.59615516  0.43435971  0.07350057  1
  H+  H209  1  0.61861409  0.23371600  0.96747801  1
  H+  H210  1  0.90570256  0.03743812  0.99588955  1
  H+  H211  1  0.48618922  0.36069763  0.66363145  1
  H+  H212  1  0.02321071  0.88384070  0.83380012  1
  H+  H213  1  0.78089295  0.62826779  0.81997728  1
  H+  H214  1  0.13829838  0.03107547  0.32655355  1
  H+  H215  1  0.47078440  0.38065901  0.32765384  1
  H+  H216  1  0.15265424  0.58337673  0.16087088  1
  H+  H217  1  0.05853791  0.13195105  0.50927043  1
  H+  H218  1  0.22912478  0.33099105  0.80684376  1
  H+  H219  1  0.51627715  0.36921543  0.47900433  1
  H+  H220  1  0.87545295  0.15485850  0.66067082  1
  H+  H221  1  0.70439157  0.60009720  0.50773806  1
  H+  H222  1  0.62041638  0.98028278  0.81949820  1
  H+  H223  1  0.89207218  0.63641386  0.34426715  1
  H+  H224  1  0.62379722  0.40274815  1.01287079  1
  H+  H225  1  0.73891322  0.12145401  0.65655385  1
  H+  H226  1  0.42622506  0.06652068  0.55475331  1
  H+  H227  1  0.64457815  0.26614438  0.49816492  1
  H+  H228  1  0.52979907  0.12465396  0.48910171  1
  H+  H229  1  0.87340313  0.48200571  1.00460842  1
  H+  H230  1  0.02259909  0.88472884  0.49149697  1
  H+  H231  1  0.35136658  0.11431705  0.17013427  1
  H+  H232  1  0.63203295  0.36057107  0.65138417  1
  H+  H233  1  0.38657860  0.04675015  0.34987680  1
  H+  H234  1  0.63859500  0.52473637  0.99824908  1
  H+  H235  1  0.89974250  0.52685073  0.86132208  1
  H+  H236  1  0.46994135  0.86631633  0.66263473  1
  H+  H237  1  0.58057872  0.84704291  0.96674898  1
  H+  H238  1  0.13110313  0.24735694  -0.01146076  1
  H+  H239  1  0.21607874  0.10699250  0.85189067  1
  H+  H240  1  0.92780717  0.33378671  0.28806090  1
  H+  H241  1  0.11785402  0.40670035  0.66350772  1
  H+  H242  1  0.57587317  0.90994969  0.43949694  1
  H+  H243  1  0.99488601  0.12748430  0.33242704  1
  H+  H244  1  0.90566985  0.36306637  0.35149660  1
  H+  H245  1  0.13500725  0.74248666  0.67793585  1
  H+  H246  1  0.11238504  0.89661568  0.33506545  1
  H+  H247  1  0.77103022  0.97720022  0.71397394  1
  H+  H248  1  0.60781634  0.38827673  0.82790008  1
  H+  H249  1  0.36334284  -0.02469408  1.00511174  1
  H+  H250  1  0.63046547  0.73100573  0.81919154  1
  H+  H251  1  0.98428747  0.62928743  1.01069885  1
  H+  H252  1  0.42107665  0.48933505  0.82314766  1
  H+  H253  1  0.37059161  0.17146254  0.33031866  1
  H+  H254  1  0.23356531  0.35332262  0.97462825  1
  H+  H255  1  0.56365014  0.92208138  0.25215157  1
  H+  H256  1  0.28555217  0.89393791  0.84300143  1
  H+  H257  1  0.07135359  0.16165639  0.40490187  1
  H+  H258  1  0.38048186  0.60058124  0.98609788  1
  H+  H259  1  0.35908954  0.73244486  0.49857857  1
  H+  H260  1  0.11067704  0.25928284  0.83115870  1
  H+  H261  1  0.61837108  0.40140291  0.16984399  1
  H+  H262  1  0.83943828  0.41809891  0.68894098  1
  H+  H263  1  0.88805067  0.76648128  0.83588838  1
  H+  H264  1  0.22777545  0.87537774  0.16207045  1
  H+  H265  1  0.44010950  0.88813670  0.36322290  1
  H+  H266  1  0.73115511  0.62026976  -0.00484270  1
  H+  H267  1  0.28948152  0.77289010  0.92839751  1
  H+  H268  1  0.22366667  0.37469808  0.64694796  1
  H+  H269  1  0.59991525  0.86654656  0.34387628  1
  H+  H270  1  0.79082665  0.10061353  0.50754561  1
  H+  H271  1  0.13113188  0.87140210  1.00307483  1
  H+  H272  1  0.64797024  1.02920901  0.65795782  1
  H+  H273  1  0.76338856  0.87552059  0.50028988  1
  H+  H274  1  0.36248120  0.73883707  0.67669614  1
  H+  H275  1  0.14479449  0.78191039  0.84647430  1
  H+  H276  1  0.09072045  0.22802083  0.49423556  1
  H+  H277  1  0.09466087  0.67664179  0.73930899  1
  H+  H278  1  0.48705784  0.88318019  -0.06652411  1
  H+  H279  1  1.04213780  0.46640044  0.50392756  1
  H+  H280  1  0.60024123  0.63693711  0.32924808  1
  H+  H281  1  0.94491344  0.65244215  0.62649879  1
  H+  H282  1  0.85970352  0.59496952  0.35893453  1
  H+  H283  1  0.33876648  0.93416877  0.74809849  1
  H+  H284  1  0.90292606  0.04523586  0.17946499  1
  H+  H285  1  0.56906062  0.66852060  0.42801242  1
  H+  H286  1  0.97409241  0.35655190  0.18134906  1
  H+  H287  1  0.97646939  0.86115180  0.99389872  1
  H+  H288  1  0.66656620  0.58443619  0.92847796  1
  H+  H289  1  0.93001664  0.84092932  0.56584652  1
  H+  H290  1  0.16609998  0.83735787  0.90777977  1
  H+  H291  1  0.16744004  0.33723105  0.55794736  1
  H+  H292  1  0.67295888  0.36336196  0.93372205  1
  H+  H293  1  0.28999551  0.33765886  0.50561762  1
  H+  H294  1  0.65660088  0.82756618  0.89153460  1
  H+  H295  1  0.11487604  0.75047103  0.50646400  1
  H+  H296  1  0.08491443  0.42460455  0.75786237  1
  H+  H297  1  0.82403773  0.66937811  0.06927475  1
  H+  H298  1  0.67685614  0.35312220  0.25415591  1
  H+  H299  1  0.10396340  0.66542410  0.11062063  1
  H+  H300  1  0.82463955  0.36893115  0.75973919  1
  H+  H301  1  0.86074425  0.64413281  0.16478760  1
  H+  H302  1  0.55473345  0.15341635  0.06701658  1
  H+  H303  1  0.95573282  0.39343425  0.52843627  1
  H+  H304  1  0.83608073  0.61545690  0.54999854  1
  H+  H305  1  0.82036234  0.93280430  0.73873033  1
  H+  H306  1  0.55607530  0.66919070  0.11064570  1
  H+  H307  1  0.95712330  0.56825060  0.27179977  1
  H+  H308  1  0.81384604  0.51013543  0.48844035  1
  H+  H309  1  0.65882727  0.32517370  0.55716366  1
  H+  H310  1  0.39419502  0.34764101  0.98761280  1
  H+  H311  1  0.59277164  0.14602452  0.06824164  1
  H+  H312  1  0.84237302  0.41684148  0.76436717  1
  H+  H313  1  0.18739669  0.60176753  0.57963272  1
  H+  H314  1  0.30161961  0.69054987  0.40720083  1
  H+  H315  1  0.31180229  0.12645304  0.68562568  1
  H+  H316  1  0.59193778  0.15919754  0.40254334  1
  H+  H317  1  0.59087000  0.42110080  0.73151216  1
  H+  H318  1  0.64210030  0.27452495  0.82295613  1
  H+  H319  1  0.16354164  0.10852098  0.57273995  1
  H+  H320  1  0.46950914  0.60323390  0.99318115  1
  H+  H321  1  0.16522925  0.08570988  0.94081282  1
  H+  H322  1  0.77812434  0.90802802  0.16839481  1
  H+  H323  1  0.67951043  0.08618534  0.56834214  1
  H+  H324  1  0.07363885  0.92672365  0.07120038  1
  H+  H325  1  0.15111589  0.54925063  0.25346650  1
  H+  H326  1  0.58461675  0.92066803  0.72581934  1
  H+  H327  1  0.37969787  0.67097968  0.83297497  1
  H+  H328  1  0.31636534  0.39004664  0.72117996  1
  H+  H329  1  0.08050696  0.40790178  0.05838353  1
  H+  H330  1  0.42306531  0.32255626  0.55931628  1
  H+  H331  1  0.53150752  0.89202657  0.82301191  1
  H+  H332  1  0.34439142  0.87814899  -0.00409601  1
  H+  H333  1  0.30534147  0.11095569  0.78818308  1
  H+  H334  1  0.53860621  0.12625217  0.34025690  1
  H+  H335  1  0.92222877  0.08846605  0.89582451  1
  H+  H336  1  0.34230803  0.89137213  0.43166481  1
  H+  H337  1  0.40425537  0.59594870  0.55500306  1
  H+  H338  1  0.68193630  0.08726498  0.88408432  1
  H+  H339  1  0.90019547  0.78077086  0.50685187  1
  H+  H340  1  0.93357057  0.60149848  0.90870980  1
  H+  H341  1  0.62885581  0.98208095  0.09015709  1
  H+  H342  1  0.16901967  0.84611100  0.25755752  1
  H+  H343  1  0.17356884  0.10015022  0.23614761  1
  H+  H344  1  0.40126804  0.02157584  0.84767784  1
  H+  H345  1  0.78459405  0.14165410  0.81375270  1
  H+  H346  1  0.37385377  0.12426776  0.48398087  1
  H+  H347  1  0.32494218  0.46074330  0.14883046  1
  H+  H348  1  0.32796619  0.14879961  0.10384261  1
  H+  H349  1  0.35168240  0.66848450  0.09228053  1
  H+  H350  1  0.22225424  0.87355178  1.00169147  1
  H+  H351  1  0.43876687  0.62049710  0.89813717  1
  H+  H352  1  0.40901022  0.83052252  0.60562734  1
  H+  H353  1  0.83940412  0.67817822  0.43756650  1
  H+  H354  1  0.39926695  0.05424503  0.24294778  1
  H+  H355  1  0.14941916  0.57234100  0.91951820  1
  H+  H356  1  0.42497533  0.35170380  0.23262453  1
  H+  H357  1  0.65277732  0.95783178  0.08859479  1
  H+  H358  1  0.58898196  0.16746989  0.75975327  1
  H+  H359  1  0.84147353  0.93352029  0.11105680  1
  H+  H360  1  0.07952909  0.15903607  0.75741630  1
  H+  H361  1  0.33455820  0.40478802  0.04196035  1
  H+  H362  1  0.65494590  0.82358845  0.59865227  1
  H+  H363  1  0.61796522  1.00517175  0.32820685  1
  H+  H364  1  0.12720406  0.18110068  0.17749706  1
  H+  H365  1  0.34151287  0.17480426  0.39833745  1
  H+  H366  1  0.12212602  0.74485426  0.02015627  1
  H+  H367  1  0.83562267  0.44589748  0.44218533  1
  H+  H368  1  0.10702541  0.12911053  0.82054912  1
  H+  H369  1  0.09259966  0.34932138  0.13880332  1
  H+  H370  1  0.26283068  0.86340826  0.47731786  1
  H+  H371  1  0.36292155  0.48595367  0.37042822  1
  H+  H372  1  0.84883854  0.18546370  0.72044769  1
  H+  H373  1  0.19105489  0.84136604  0.61332033  1
  H+  H374  1  0.61792825  0.22586599  0.66635493  1
  H+  H375  1  0.82341406  0.40049898  0.11709233  1
  H+  H376  1  0.92917356  0.32140820  0.89769000  1
  H+  H377  1  0.69932509  0.10811622  0.27633227  1
  H+  H378  1  0.33508511  0.68211376  0.73835291  1
  H+  H379  1  0.41155027  0.07666392  0.93594197  1
  H+  H380  1  0.24298516  0.58697039  0.16270825  1
  H+  H381  1  0.64659856  0.58705622  0.56442789  1
  H+  H382  1  0.81308026  0.90877969  0.40598816  1
  H+  H383  1  0.22744458  0.26497764  0.75986763  1
  O2-  O384  1  0.09704256  0.21426918  0.17673587  1
  O2-  O385  1  0.04747697  0.16751014  0.48149086  1
  O2-  O386  1  0.07749012  0.15890263  0.80314644  1
  O2-  O387  1  0.07573282  0.39232770  0.13004938  1
  O2-  O388  1  0.14773680  0.50991746  0.51755058  1
  O2-  O389  1  0.08791440  0.42287796  0.80355477  1
  O2-  O390  1  0.09907242  0.64343946  0.15344668  1
  O2-  O391  1  0.05660759  0.65115698  0.53998966  1
  O2-  O392  1  0.09149264  0.67405925  0.81192201  1
  O2-  O393  1  0.07647323  0.94085885  0.14985213  1
  O2-  O394  1  0.08205371  0.91092264  0.47255531  1
  O2-  O395  1  0.08487538  0.92091258  0.82217393  1
  O2-  O396  1  0.32285123  0.14497510  0.15089628  1
  O2-  O397  1  0.34509575  0.15687850  0.47039101  1
  O2-  O398  1  0.32407212  0.14187403  0.82660740  1
  O2-  O399  1  0.35886542  0.47120332  0.18566982  1
  O2-  O400  1  0.23931011  0.29498679  0.52803070  1
  O2-  O401  1  0.26736076  0.32038077  0.77832942  1
  O2-  O402  1  0.35295949  0.66795632  0.13752737  1
  O2-  O403  1  0.32181502  0.67234941  0.48110998  1
  O2-  O404  1  0.33716272  0.68926429  0.81938627  1
  O2-  O405  1  0.33047608  0.90947134  0.14294602  1
  O2-  O406  1  0.32662712  0.89837631  0.47388893  1
  O2-  O407  1  0.34718234  0.92089482  0.83127633  1
  O2-  O408  1  0.57912850  0.17365646  0.18536616  1
  O2-  O409  1  0.59145350  0.15980498  0.47604041  1
  O2-  O410  1  0.59088072  0.17091790  0.80581398  1
  O2-  O411  1  0.59092595  0.43084416  0.14969520  1
  O2-  O412  1  0.57197940  0.39057163  0.45684452  1
  O2-  O413  1  0.58166538  0.42301419  0.81538033  1
  O2-  O414  1  0.56642444  0.67224377  0.15561176  1
  O2-  O415  1  0.56783640  0.66882781  0.47298678  1
  O2-  O416  1  0.59930464  0.66837733  0.80913238  1
  O2-  O417  1  0.56336795  0.91143532  0.20623069  1
  O2-  O418  1  0.57724536  0.91246535  0.48475395  1
  O2-  O419  1  0.58948270  0.91831821  0.80617827  1
  O2-  O420  1  0.83179614  0.16944786  0.14609731  1
  O2-  O421  1  0.75974107  0.13236322  0.49776156  1
  O2-  O422  1  0.84657012  0.17445637  0.80201032  1
  O2-  O423  1  0.83073046  0.40929078  0.16098225  1
  O2-  O424  1  0.81279803  0.45314637  0.48331323  1
  O2-  O425  1  0.84166582  0.41398787  0.87712332  1
  O2-  O426  1  0.83142876  0.67358913  0.14749273  1
  O2-  O427  1  0.87483523  0.67309836  0.47344131  1
  O2-  O428  1  0.83958640  0.65641488  0.80331546  1
  O2-  O429  1  0.83953722  0.93580552  0.15596534  1
  O2-  O430  1  0.82354694  0.91192168  0.48503228  1
  O2-  O431  1  0.83889549  0.91462921  0.81261416  1
  O2-  O432  1  0.17617974  0.10473160  0.19015653  1
  O2-  O433  1  0.17523909  0.07644394  0.49702389  1
  O2-  O434  1  0.15494107  0.08117586  0.86387927  1
  O2-  O435  1  0.19708806  0.37291212  0.24432662  1
  O2-  O436  1  0.17617235  0.32289302  0.51546048  1
  O2-  O437  1  0.14676250  0.31992166  0.84581069  1
  O2-  O438  1  0.18114937  0.55044262  0.17371124  1
  O2-  O439  1  0.18379330  0.60137586  0.53347967  1
  O2-  O440  1  0.17199941  0.58671615  0.84890028  1
  O2-  O441  1  0.16831282  0.85575553  0.17894787  1
  O2-  O442  1  0.14608276  0.79983059  0.47748289  1
  O2-  O443  1  0.17382554  0.84138371  0.86278842  1
  O2-  O444  1  0.40481860  0.06825729  0.19870853  1
  O2-  O445  1  0.42368273  0.06830179  0.50907370  1
  O2-  O446  1  0.43373968  0.08487182  0.85969492  1
  O2-  O447  1  0.43213784  0.36060175  0.18785346  1
  O2-  O448  1  0.41838391  0.32235904  0.51500496  1
  O2-  O449  1  0.41002679  0.30842218  0.79337705  1
  O2-  O450  1  0.48193627  0.64220864  0.18454136  1
  O2-  O451  1  0.40137994  0.59525277  0.51011977  1
  O2-  O452  1  0.45472522  0.65890316  0.86247513  1
  O2-  O453  1  0.41048516  0.82534586  0.18602270  1
  O2-  O454  1  0.41202036  0.82708787  0.52610972  1
  O2-  O455  1  0.40629495  0.83694552  0.89561656  1
  O2-  O456  1  0.67514322  0.09800821  0.19814940  1
  O2-  O457  1  0.67239446  0.07875812  0.52227353  1
  O2-  O458  1  0.67829071  0.08511125  0.83851493  1
  O2-  O459  1  0.67182746  0.34697293  0.20943350  1
  O2-  O460  1  0.66730413  0.32708398  0.51177186  1
  O2-  O461  1  0.67585991  0.33914410  0.82996810  1
  O2-  O462  1  0.66567307  0.59445101  0.19008825  1
  O2-  O463  1  0.64857209  0.59258220  0.51975000  1
  O2-  O464  1  0.66587400  0.58326142  0.86512611  1
  O2-  O465  1  0.66485457  0.84727222  0.19732707  1
  O2-  O466  1  0.65791403  0.82515320  0.52343163  1
  O2-  O467  1  0.67109929  0.83388065  0.84762736  1
  O2-  O468  1  0.92603273  0.10518832  0.19446305  1
  O2-  O469  1  0.87376867  0.07324299  0.52121851  1
  O2-  O470  1  0.91657332  0.08214045  0.85089274  1
  O2-  O471  1  0.91814332  0.32937279  0.20248786  1
  O2-  O472  1  0.97821065  0.44016886  0.49885320  1
  O2-  O473  1  0.92580395  0.33058691  0.85369569  1
  O2-  O474  1  0.92278434  0.58438293  0.19307217  1
  O2-  O475  1  0.81142860  0.59723623  0.50832731  1
  O2-  O476  1  0.93091932  0.59065257  0.86419386  1
  O2-  O477  1  0.91477952  0.84316695  0.19266856  1
  O2-  O478  1  0.92532668  0.84146366  0.51952542  1
  O2-  O479  1  0.91488634  0.82436320  0.85508850  1
  O2-  O480  1  0.16713006  0.09202313  0.31141173  1
  O2-  O481  1  0.17203313  0.12793533  0.61539350  1
  O2-  O482  1  0.16615780  0.08823571  0.98656294  1
  O2-  O483  1  0.18576538  0.35375737  0.31040578  1
  O2-  O484  1  0.16262898  0.34667844  0.63693455  1
  O2-  O485  1  0.17040813  0.32174817  0.96532812  1
  O2-  O486  1  0.13103578  0.54849542  0.29552554  1
  O2-  O487  1  0.17316931  0.60126743  0.65378359  1
  O2-  O488  1  0.12343556  0.56165160  0.96255194  1
  O2-  O489  1  0.17103836  0.84532659  0.30287251  1
  O2-  O490  1  0.18302550  0.83353709  0.65715189  1
  O2-  O491  1  0.16061717  0.83956458  0.98889174  1
  O2-  O492  1  0.41987108  0.03673141  0.31923227  1
  O2-  O493  1  0.43163704  0.07204575  0.63140377  1
  O2-  O494  1  0.41301251  0.07776601  0.98161456  1
  O2-  O495  1  0.41031312  0.35277881  0.31206762  1
  O2-  O496  1  0.42229610  0.32290854  0.65802971  1
  O2-  O497  1  0.42427071  0.31428897  0.98924264  1
  O2-  O498  1  0.48593785  0.63274598  0.31600225  1
  O2-  O499  1  0.40576810  0.59504294  0.63960083  1
  O2-  O500  1  0.41241897  0.57170089  0.97250303  1
  O2-  O501  1  0.55816847  0.88484279  0.36278861  1
  O2-  O502  1  0.40867853  0.83208999  0.65078839  1
  O2-  O503  1  0.34535705  0.79920393  0.94897942  1
  O2-  O504  1  0.69697691  0.10206213  0.32144088  1
  O2-  O505  1  0.67750256  0.08976451  0.64216514  1
  O2-  O506  1  0.67841418  0.08497905  0.96184393  1
  O2-  O507  1  0.67939527  0.33558445  0.33731837  1
  O2-  O508  1  0.65794275  0.32786218  0.63320817  1
  O2-  O509  1  0.66907114  0.34710443  0.97657490  1
  O2-  O510  1  0.65650578  0.59788889  0.31422741  1
  O2-  O511  1  0.65268743  0.57828734  0.64724755  1
  O2-  O512  1  0.66871921  0.58634741  0.97861304  1
  O2-  O513  1  0.65929773  0.83806827  0.31613087  1
  O2-  O514  1  0.65076304  0.82334401  0.64455725  1
  O2-  O515  1  0.61830504  0.81980528  0.96913681  1
  O2-  O516  1  0.93109308  0.10061962  0.31517087  1
  O2-  O517  1  0.92135373  0.09647608  0.63908926  1
  O2-  O518  1  0.93128984  0.09637462  0.97830782  1
  O2-  O519  1  0.93567628  0.33455972  0.33286469  1
  O2-  O520  1  0.93633773  0.35135304  0.62450145  1
  O2-  O521  1  0.92233933  0.32690896  0.98182557  1
  O2-  O522  1  0.97972224  0.55293614  0.30805156  1
  O2-  O523  1  0.89090741  0.65426505  0.62638063  1
  O2-  O524  1  0.92652996  0.59521103  0.99188875  1
  O2-  O525  1  0.91042864  0.84445915  0.31864394  1
  O2-  O526  1  0.93309244  0.82935549  0.63785332  1
  O2-  O527  1  0.91507165  0.83067068  0.97992561  1
  O2-  O528  1  0.09456398  0.18132456  0.01257434  1
  O2-  O529  1  0.07748819  0.16477025  0.35992418  1
  O2-  O530  1  0.08805952  0.18315808  0.68106525  1
  O2-  O531  1  0.07538463  0.41016408  0.01212176  1
  O2-  O532  1  0.09857664  0.41775474  0.35773673  1
  O2-  O533  1  0.08798358  0.43620107  0.68066732  1
  O2-  O534  1  0.09661310  0.68387607  0.03638452  1
  O2-  O535  1  0.10618035  0.69679436  0.36834963  1
  O2-  O536  1  0.09983498  0.67888567  0.69280504  1
  O2-  O537  1  0.07663380  0.92173139  0.02606360  1
  O2-  O538  1  0.08388328  0.92739148  0.35110383  1
  O2-  O539  1  0.08755489  0.91764628  0.69255706  1
  O2-  O540  1  0.33151322  0.15720997  0.03324539  1
  O2-  O541  1  0.33323002  0.18515935  0.35396460  1
  O2-  O542  1  0.33671622  0.15179068  0.64643578  1
  O2-  O543  1  0.33646919  0.40577430  -0.00230307  1
  O2-  O544  1  0.34151923  0.44869070  0.33499414  1
  O2-  O545  1  0.35264508  0.42523851  0.68599671  1
  O2-  O546  1  0.33176623  0.66079431  0.01196579  1
  O2-  O547  1  0.28677563  0.70732342  0.36748106  1
  O2-  O548  1  0.33068634  0.67686314  0.69319920  1
  O2-  O549  1  0.32843395  0.91466673  0.02053918  1
  O2-  O550  1  0.38149863  0.87874896  0.36149030  1
  O2-  O551  1  0.31777251  0.94672057  0.71021785  1
  O2-  O552  1  0.59035362  0.17166057  -0.04329030  1
  O2-  O553  1  0.59653173  0.16531891  0.35649692  1
  O2-  O554  1  0.59122971  0.16682294  0.68401270  1
  O2-  O555  1  0.59740794  0.43685246  0.02748068  1
  O2-  O556  1  0.57488835  0.43126529  0.34637294  1
  O2-  O557  1  0.58802890  0.41715832  0.68647375  1
  O2-  O558  1  0.56725107  0.66678014  0.02656792  1
  O2-  O559  1  0.57195972  0.67217828  0.34373149  1
  O2-  O560  1  0.57057615  0.65965187  0.68599286  1
  O2-  O561  1  0.54001999  0.91064974  -0.03616540  1
  O2-  O562  1  0.56131271  0.94919571  0.31983313  1
  O2-  O563  1  0.58521595  0.92483664  0.68074985  1
  O2-  O564  1  0.83619533  0.16728758  0.02160976  1
  O2-  O565  1  0.85706307  0.16473666  0.37040587  1
  O2-  O566  1  0.84391798  0.18450699  0.67537678  1
  O2-  O567  1  0.84159078  0.41884461  -0.00354449  1
  O2-  O568  1  0.85377737  0.42190131  0.37503011  1
  O2-  O569  1  0.82966514  0.42987926  0.64695088  1
  O2-  O570  1  0.82340792  0.66674833  0.02345459  1
  O2-  O571  1  0.80024363  0.70529113  0.38714987  1
  O2-  O572  1  0.83551190  0.58780577  0.67076117  1
  O2-  O573  1  0.86101044  0.93326717  0.02702438  1
  O2-  O574  1  0.80856863  0.90915215  0.36086132  1
  O2-  O575  1  0.80186143  0.94865108  0.69994937  1
