# generated using pymatgen
data_H2O
_symmetry_space_group_name_H-M   'P 1'
_cell_length_a   17.99762494
_cell_length_b   17.99877436
_cell_length_c   22.01219238
_cell_angle_alpha   90.00477481
_cell_angle_beta   89.99802974
_cell_angle_gamma   119.99884958
_symmetry_Int_Tables_number   1
_chemical_formula_structural   H2O
_chemical_formula_sum   'H384 O192'
_cell_volume   6175.28625377
_cell_formula_units_Z   192
loop_
 _symmetry_equiv_pos_site_id
 _symmetry_equiv_pos_as_xyz
  1  'x, y, z'
loop_
 _atom_type_symbol
 _atom_type_oxidation_number
  H+  1.0
  O2-  -2.0
loop_
 _atom_site_type_symbol
 _atom_site_label
 _atom_site_symmetry_multiplicity
 _atom_site_fract_x
 _atom_site_fract_y
 _atom_site_fract_z
 _atom_site_occupancy
  H+  H0  1  0.61831080  0.73297245  0.49894985  1
  H+  H1  1  0.88978826  0.86882480  0.84378744  1
  H+  H2  1  0.34147783  0.92769216  0.38861534  1
  H+  H3  1  0.63025665  0.27127100  0.17571709  1
  H+  H4  1  0.36617089  0.64072895  1.00550699  1
  H+  H5  1  0.15458011  0.79055705  0.63177248  1
  H+  H6  1  0.63739813  0.52182193  0.65531810  1
  H+  H7  1  0.63429137  0.36217049  0.83232533  1
  H+  H8  1  0.36367687  0.48924371  0.49764418  1
  H+  H9  1  0.56686984  0.71756936  0.81534960  1
  H+  H10  1  0.52517028  0.13445931  0.16011810  1
  H+  H11  1  0.92747407  0.35866068  0.23651369  1
  H+  H12  1  0.63505646  0.53114730  -0.00621768  1
  H+  H13  1  0.12391672  0.48150343  0.82379143  1
  H+  H14  1  0.62564684  0.63977937  0.16439951  1
  H+  H15  1  0.14025790  0.75698994  0.82701821  1
  H+  H16  1  0.59452564  0.36922241  0.34357782  1
  H+  H17  1  0.36352715  0.39010597  0.00543258  1
  H+  H18  1  0.59227343  0.58177161  0.80946387  1
  H+  H19  1  0.96802997  0.61055898  0.65668633  1
  H+  H20  1  0.38093069  0.35458752  0.31397654  1
  H+  H21  1  0.88818198  0.12255285  0.83873959  1
  H+  H22  1  0.73047964  0.12248090  -0.00060392  1
  H+  H23  1  0.37081729  0.11045072  0.66316063  1
  H+  H24  1  0.88583843  0.35282187  0.64383831  1
  H+  H25  1  0.56916309  0.36784031  0.66240001  1
  H+  H26  1  0.91269500  0.32221814  0.88158352  1
  H+  H27  1  0.22512441  0.61559368  0.17794800  1
  H+  H28  1  0.83006832  0.16138526  0.40032961  1
  H+  H29  1  0.87108533  0.18557065  0.14419602  1
  H+  H30  1  0.13132229  0.26739045  0.16890241  1
  H+  H31  1  0.04079346  0.91695705  0.50203594  1
  H+  H32  1  0.58651981  0.67268956  0.06610632  1
  H+  H33  1  0.98087437  0.88866253  0.16208187  1
  H+  H34  1  0.51009841  0.62208993  0.17768342  1
  H+  H35  1  0.15559335  0.33203559  0.27827434  1
  H+  H36  1  0.85928077  -0.03257062  0.34222458  1
  H+  H37  1  0.72557803  0.36505730  0.83959245  1
  H+  H38  1  0.34764696  0.47417039  0.68183515  1
  H+  H39  1  0.95286812  0.64793874  0.33810201  1
  H+  H40  1  0.86954461  0.98979574  0.83290564  1
  H+  H41  1  0.71835327  0.25930833  0.05736394  1
  H+  H42  1  0.87977932  1.01183928  0.50091609  1
  H+  H43  1  0.39458277  0.51131156  0.32661102  1
  H+  H44  1  0.62368632  0.47336713  0.82464069  1
  H+  H45  1  0.69150071  0.60649090  0.26604891  1
  H+  H46  1  0.61988978  0.72822178  0.16593692  1
  H+  H47  1  0.38534396  0.27362495  0.00776653  1
  H+  H48  1  0.09949106  0.70064169  0.69413631  1
  H+  H49  1  0.47580805  0.85970379  0.65495051  1
  H+  H50  1  0.64374918  0.78195007  0.99875128  1
  H+  H51  1  0.40349262  0.82014586  0.37265533  1
  H+  H52  1  0.99024392  0.64127482  0.98405865  1
  H+  H53  1  0.91851399  0.09603138  -0.05160127  1
  H+  H54  1  0.48146942  0.85787683  0.18006903  1
  H+  H55  1  0.38605124  0.02722685  0.31142401  1
  H+  H56  1  0.63487505  0.77075938  0.32871038  1
  H+  H57  1  0.13699465  0.87646250  0.18079039  1
  H+  H58  1  0.33628243  0.40454008  0.39204307  1
  H+  H59  1  0.97383671  0.12034062  0.85055882  1
  H+  H60  1  0.52693873  0.64600728  0.00616159  1
  H+  H61  1  0.41755974  0.83592729  0.55919455  1
  H+  H62  1  0.75809233  0.88395395  0.16566090  1
  H+  H63  1  0.89336190  0.27271193  0.33377647  1
  H+  H64  1  0.12667749  0.27761830  0.84699500  1
  H+  H65  1  0.13895321  0.61951715  0.99399761  1
  H+  H66  1  0.23488811  0.16639156  0.54378224  1
  H+  H67  1  0.62927106  0.85511800  0.17749567  1
  H+  H68  1  0.36359632  0.39863821  0.15344409  1
  H+  H69  1  0.28227798  0.89617632  0.66918653  1
  H+  H70  1  0.37562231  0.27662493  0.15108033  1
  H+  H71  1  0.62672950  0.52028304  0.17955904  1
  H+  H72  1  0.25879548  0.13528807  0.68580211  1
  H+  H73  1  0.76997721  0.38499937  0.48506814  1
  H+  H74  1  0.23434938  0.61007044  0.84429918  1
  H+  H75  1  0.63635829  0.62078545  0.99167592  1
  H+  H76  1  0.24340703  0.12019628  1.01370388  1
  H+  H77  1  0.27648881  0.63972317  0.00494729  1
  H+  H78  1  0.14032636  0.37480397  0.33590321  1
  H+  H79  1  0.90146287  0.90414031  0.17130537  1
  H+  H80  1  0.51346816  0.12438194  0.33217329  1
  H+  H81  1  0.12792402  0.00382369  0.51265311  1
  H+  H82  1  0.60441317  0.17224306  0.75616797  1
  H+  H83  1  0.63741275  0.15116710  0.82331002  1
  H+  H84  1  0.39171736  0.10944085  0.15149118  1
  H+  H85  1  0.36635331  0.13628711  0.32369375  1
  H+  H86  1  1.02196029  0.11771462  0.34504070  1
  H+  H87  1  0.77468524  0.63593993  0.67084088  1
  H+  H88  1  0.11750967  0.97963718  0.00924886  1
  H+  H89  1  0.21486823  0.36721854  0.49827649  1
  H+  H90  1  0.86251498  0.72745497  0.67033808  1
  H+  H91  1  0.86265921  0.40764057  0.15935229  1
  H+  H92  1  0.07718489  0.63725934  0.77250429  1
  H+  H93  1  0.08754481  0.04621338  0.88092182  1
  H+  H94  1  0.61361478  0.88893875  0.48431404  1
  H+  H95  1  0.10848272  0.38130689  0.48771322  1
  H+  H96  1  0.39102995  0.77940984  1.00236588  1
  H+  H97  1  0.85524129  0.12632874  0.49369086  1
  H+  H98  1  0.72583249  0.10176838  0.16611414  1
  H+  H99  1  0.88794357  0.37160636  0.83334657  1
  H+  H100  1  0.88012608  0.49112756  0.67142201  1
  H+  H101  1  0.36954597  0.88954376  1.00983609  1
  H+  H102  1  0.86633127  0.47708508  0.97700656  1
  H+  H103  1  0.12167405  0.23368754  1.00145562  1
  H+  H104  1  0.11541555  0.89006890  0.67121867  1
  H+  H105  1  0.36529109  0.26743655  0.67095476  1
  H+  H106  1  0.38168300  0.10267629  0.49845229  1
  H+  H107  1  0.36405229  0.97669634  0.00935724  1
  H+  H108  1  0.39747053  0.53296743  0.99175335  1
  H+  H109  1  0.34611803  0.97505245  0.83100672  1
  H+  H110  1  0.11009518  0.14534055  0.50598532  1
  H+  H111  1  0.10056821  0.61640395  0.66928864  1
  H+  H112  1  0.63927778  0.86256269  0.32590166  1
  H+  H113  1  0.27060926  0.38123381  0.33683805  1
  H+  H114  1  0.68438929  0.36261695  0.67252823  1
  H+  H115  1  0.67067975  0.58271471  0.89735657  1
  H+  H116  1  0.85617960  0.21198419  0.65817823  1
  H+  H117  1  0.02557425  0.89334483  0.01243524  1
  H+  H118  1  0.85735772  0.43374991  -0.01179444  1
  H+  H119  1  0.55654042  0.44595820  0.49506185  1
  H+  H120  1  1.01835540  0.87387684  0.83156930  1
  H+  H121  1  0.44070570  0.22443282  0.09714391  1
  H+  H122  1  0.11333194  0.73381539  0.49383385  1
  H+  H123  1  0.13150016  0.37011141  0.84280647  1
  H+  H124  1  0.39269508  0.62170430  0.51516433  1
  H+  H125  1  0.60943908  0.22077029  0.49018236  1
  H+  H126  1  0.13263312  0.77604857  0.34146758  1
  H+  H127  1  0.89917883  0.86521541  0.32323520  1
  H+  H128  1  0.55593731  0.63645493  0.64120580  1
  H+  H129  1  0.02575651  0.64206006  0.49684066  1
  H+  H130  1  0.62471011  0.99176814  0.81246590  1
  H+  H131  1  0.62607591  0.23829077  0.82323352  1
  H+  H132  1  0.60229851  0.38398940  0.16354264  1
  H+  H133  1  0.75252403  0.13290280  0.81494795  1
  H+  H134  1  0.89923875  0.03427296  1.00457848  1
  H+  H135  1  0.14089242  0.53111954  -0.00222884  1
  H+  H136  1  0.36373796  0.22398761  0.32650773  1
  H+  H137  1  0.36352420  0.71556752  0.82733344  1
  H+  H138  1  0.47147163  0.58306454  0.83310329  1
  H+  H139  1  0.85921734  0.73535350  0.01337937  1
  H+  H140  1  0.77336750  0.87697771  0.33825976  1
  H+  H141  1  0.39485033  0.87433953  0.65658898  1
  H+  H142  1  0.55622135  0.74388887  0.79415813  1
  H+  H143  1  0.11885940  0.62400693  0.83319570  1
  H+  H144  1  0.23176449  0.37157620  -0.00694420  1
  H+  H145  1  0.36956549  0.89848610  0.32876793  1
  H+  H146  1  0.77157664  0.64557392  0.00233731  1
  H+  H147  1  0.47100567  0.36533574  0.99778102  1
  H+  H148  1  0.28380230  0.41398566  0.15516950  1
  H+  H149  1  0.11164320  0.95486376  0.83608606  1
  H+  H150  1  -0.01410679  0.39082728  0.17829611  1
  H+  H151  1  0.11847584  0.10915099  0.68009343  1
  H+  H152  1  0.78396218  0.59059742  0.33490243  1
  H+  H153  1  0.76771309  0.12987976  0.49442796  1
  H+  H154  1  0.78715162  0.52877553  0.11307258  1
  H+  H155  1  0.72787361  0.09761059  0.65736647  1
  H+  H156  1  0.21344333  0.61590263  0.65567345  1
  H+  H157  1  0.17037071  0.02834163  0.15226470  1
  H+  H158  1  0.71907941  0.36270338  0.98544666  1
  H+  H159  1  0.63807433  1.00721740  0.65814031  1
  H+  H160  1  0.74368137  0.88930533  0.84796659  1
  H+  H161  1  0.11713237  0.78145376  0.17543008  1
  H+  H162  1  0.76330522  0.35496446  0.65743132  1
  H+  H163  1  0.10865254  0.48514462  0.34270816  1
  H+  H164  1  0.83491465  0.98056636  0.16114307  1
  H+  H165  1  0.02582340  0.64029028  0.16011584  1
  H+  H166  1  1.01842238  0.38661147  0.34487908  1
  H+  H167  1  0.86821194  0.88555691  0.49301824  1
  H+  H168  1  0.67518070  0.33249154  0.56373671  1
  H+  H169  1  0.35508516  0.71998402  0.16231068  1
  H+  H170  1  0.66152268  0.07595565  0.56678803  1
  H+  H171  1  0.48000385  0.86563749  0.00789797  1
  H+  H172  1  0.79947041  0.66736137  0.49385635  1
  H+  H173  1  0.21144536  0.30034028  0.20922612  1
  H+  H174  1  0.15177892  0.14019908  0.16809522  1
  H+  H175  1  0.69441502  0.33718265  0.34231512  1
  H+  H176  1  0.12269558  0.02107958  0.67304914  1
  H+  H177  1  0.38696507  0.77230733  0.50174505  1
  H+  H178  1  0.97533501  0.86236263  0.66360109  1
  H+  H179  1  0.12078568  0.38791137  0.00847125  1
  H+  H180  1  0.13161403  0.84402527  0.82892654  1
  H+  H181  1  0.88648471  0.52442203  0.49989297  1
  H+  H182  1  0.89848713  0.36570230  0.33441986  1
  H+  H183  1  0.87327367  0.71395106  0.19046892  1
  H+  H184  1  0.41856007  0.08747620  0.25152458  1
  H+  H185  1  0.62586274  0.12395982  0.67969168  1
  H+  H186  1  0.62657522  0.90705807  0.82749122  1
  H+  H187  1  0.63875966  0.21910508  0.67529846  1
  H+  H188  1  0.81638124  0.42180245  0.32232580  1
  H+  H189  1  0.62341255  0.89019106  1.01800941  1
  H+  H190  1  0.61286600  0.97093018  0.16829325  1
  H+  H191  1  0.25419019  0.12101327  0.83455235  1
  H+  H192  1  0.88975348  0.86822726  0.66454338  1
  H+  H193  1  0.86419295  0.48708921  0.83394385  1
  H+  H194  1  0.78003902  0.89765685  0.01162183  1
  H+  H195  1  0.13436521  0.52698317  0.50222644  1
  H+  H196  1  0.45459225  0.61512792  0.68025772  1
  H+  H197  1  0.97772932  0.61001321  0.83731397  1
  H+  H198  1  0.38980535  0.31317305  0.60645777  1
  H+  H199  1  0.68504486  0.80889646  0.61286158  1
  H+  H200  1  0.92155193  0.59933485  0.89623290  1
  H+  H201  1  0.35950759  0.09368400  0.84587462  1
  H+  H202  1  0.22902863  0.87516733  0.49302723  1
  H+  H203  1  0.62105817  0.64585667  0.49982937  1
  H+  H204  1  0.09491409  0.22291440  0.69954916  1
  H+  H205  1  0.20959217  0.36633277  0.69803863  1
  H+  H206  1  0.47870830  0.86668658  0.82222728  1
  H+  H207  1  0.01496222  0.38201552  0.48640835  1
  H+  H208  1  0.62810375  0.64735924  0.34508758  1
  H+  H209  1  0.44046604  0.58210268  0.24268951  1
  H+  H210  1  0.90074182  0.06420313  0.56359378  1
  H+  H211  1  0.26189692  0.38215996  0.83428301  1
  H+  H212  1  0.00687547  0.13145373  0.68775005  1
  H+  H213  1  0.36700301  -0.02280507  0.48727933  1
  H+  H214  1  0.61504490  0.14516346  0.01026005  1
  H+  H215  1  0.88163537  0.10920348  0.33231653  1
  H+  H216  1  0.13944039  0.86051654  1.00259523  1
  H+  H217  1  0.36706553  0.23542810  0.50620242  1
  H+  H218  1  0.36268087  0.70646952  0.33161861  1
  H+  H219  1  0.22235168  0.86494422  0.33373047  1
  H+  H220  1  0.86618234  0.98241854  0.67298284  1
  H+  H221  1  0.73340231  0.61324504  0.83914811  1
  H+  H222  1  0.38745147  0.85911134  0.82772083  1
  H+  H223  1  0.90091625  0.64359594  0.98458398  1
  H+  H224  1  0.18030615  0.86057305  0.58350957  1
  H+  H225  1  0.63200555  1.02146300  0.50496990  1
  H+  H226  1  0.82709999  0.29288252  0.97845703  1
  H+  H227  1  0.48845709  0.86523254  0.33446428  1
  H+  H228  1  0.51381777  0.38550727  0.15694593  1
  H+  H229  1  0.87027370  0.64483983  0.82447249  1
  H+  H230  1  0.03090007  0.14147826  1.00310405  1
  H+  H231  1  0.47202904  0.11549621  -0.00455656  1
  H+  H232  1  0.13492830  0.36300035  0.73866605  1
  H+  H233  1  0.61156524  0.23354236  1.00148416  1
  H+  H234  1  0.13746481  0.52594907  0.17736565  1
  H+  H235  1  0.40593270  0.53250230  0.17484885  1
  H+  H236  1  0.61155544  0.24913338  0.32969604  1
  H+  H237  1  0.72009229  0.59205343  0.16712006  1
  H+  H238  1  0.11987725  0.39078051  0.16625925  1
  H+  H239  1  0.37956516  0.51096066  0.84904940  1
  H+  H240  1  0.62073236  -0.01916713  0.33312539  1
  H+  H241  1  0.52187696  0.88453590  0.48695208  1
  H+  H242  1  1.03311078  0.39608558  0.81535707  1
  H+  H243  1  0.47263008  0.10859226  0.50601837  1
  H+  H244  1  0.27332108  0.63504222  0.49051752  1
  H+  H245  1  0.90879379  0.32657525  0.54997598  1
  H+  H246  1  0.91136835  0.57933561  0.56138859  1
  H+  H247  1  0.33794846  0.64254186  0.67865302  1
  H+  H248  1  0.89107858  0.73212500  0.22118017  1
  H+  H249  1  0.87303273  0.23723726  0.80463324  1
  H+  H250  1  0.22754271  0.10918430  0.31871040  1
  H+  H251  1  0.96346858  0.14157625  0.61628560  1
  H+  H252  1  0.73940278  0.87291895  0.49959146  1
  H+  H253  1  0.48377438  0.60316654  0.33357810  1
  H+  H254  1  0.77582679  0.13880224  0.33833900  1
  H+  H255  1  1.01681906  0.13328311  0.49616382  1
  H+  H256  1  0.88785442  0.59873082  0.17473646  1
  H+  H257  1  0.37777051  0.89353682  0.16051797  1
  H+  H258  1  0.36084641  0.34092781  0.84880152  1
  H+  H259  1  0.16488382  0.10332663  0.59015484  1
  H+  H260  1  0.09948768  0.63373492  0.34028280  1
  H+  H261  1  0.39414101  1.02098732  0.16222103  1
  H+  H262  1  0.89229699  0.55063777  0.33538173  1
  H+  H263  1  0.90775099  0.79267305  0.50592776  1
  H+  H264  1  0.03239315  0.38795910  0.01204877  1
  H+  H265  1  0.34418563  0.38295263  0.67678602  1
  H+  H266  1  0.12212831  0.15363632  0.83632054  1
  H+  H267  1  0.61040262  0.39436485  1.00496751  1
  H+  H268  1  0.11696836  0.88449698  0.33708088  1
  H+  H269  1  0.21687216  0.60140662  0.32672606  1
  H+  H270  1  0.88865886  0.87360883  1.00141577  1
  H+  H271  1  0.63656184  0.11121260  0.32278916  1
  H+  H272  1  0.14511481  0.88589614  0.50010258  1
  H+  H273  1  0.45277053  0.32205335  0.51305305  1
  H+  H274  1  0.11377204  0.64127767  0.15805497  1
  H+  H275  1  0.34372176  0.73141740  0.66436183  1
  H+  H276  1  0.67773488  0.55047101  0.50283339  1
  H+  H277  1  0.36614689  0.98742888  0.67370126  1
  H+  H278  1  0.87994660  0.61365137  0.65707910  1
  H+  H279  1  0.47155914  0.36030186  0.31226447  1
  H+  H280  1  0.26012561  0.10027481  0.46771040  1
  H+  H281  1  0.12161815  0.73205865  0.00573955  1
  H+  H282  1  0.88051987  0.65602339  0.49121111  1
  H+  H283  1  0.87019287  0.12779032  0.66315907  1
  H+  H284  1  0.13789870  0.61810626  0.50217431  1
  H+  H285  1  0.34106128  0.21200198  0.83905261  1
  H+  H286  1  0.32892893  0.15146434  0.41622414  1
  H+  H287  1  0.63289604  0.35978565  0.51028904  1
  H+  H288  1  0.13570947  0.10398334  0.32541965  1
  H+  H289  1  0.56235634  0.60712597  0.74832498  1
  H+  H290  1  0.64181217  0.11290675  0.16908801  1
  H+  H291  1  0.70746329  0.10500932  0.87825282  1
  H+  H292  1  0.83386250  0.90685462  0.43009662  1
  H+  H293  1  0.62107657  0.97774455  0.02734029  1
  H+  H294  1  0.41672303  0.82736430  0.23585716  1
  H+  H295  1  0.92567610  0.44863354  0.70727457  1
  H+  H296  1  0.34543376  0.92016612  0.10045164  1
  H+  H297  1  0.10040950  0.46700739  0.63862582  1
  H+  H298  1  0.15775100  0.57585756  0.26704685  1
  H+  H299  1  0.58318615  0.42249590  0.06642470  1
  H+  H300  1  0.24854882  0.86880817  0.81972863  1
  H+  H301  1  0.08289490  0.66543111  0.06152487  1
  H+  H302  1  0.81401608  0.62165418  0.08722108  1
  H+  H303  1  0.36221448  0.61865609  0.33537832  1
  H+  H304  1  0.84299272  0.16911395  0.74754408  1
  H+  H305  1  0.76585709  0.38703207  0.15982558  1
  H+  H306  1  0.85772207  0.38220132  0.48229619  1
  H+  H307  1  0.40079198  0.32376185  0.21679841  1
  H+  H308  1  1.01966440  0.88680496  0.32142367  1
  H+  H309  1  0.78061220  0.88941469  0.67961617  1
  H+  H310  1  0.15552123  0.12284784  1.00511263  1
  H+  H311  1  0.93718883  0.86458668  0.25810745  1
  H+  H312  1  0.08663085  0.17451120  0.08172653  1
  H+  H313  1  0.92467885  0.60609713  0.24023692  1
  H+  H314  1  0.91127646  0.07623219  0.27544400  1
  H+  H315  1  0.68013068  0.59103912  0.56836717  1
  H+  H316  1  0.84321351  0.11618722  0.09417163  1
  H+  H317  1  0.65137507  0.80635467  0.85111342  1
  H+  H318  1  0.58164798  0.41379549  0.76615127  1
  H+  H319  1  0.56929124  0.15110089  0.39547904  1
  H+  H320  1  0.64343251  0.61495742  0.65856944  1
  H+  H321  1  0.33325276  0.65769017  0.43177601  1
  H+  H322  1  0.58259743  0.90900562  0.11032884  1
  H+  H323  1  0.07880262  0.42072697  0.41719190  1
  H+  H324  1  0.36517970  0.62801213  0.83718225  1
  H+  H325  1  0.56592924  0.40291654  0.43436147  1
  H+  H326  1  0.16871196  0.07156918  0.92101010  1
  H+  H327  1  0.12689634  0.27578410  0.49828971  1
  H+  H328  1  0.83761672  0.67388146  0.76654287  1
  H+  H329  1  0.08240080  0.90640646  0.73549490  1
  H+  H330  1  0.39169063  0.31317231  0.90816122  1
  H+  H331  1  0.62119403  0.46645262  0.34798497  1
  H+  H332  1  0.12708575  0.95568267  0.10041935  1
  H+  H333  1  0.41005439  0.59079952  0.61517542  1
  H+  H334  1  0.15693043  0.58651868  0.59453229  1
  H+  H335  1  0.43025198  0.59035900  0.93238523  1
  H+  H336  1  0.58908569  0.66789642  0.40461408  1
  H+  H337  1  0.40160660  0.08241000  0.60332090  1
  H+  H338  1  0.59121181  0.92347865  0.39427364  1
  H+  H339  1  0.18270379  0.11324001  0.22726030  1
  H+  H340  1  0.92461798  0.84733742  0.56704517  1
  H+  H341  1  0.82194952  0.23047640  0.04102152  1
  H+  H342  1  0.97314187  0.35207013  0.63044445  1
  H+  H343  1  0.16654978  0.34064044  0.93590344  1
  H+  H344  1  0.36472567  0.88733714  0.48397433  1
  H+  H345  1  0.61447959  0.86732008  0.67123465  1
  H+  H346  1  0.07367077  0.16342866  0.77850476  1
  H+  H347  1  0.38590856  0.11864826  1.00424480  1
  H+  H348  1  0.07899206  0.66623346  0.40160328  1
  H+  H349  1  0.32429673  0.41037316  0.77645219  1
  H+  H350  1  0.49447787  0.38470976  0.67294800  1
  H+  H351  1  0.22853966  0.86206936  1.00207361  1
  H+  H352  1  0.39169713  0.06371914  0.90380083  1
  H+  H353  1  0.58766694  0.90623570  0.72673143  1
  H+  H354  1  0.66196736  0.82637713  0.23687834  1
  H+  H355  1  0.32874154  0.92220392  0.76243280  1
  H+  H356  1  0.88217905  0.26753459  0.49176251  1
  H+  H357  1  0.67795668  0.85068427  0.94343265  1
  H+  H358  1  0.33826061  0.43119821  0.06042992  1
  H+  H359  1  0.10038949  0.37975950  0.65205530  1
  H+  H360  1  0.88519795  0.77723393  0.84290286  1
  H+  H361  1  0.16927266  0.58006169  0.90184885  1
  H+  H362  1  0.91487007  0.83899524  0.94259508  1
  H+  H363  1  0.84036806  0.93000661  0.77287777  1
  H+  H364  1  0.08216028  0.14884319  0.40277422  1
  H+  H365  1  0.30210114  0.47725747  0.44571792  1
  H+  H366  1  0.84080327  0.42569598  0.39438348  1
  H+  H367  1  0.64052451  0.74676392  0.66910496  1
  H+  H368  1  0.66052221  0.33578721  0.92610270  1
  H+  H369  1  0.09282101  0.41751892  0.10469524  1
  H+  H370  1  0.83426488  0.92529173  0.07225384  1
  H+  H371  1  0.67230883  0.08645721  0.26375809  1
  H+  H372  1  0.65539117  0.32889412  0.23519058  1
  H+  H373  1  0.64857109  0.06235316  0.95800351  1
  H+  H374  1  0.68718660  0.88399296  0.55374493  1
  H+  H375  1  0.32051640  0.16236636  0.74321475  1
  H+  H376  1  0.32296995  0.66172308  0.10360311  1
  H+  H377  1  0.83366712  0.42913853  0.77420991  1
  H+  H378  1  0.11931341  0.98010487  0.32077326  1
  H+  H379  1  0.79813828  0.34528700  0.08483315  1
  H+  H380  1  0.48165702  0.62253214  0.51875197  1
  H+  H381  1  0.97267735  0.13725639  0.16780527  1
  H+  H382  1  0.58733112  0.17191223  0.10349681  1
  H+  H383  1  0.60882100  0.13207533  0.49263468  1
  O2-  O384  1  0.08237281  0.17523444  0.12994400  1
  O2-  O385  1  0.07765347  0.16738462  0.48273683  1
  O2-  O386  1  0.08056400  0.17099765  0.82468673  1
  O2-  O387  1  0.09141041  0.42068900  0.15003510  1
  O2-  O388  1  0.07710177  0.41487041  0.47216567  1
  O2-  O389  1  0.09485199  0.42182204  0.80586690  1
  O2-  O390  1  0.08252606  0.66726014  0.13873396  1
  O2-  O391  1  0.08671130  0.67214648  0.48246073  1
  O2-  O392  1  0.08507618  0.65136907  0.81632395  1
  O2-  O393  1  0.15256887  0.96843560  0.14138890  1
  O2-  O394  1  0.10296970  0.94844783  0.49158211  1
  O2-  O395  1  0.07860494  0.89901333  0.81520367  1
  O2-  O396  1  0.37842339  0.19130859  0.10262569  1
  O2-  O397  1  0.32114252  0.14047116  0.46163865  1
  O2-  O398  1  0.31363886  0.15137686  0.82003202  1
  O2-  O399  1  0.34430652  0.44086529  0.14241588  1
  O2-  O400  1  0.32255360  0.44470301  0.46877238  1
  O2-  O401  1  0.32306178  0.40736337  0.82166436  1
  O2-  O402  1  0.31969733  0.65970534  0.14878295  1
  O2-  O403  1  0.33462680  0.66366031  0.47676069  1
  O2-  O404  1  0.32890063  0.65204329  0.82374962  1
  O2-  O405  1  0.35377401  0.92889555  0.14554692  1
  O2-  O406  1  0.33717370  0.91916001  0.46725585  1
  O2-  O407  1  0.31997238  0.91406666  0.80823949  1
  O2-  O408  1  0.58825197  0.16736525  0.14860371  1
  O2-  O409  1  0.57797286  0.16068152  0.47532909  1
  O2-  O410  1  0.60247215  0.17662949  0.80675659  1
  O2-  O411  1  0.57622995  0.41768274  0.14715299  1
  O2-  O412  1  0.56587129  0.40021824  0.48024675  1
  O2-  O413  1  0.59652215  0.41321097  0.80911123  1
  O2-  O414  1  0.59050708  0.66651295  0.15082562  1
  O2-  O415  1  0.58693248  0.67244347  0.48541717  1
  O2-  O416  1  0.54148839  0.57466200  0.78694969  1
  O2-  O417  1  0.58279119  0.90911912  0.15635635  1
  O2-  O418  1  0.58216736  0.91843372  0.47086807  1
  O2-  O419  1  0.59531308  0.92964626  0.80340721  1
  O2-  O420  1  0.83421992  0.12416390  0.13702982  1
  O2-  O421  1  0.82726614  0.15834751  0.47732689  1
  O2-  O422  1  0.84447177  0.17509345  0.79405662  1
  O2-  O423  1  0.81814898  0.41110975  0.13432795  1
  O2-  O424  1  0.82949594  0.41525368  0.46841351  1
  O2-  O425  1  0.83252771  0.42468221  0.81888906  1
  O2-  O426  1  0.79675721  0.58517461  0.12510226  1
  O2-  O427  1  0.85915933  0.69509268  0.47939165  1
  O2-  O428  1  0.83930785  0.67574139  0.81184425  1
  O2-  O429  1  0.81767938  0.92220137  0.14860090  1
  O2-  O430  1  0.83286442  0.91050748  0.47588073  1
  O2-  O431  1  0.83955044  0.92860991  0.81835084  1
  O2-  O432  1  0.19939849  0.13475097  0.18498148  1
  O2-  O433  1  0.17684523  0.11710454  0.54528907  1
  O2-  O434  1  0.14685686  0.05899814  0.87735945  1
  O2-  O435  1  0.17394180  0.31985295  0.19213260  1
  O2-  O436  1  0.15331727  0.33800636  0.50908514  1
  O2-  O437  1  0.15905911  0.33810196  0.86148269  1
  O2-  O438  1  0.16440956  0.58439657  0.19531138  1
  O2-  O439  1  0.16835874  0.58713550  0.51627512  1
  O2-  O440  1  0.17031718  0.57908416  0.85632417  1
  O2-  O441  1  0.12116958  0.82416565  0.20499133  1
  O2-  O442  1  0.17091424  0.84909603  0.51182157  1
  O2-  O443  1  0.17085538  0.82055009  0.83545855  1
  O2-  O444  1  0.42183759  0.08558956  0.17484401  1
  O2-  O445  1  0.41159751  0.07607689  0.51950097  1
  O2-  O446  1  0.38429869  0.05731402  0.85893290  1
  O2-  O447  1  0.40160977  0.33317487  0.17184465  1
  O2-  O448  1  0.39394119  0.29032590  0.52902820  1
  O2-  O449  1  0.38316208  0.30365522  0.86375539  1
  O2-  O450  1  0.44556107  0.58879665  0.19629547  1
  O2-  O451  1  0.42170243  0.59277252  0.53459840  1
  O2-  O452  1  0.42038048  0.57269083  0.85837576  1
  O2-  O453  1  0.41910910  0.82740090  0.19158822  1
  O2-  O454  1  0.41863636  0.83410082  0.51354559  1
  O2-  O455  1  0.41767083  0.82665399  0.83070872  1
  O2-  O456  1  0.66899935  0.07997981  0.18533325  1
  O2-  O457  1  0.66237450  0.08114974  0.52132126  1
  O2-  O458  1  0.69244319  0.10380001  0.83566072  1
  O2-  O459  1  0.65644199  0.33210521  0.19032051  1
  O2-  O460  1  0.66749510  0.33204598  0.51924355  1
  O2-  O461  1  0.66348718  0.32926608  0.85059748  1
  O2-  O462  1  0.66744611  0.58172299  0.19005227  1
  O2-  O463  1  0.68348342  0.60152059  0.52258610  1
  O2-  O464  1  0.67290548  0.57604360  0.85257975  1
  O2-  O465  1  0.66084845  0.82461841  0.19095601  1
  O2-  O466  1  0.67857080  0.85042387  0.51690229  1
  O2-  O467  1  0.68403766  0.86541467  0.86600270  1
  O2-  O468  1  0.99384069  0.10656952  0.14307202  1
  O2-  O469  1  0.90545132  0.07126048  0.51865182  1
  O2-  O470  1  0.91189852  0.09108561  0.86141025  1
  O2-  O471  1  0.92698315  0.37110238  0.19304474  1
  O2-  O472  1  0.91214798  0.32952800  0.50411147  1
  O2-  O473  1  0.91904035  0.33869186  0.83859719  1
  O2-  O474  1  0.93063259  0.59171804  0.19806576  1
  O2-  O475  1  0.91837653  0.58365570  0.51637864  1
  O2-  O476  1  0.91677514  0.58674396  0.84999591  1
  O2-  O477  1  0.95214374  0.90685240  0.19098792  1
  O2-  O478  1  0.93045866  0.85307030  0.52201832  1
  O2-  O479  1  0.91808718  0.83717331  0.85948986  1
  O2-  O480  1  0.16756664  0.07886253  0.30323994  1
  O2-  O481  1  0.15167706  0.08330878  0.66212912  1
  O2-  O482  1  0.18557966  0.09111923  0.99351962  1
  O2-  O483  1  0.17100131  0.34568632  0.32122729  1
  O2-  O484  1  0.14541485  0.33776860  0.70235454  1
  O2-  O485  1  0.16923059  0.33904510  0.98167636  1
  O2-  O486  1  0.15600514  0.57316790  0.31375562  1
  O2-  O487  1  0.15139809  0.58055106  0.63966323  1
  O2-  O488  1  0.17042670  0.58890029  0.97942291  1
  O2-  O489  1  0.16278633  0.83907258  0.34824396  1
  O2-  O490  1  0.17842993  0.85236715  0.62976320  1
  O2-  O491  1  0.16820180  0.82956819  0.98735875  1
  O2-  O492  1  0.41933022  0.08840549  0.29730313  1
  O2-  O493  1  0.40061090  0.08020105  0.64819768  1
  O2-  O494  1  0.41107717  0.08549982  0.98363405  1
  O2-  O495  1  0.41279163  0.32792270  0.29513291  1
  O2-  O496  1  0.39185915  0.32551610  0.65084154  1
  O2-  O497  1  0.40874032  0.33241458  0.98809276  1
  O2-  O498  1  0.42590336  0.57306754  0.31334582  1
  O2-  O499  1  0.39867004  0.58447321  0.65984464  1
  O2-  O500  1  0.42943261  0.59401660  0.97826994  1
  O2-  O501  1  0.42341186  0.82937934  0.33057852  1
  O2-  O502  1  0.41754070  0.83917889  0.63774456  1
  O2-  O503  1  0.42174891  0.84107163  0.99095649  1
  O2-  O504  1  0.67174520  0.08541743  0.30926043  1
  O2-  O505  1  0.66531844  0.06879447  0.64533414  1
  O2-  O506  1  0.66559215  0.08433805  0.99909105  1
  O2-  O507  1  0.64176195  0.31295522  0.31854632  1
  O2-  O508  1  0.70201216  0.32964030  0.64709886  1
  O2-  O509  1  0.65928745  0.33607318  0.97209499  1
  O2-  O510  1  0.70630579  0.63117954  0.30832334  1
  O2-  O511  1  0.67396893  0.58188398  0.64177886  1
  O2-  O512  1  0.66662369  0.59049366  0.97682066  1
  O2-  O513  1  0.66712777  0.82974357  0.31115262  1
  O2-  O514  1  0.67612744  0.81510790  0.65585608  1
  O2-  O515  1  0.67623621  0.84480698  0.98861001  1
  O2-  O516  1  0.90869499  0.07424559  0.31959879  1
  O2-  O517  1  0.92534350  0.09708846  0.64468803  1
  O2-  O518  1  0.93083851  0.09580344  0.99205043  1
  O2-  O519  1  0.92814877  0.33434312  0.32074959  1
  O2-  O520  1  0.90712992  0.31770090  0.62494901  1
  O2-  O521  1  0.84516031  0.25594434  0.95704961  1
  O2-  O522  1  0.89474428  0.60498987  0.32462867  1
  O2-  O523  1  0.90790798  0.58066542  0.64085837  1
  O2-  O524  1  0.93428656  0.62183867  0.96280342  1
  O2-  O525  1  0.93404900  0.84522683  0.30151885  1
  O2-  O526  1  0.91558171  0.83476266  0.64745708  1
  O2-  O527  1  0.91606534  0.83972654  0.98773639  1
  O2-  O528  1  0.09416096  0.17279466  0.01620546  1
  O2-  O529  1  0.08195473  0.14207476  0.35812179  1
  O2-  O530  1  0.06709208  0.16003148  0.70759018  1
  O2-  O531  1  0.09126391  0.41824476  0.02688239  1
  O2-  O532  1  0.07983979  0.42427296  0.36220976  1
  O2-  O533  1  0.07090505  0.40486265  0.62874675  1
  O2-  O534  1  0.08749810  0.66796620  0.01602441  1
  O2-  O535  1  0.07223280  0.66536788  0.35668933  1
  O2-  O536  1  0.06421241  0.63851228  0.69170486  1
  O2-  O537  1  0.08670961  0.92003560  0.02481427  1
  O2-  O538  1  0.08438697  0.91959889  0.33791592  1
  O2-  O539  1  0.08131220  0.91325881  0.69048976  1
  O2-  O540  1  0.35069698  0.17823439  0.03710329  1
  O2-  O541  1  0.33547104  0.16418501  0.34258071  1
  O2-  O542  1  0.32049847  0.16629004  0.69763727  1
  O2-  O543  1  0.33584406  0.42560576  0.01561690  1
  O2-  O544  1  0.33378103  0.40541109  0.34727417  1
  O2-  O545  1  0.31767613  0.41393990  0.69680690  1
  O2-  O546  1  0.33515943  0.66833487  0.02320652  1
  O2-  O547  1  0.33079236  0.64824918  0.34912249  1
  O2-  O548  1  0.30478307  0.67257479  0.67959528  1
  O2-  O549  1  0.33574446  0.91704914  0.02498595  1
  O2-  O550  1  0.34052553  0.92929127  0.34304437  1
  O2-  O551  1  0.33954737  0.92508595  0.68876028  1
  O2-  O552  1  0.58864591  0.17885234  0.02508666  1
  O2-  O553  1  0.57319371  0.15293403  0.35009233  1
  O2-  O554  1  0.60568005  0.16336659  0.69615921  1
  O2-  O555  1  0.58173991  0.42510925  0.02118653  1
  O2-  O556  1  0.57318918  0.40815864  0.35749976  1
  O2-  O557  1  0.55786407  0.40991403  0.68154232  1
  O2-  O558  1  0.58852155  0.67733134  0.02129107  1
  O2-  O559  1  0.58703763  0.66592370  0.35923749  1
  O2-  O560  1  0.59366399  0.65774071  0.67643052  1
  O2-  O561  1  0.59063821  0.91588431  0.03727036  1
  O2-  O562  1  0.59071025  0.92013780  0.34867275  1
  O2-  O563  1  0.58535163  0.90053791  0.68143232  1
  O2-  O564  1  0.83246577  0.19660995  0.00939862  1
  O2-  O565  1  0.83565196  0.16659481  0.35484023  1
  O2-  O566  1  0.83052877  0.15450875  0.67756794  1
  O2-  O567  1  0.77962795  0.29867341  0.05127571  1
  O2-  O568  1  0.86281965  0.43596479  0.35097388  1
  O2-  O569  1  0.86935339  0.43508173  0.69174518  1
  O2-  O570  1  0.82975591  0.67218768  0.02138119  1
  O2-  O571  1  0.72173780  0.56982294  0.34208007  1
  O2-  O572  1  0.83569072  0.66707277  0.68574826  1
  O2-  O573  1  0.84045492  0.92820217  0.02712359  1
  O2-  O574  1  0.83257930  0.90644729  0.35540912  1
  O2-  O575  1  0.84174403  0.92578733  0.69306670  1
