# generated using pymatgen
data_H2O
_symmetry_space_group_name_H-M   'P 1'
_cell_length_a   17.99497138
_cell_length_b   17.99489834
_cell_length_c   22.00054382
_cell_angle_alpha   90.01197574
_cell_angle_beta   90.01656886
_cell_angle_gamma   120.00985459
_symmetry_Int_Tables_number   1
_chemical_formula_structural   H2O
_chemical_formula_sum   'H384 O192'
_cell_volume   6169.09440850
_cell_formula_units_Z   192
loop_
 _symmetry_equiv_pos_site_id
 _symmetry_equiv_pos_as_xyz
  1  'x, y, z'
loop_
 _atom_type_symbol
 _atom_type_oxidation_number
  H+  1.0
  O2-  -2.0
loop_
 _atom_site_type_symbol
 _atom_site_label
 _atom_site_symmetry_multiplicity
 _atom_site_fract_x
 _atom_site_fract_y
 _atom_site_fract_z
 _atom_site_occupancy
  H+  H0  1  0.39092780  0.61356960  0.66049731  1
  H+  H1  1  0.60758549  0.37938952  0.16138934  1
  H+  H2  1  0.63516216  0.86259510  0.16301277  1
  H+  H3  1  0.72156486  0.10932542  0.84689106  1
  H+  H4  1  0.61698289  -0.01527946  1.00870385  1
  H+  H5  1  0.07880747  0.14902585  0.42846096  1
  H+  H6  1  0.01354783  0.14488244  0.16244530  1
  H+  H7  1  0.24298551  0.38630521  0.84248295  1
  H+  H8  1  0.37660715  0.37656330  0.81296080  1
  H+  H9  1  0.87356507  0.51472070  0.66641977  1
  H+  H10  1  0.82989990  0.42742575  0.73508919  1
  H+  H11  1  0.22816934  0.36159156  0.65525332  1
  H+  H12  1  0.38713158  0.02485878  0.84009265  1
  H+  H13  1  0.61184970  0.13560481  0.83612212  1
  H+  H14  1  0.12661257  0.73324879  0.32461424  1
  H+  H15  1  1.02938925  0.18191502  0.81930133  1
  H+  H16  1  0.87172795  0.36040170  1.00183556  1
  H+  H17  1  0.07614918  0.17597333  0.10502547  1
  H+  H18  1  0.57931733  0.66426954  0.06177860  1
  H+  H19  1  0.11418378  0.73135860  0.51373099  1
  H+  H20  1  0.03445279  0.89666710  0.00179531  1
  H+  H21  1  0.00252714  0.61650724  0.16220867  1
  H+  H22  1  0.37847239  0.73605385  0.67302999  1
  H+  H23  1  0.32065661  0.16625798  0.71636162  1
  H+  H24  1  0.12064778  0.61209470  0.17681792  1
  H+  H25  1  0.38569489  0.85096256  0.32754515  1
  H+  H26  1  0.86876419  0.50352571  0.18361732  1
  H+  H27  1  0.50956003  0.38337351  0.67711158  1
  H+  H28  1  0.59911728  0.97082315  0.34304465  1
  H+  H29  1  0.54162246  0.14516235  0.49541817  1
  H+  H30  1  0.76076291  0.39011010  0.82859384  1
  H+  H31  1  0.13905208  0.77555117  0.84758552  1
  H+  H32  1  0.81705061  0.40629032  0.08197951  1
  H+  H33  1  0.86327262  0.72503528  0.67245283  1
  H+  H34  1  0.35411507  0.71989186  0.34314171  1
  H+  H35  1  0.09657492  0.97616192  0.33500296  1
  H+  H36  1  0.63224983  0.60870923  0.82035871  1
  H+  H37  1  0.39539679  0.88595997  0.15874092  1
  H+  H38  1  0.39181032  0.63586434  0.32135782  1
  H+  H39  1  0.59972707  0.46736992  0.34180516  1
  H+  H40  1  0.19300848  0.48819023  0.86490805  1
  H+  H41  1  -0.02777674  0.36035240  0.17544938  1
  H+  H42  1  0.11768066  0.73204746  0.00779631  1
  H+  H43  1  0.47791078  0.60888946  0.98744299  1
  H+  H44  1  0.89662640  0.86191183  -0.00454787  1
  H+  H45  1  0.18429047  0.84234220  0.14934057  1
  H+  H46  1  0.94941127  0.86159207  0.32804259  1
  H+  H47  1  0.30575239  0.87069232  0.14204984  1
  H+  H48  1  0.11258277  0.63514577  0.83761081  1
  H+  H49  1  0.87123144  0.24293293  0.00939151  1
  H+  H50  1  0.84598562  0.38431744  0.82816575  1
  H+  H51  1  0.37463626  0.34306130  0.32880892  1
  H+  H52  1  0.10994392  0.64126946  0.51126358  1
  H+  H53  1  0.85750487  0.12779996  0.34154335  1
  H+  H54  1  0.13360121  0.35528475  0.65728753  1
  H+  H55  1  0.36360503  0.47281822  0.50386769  1
  H+  H56  1  0.10996571  0.47450193  0.16185296  1
  H+  H57  1  0.22384651  0.34971882  0.33112546  1
  H+  H58  1  0.51863087  0.63582605  0.34888203  1
  H+  H59  1  0.61905592  0.88524920  0.67356675  1
  H+  H60  1  0.33233466  0.91669266  0.77272338  1
  H+  H61  1  0.21639059  0.63901733  0.19326989  1
  H+  H62  1  0.75512246  0.10403191  0.49826986  1
  H+  H63  1  0.35414210  0.11953658  0.34473868  1
  H+  H64  1  0.98627095  0.34470212  0.33016134  1
  H+  H65  1  0.36960837  0.23128993  0.49548040  1
  H+  H66  1  0.52913918  0.89413911  -0.00006006  1
  H+  H67  1  0.52300098  0.88529326  0.82404754  1
  H+  H68  1  0.63470313  0.22362056  0.48270583  1
  H+  H69  1  0.66115188  0.32841327  0.94486728  1
  H+  H70  1  0.28621143  0.14340400  0.82170573  1
  H+  H71  1  0.62897545  0.29460256  0.57526641  1
  H+  H72  1  0.51662051  0.36303349  0.49112711  1
  H+  H73  1  0.35880756  0.38050995  0.15738313  1
  H+  H74  1  0.36385481  0.88726025  0.83047973  1
  H+  H75  1  0.42279565  0.83597252  0.60489279  1
  H+  H76  1  0.63676374  0.76052519  0.50984258  1
  H+  H77  1  0.86273403  0.27424910  0.64603523  1
  H+  H78  1  0.89239602  0.10263337  0.98844542  1
  H+  H79  1  0.85119966  0.22742638  0.83319718  1
  H+  H80  1  0.17404935  0.03601282  1.00029536  1
  H+  H81  1  0.14488517  0.38184111  0.51116727  1
  H+  H82  1  0.88599368  0.00709078  0.50473104  1
  H+  H83  1  0.89162555  0.61303026  0.84254843  1
  H+  H84  1  0.90551124  0.57042437  0.36000127  1
  H+  H85  1  0.64934412  0.89378716  -0.01264608  1
  H+  H86  1  1.02800135  0.87797734  0.67856554  1
  H+  H87  1  0.63318202  0.84851933  0.50516021  1
  H+  H88  1  0.37833395  -0.01210469  0.99700562  1
  H+  H89  1  1.03457937  0.13838158  1.00482367  1
  H+  H90  1  0.38523662  0.52044386  0.65742267  1
  H+  H91  1  0.52156275  0.87355834  0.49837297  1
  H+  H92  1  0.96662551  0.59842322  -0.00587018  1
  H+  H93  1  0.12340375  0.89611541  0.00620026  1
  H+  H94  1  0.91072675  0.31726934  0.49095548  1
  H+  H95  1  0.35907362  0.46298316  0.35132451  1
  H+  H96  1  0.71856529  0.85374708  0.32665410  1
  H+  H97  1  0.61053208  0.13156376  0.68101242  1
  H+  H98  1  0.11421518  0.21661725  0.66037752  1
  H+  H99  1  0.87172285  0.11387816  0.17814398  1
  H+  H100  1  0.12940645  0.27383008  0.17624896  1
  H+  H101  1  0.23399845  0.62049831  0.51517600  1
  H+  H102  1  0.11562250  0.13101067  0.64996365  1
  H+  H103  1  0.61399317  0.71778541  -0.00035185  1
  H+  H104  1  0.33026075  0.66168363  0.43757073  1
  H+  H105  1  0.73137186  0.11243838  0.66357263  1
  H+  H106  1  0.90282044  0.21673062  0.70370022  1
  H+  H107  1  0.62460288  0.76354688  0.83927126  1
  H+  H108  1  0.38713049  1.01086784  0.17383886  1
  H+  H109  1  0.36398155  0.63314652  0.49564080  1
  H+  H110  1  0.64471203  0.02215418  0.66432721  1
  H+  H111  1  0.59125624  0.24180548  0.63688366  1
  H+  H112  1  0.38708522  0.77254137  0.83639565  1
  H+  H113  1  0.90471184  0.40005331  0.50353107  1
  H+  H114  1  0.36425866  -0.02505234  0.67888413  1
  H+  H115  1  0.38585528  0.76799265  0.51067400  1
  H+  H116  1  0.27827602  0.88995601  0.50438885  1
  H+  H117  1  0.17757998  0.84063508  0.58352622  1
  H+  H118  1  0.35503155  0.13196988  0.66469955  1
  H+  H119  1  0.51441704  0.13045931  0.16226336  1
  H+  H120  1  0.04075216  0.40756205  0.49916715  1
  H+  H121  1  0.49939734  0.62929811  0.81945163  1
  H+  H122  1  0.86249722  0.90313256  0.15909979  1
  H+  H123  1  0.76549503  0.88689713  0.15484897  1
  H+  H124  1  0.25028018  0.64175123  -0.01841016  1
  H+  H125  1  0.47506663  0.60310215  0.51045815  1
  H+  H126  1  0.57781100  0.41241252  0.10192764  1
  H+  H127  1  0.61032806  0.96130389  0.49895085  1
  H+  H128  1  0.09766480  0.38051085  0.00513760  1
  H+  H129  1  0.38002759  0.51240083  0.16800278  1
  H+  H130  1  -0.01502762  0.88622162  0.50856987  1
  H+  H131  1  0.63558787  0.10141666  0.50735502  1
  H+  H132  1  0.39165046  0.76364106  0.17370076  1
  H+  H133  1  0.61156380  0.88369276  0.82623215  1
  H+  H134  1  0.51796694  0.63547902  0.14888320  1
  H+  H135  1  0.63194127  0.26947924  0.84941305  1
  H+  H136  1  0.71649874  0.35730528  1.00705472  1
  H+  H137  1  0.47401489  0.35959099  0.17327459  1
  H+  H138  1  0.11129452  0.21610048  0.34219649  1
  H+  H139  1  0.15666516  0.63283441  -0.01838555  1
  H+  H140  1  0.37754205  0.17363428  0.09825877  1
  H+  H141  1  0.47228642  0.35655275  -0.00598714  1
  H+  H142  1  0.23077588  0.86478312  0.66954837  1
  H+  H143  1  0.11876069  0.14165019  0.49969579  1
  H+  H144  1  0.41470948  0.14495786  0.52119622  1
  H+  H145  1  0.23071327  0.12332772  0.62060882  1
  H+  H146  1  0.48564594  0.86855398  0.66311195  1
  H+  H147  1  0.11169868  0.38673258  0.16508637  1
  H+  H148  1  0.39928832  0.87377017  0.98444405  1
  H+  H149  1  0.52970283  0.87941412  0.15852389  1
  H+  H150  1  0.22147430  0.36014292  0.17497609  1
  H+  H151  1  0.92085603  0.82944983  0.60301808  1
  H+  H152  1  0.03405552  0.89787344  0.83167877  1
  H+  H153  1  0.62350515  0.60185506  0.32895464  1
  H+  H154  1  1.01173218  0.11401281  0.49205272  1
  H+  H155  1  0.52425854  0.62769667  0.66190704  1
  H+  H156  1  0.51686978  0.12249034  0.34232478  1
  H+  H157  1  0.38675781  1.01156058  0.33264270  1
  H+  H158  1  0.13294570  0.16203528  0.01670266  1
  H+  H159  1  0.08506443  0.70998270  0.16136772  1
  H+  H160  1  0.87735548  0.49866211  0.49391564  1
  H+  H161  1  0.47462289  0.85291362  0.33006659  1
  H+  H162  1  0.87734949  0.61489504  0.66499819  1
  H+  H163  1  0.26590510  0.62786160  0.34244475  1
  H+  H164  1  0.14490498  0.32216447  0.83514859  1
  H+  H165  1  0.86032148  0.39887776  0.67449879  1
  H+  H166  1  0.74334030  0.36905890  0.48944550  1
  H+  H167  1  0.38350120  0.60569731  0.83723071  1
  H+  H168  1  0.13179184  0.49264594  0.50018291  1
  H+  H169  1  0.39023660  0.11517411  0.83287898  1
  H+  H170  1  0.72502472  0.12821289  0.17775059  1
  H+  H171  1  0.61030008  0.61517985  0.50534586  1
  H+  H172  1  0.88757884  0.85584166  0.66188156  1
  H+  H173  1  0.71401751  0.60512752  0.32586700  1
  H+  H174  1  0.28219706  0.87908830  0.33999899  1
  H+  H175  1  0.88158497  0.02252195  0.32865409  1
  H+  H176  1  0.36042742  0.38206084  0.65465207  1
  H+  H177  1  0.10569412  0.85181992  0.16442018  1
  H+  H178  1  0.11530947  0.63907050  0.33198501  1
  H+  H179  1  0.90069174  0.77938467  0.84344092  1
  H+  H180  1  0.58715485  0.33709385  0.32081151  1
  H+  H181  1  0.76098489  0.36660840  0.32728424  1
  H+  H182  1  0.84730353  0.88662131  0.33901023  1
  H+  H183  1  0.61865145  0.35001885  0.85426908  1
  H+  H184  1  0.23803986  0.87391795  -0.00425015  1
  H+  H185  1  0.23588611  0.37352136  0.51191861  1
  H+  H186  1  0.47399289  0.69278424  0.28280716  1
  H+  H187  1  0.02290366  0.63164467  0.83454890  1
  H+  H188  1  0.36468553  0.23432205  0.14481681  1
  H+  H189  1  0.35275384  0.20727632  0.34289985  1
  H+  H190  1  0.87317990  0.12632178  0.67602176  1
  H+  H191  1  0.75345148  0.40076795  0.34076028  1
  H+  H192  1  0.46414893  0.34723995  0.32780553  1
  H+  H193  1  0.37898571  0.23006877  0.81538859  1
  H+  H194  1  0.88330030  0.52072326  0.83922588  1
  H+  H195  1  0.87236479  0.02586518  0.17203400  1
  H+  H196  1  0.89034130  0.26127103  0.33181769  1
  H+  H197  1  0.84315997  0.18842722  0.50546563  1
  H+  H198  1  0.78415732  0.89197573  1.00340065  1
  H+  H199  1  0.92645454  0.83442881  0.93556693  1
  H+  H200  1  0.63273380  0.11369880  0.32809824  1
  H+  H201  1  -0.00813523  0.63551463  0.32652739  1
  H+  H202  1  0.09707232  0.45905117  0.65913039  1
  H+  H203  1  0.09027419  0.47862930  0.81911570  1
  H+  H204  1  0.63823338  0.76745709  0.65731155  1
  H+  H205  1  0.96360628  0.36370931  0.99603568  1
  H+  H206  1  0.71962947  0.57081386  0.51969308  1
  H+  H207  1  0.62794671  0.12374149  0.17883155  1
  H+  H208  1  0.73362849  0.60107062  0.17530082  1
  H+  H209  1  0.82170348  0.65307685  0.11042504  1
  H+  H210  1  0.86076325  0.71863060  0.01021578  1
  H+  H211  1  0.15928533  0.03409832  0.84246502  1
  H+  H212  1  0.40309899  0.78536844  0.98592060  1
  H+  H213  1  0.47096828  0.10754257  0.67429398  1
  H+  H214  1  0.85564525  0.23066368  0.16693924  1
  H+  H215  1  0.38554902  0.52285519  0.98979444  1
  H+  H216  1  0.12709584  0.73070752  0.67972427  1
  H+  H217  1  0.89124144  0.86236665  0.84142396  1
  H+  H218  1  -0.01725817  0.62764310  0.51839337  1
  H+  H219  1  0.07111339  0.87870627  0.35348009  1
  H+  H220  1  0.76913787  0.86707835  0.82417204  1
  H+  H221  1  0.00921336  0.37168372  0.66156178  1
  H+  H222  1  0.78629157  0.68489080  0.48180099  1
  H+  H223  1  0.91924075  0.32554026  0.23749234  1
  H+  H224  1  0.56969059  0.45200918  0.83955439  1
  H+  H225  1  0.36325657  0.62419155  0.15139453  1
  H+  H226  1  0.24460325  0.09695965  0.16702431  1
  H+  H227  1  0.38835137  0.85827578  0.51066246  1
  H+  H228  1  0.89711223  1.01685391  -0.00567424  1
  H+  H229  1  0.98875477  0.89601414  0.17230672  1
  H+  H230  1  0.61350425  0.22539870  0.01444745  1
  H+  H231  1  0.65303906  0.56053782  0.77101961  1
  H+  H232  1  0.22115913  0.09841209  0.32921153  1
  H+  H233  1  0.89364116  0.12407988  0.84539543  1
  H+  H234  1  0.90966844  0.78780680  0.50204908  1
  H+  H235  1  0.24886286  0.14968542  0.52167151  1
  H+  H236  1  0.22868994  0.86401096  0.84487537  1
  H+  H237  1  0.12439936  0.96851082  0.15455932  1
  H+  H238  1  0.36036946  0.38952951  0.00121333  1
  H+  H239  1  0.11990964  0.89316151  0.83230249  1
  H+  H240  1  0.13849487  0.28256040  0.99132672  1
  H+  H241  1  0.27134243  0.39009726  0.00410574  1
  H+  H242  1  0.73502971  0.11691461  0.99600880  1
  H+  H243  1  0.60548892  0.45070406  0.49762351  1
  H+  H244  1  0.58248172  0.15713694  0.39940158  1
  H+  H245  1  0.59460665  0.25077740  0.32020269  1
  H+  H246  1  0.60661339  0.72493338  0.14962036  1
  H+  H247  1  0.45004722  0.34887870  0.89394013  1
  H+  H248  1  0.62721203  0.59649501  -0.00758493  1
  H+  H249  1  0.98139342  0.10343491  0.65824868  1
  H+  H250  1  0.11987391  0.37793642  0.34457701  1
  H+  H251  1  0.52354989  0.13696357  0.83225230  1
  H+  H252  1  0.36950902  0.97447855  0.49773318  1
  H+  H253  1  0.14817421  0.87047352  0.52389712  1
  H+  H254  1  0.69469879  0.77254102  0.28846989  1
  H+  H255  1  0.78093023  0.63871395  0.82493019  1
  H+  H256  1  1.02042369  0.12838488  0.34046434  1
  H+  H257  1  0.60279858  0.46715666  1.00944393  1
  H+  H258  1  0.62539770  0.26908104  0.17177377  1
  H+  H259  1  0.85796324  0.64411295  0.33231767  1
  H+  H260  1  0.84689141  0.37315187  0.17552844  1
  H+  H261  1  0.66322146  0.07387116  0.57002860  1
  H+  H262  1  0.91690613  0.39805446  0.34965131  1
  H+  H263  1  0.89172003  0.62623806  0.51107609  1
  H+  H264  1  0.13844732  0.86226798  0.66963119  1
  H+  H265  1  0.92852606  0.48814710  0.33374543  1
  H+  H266  1  0.84490047  0.72553461  0.33107580  1
  H+  H267  1  0.77509757  0.87939998  0.67046920  1
  H+  H268  1  0.37821895  0.27529845  0.97980493  1
  H+  H269  1  0.38039224  0.64641335  0.99478581  1
  H+  H270  1  0.63175203  0.50422388  0.17350333  1
  H+  H271  1  0.18232476  0.89739053  0.30757449  1
  H+  H272  1  0.41117130  0.33628672  0.45732145  1
  H+  H273  1  0.84943757  0.61789237  0.16888199  1
  H+  H274  1  0.86517438  0.96730446  0.67299696  1
  H+  H275  1  0.41729732  0.57664293  0.89434328  1
  H+  H276  1  -0.04701897  0.37059294  0.83685396  1
  H+  H277  1  0.86164934  0.88021771  0.49384188  1
  H+  H278  1  0.48168821  0.11501944  -0.00732561  1
  H+  H279  1  0.37964408  0.26837236  0.64363715  1
  H+  H280  1  0.61909684  0.13884379  0.01329778  1
  H+  H281  1  0.13235714  0.51285224  0.33213262  1
  H+  H282  1  0.28781390  0.64926867  0.67021846  1
  H+  H283  1  0.27601881  0.61814490  0.12966725  1
  H+  H284  1  0.17658951  0.56118150  0.70112907  1
  H+  H285  1  0.63039749  0.51013059  0.67214921  1
  H+  H286  1  0.64700578  0.35391706  0.48696096  1
  H+  H287  1  0.13043393  0.99270017  0.49182911  1
  H+  H288  1  0.91834122  0.20223639  0.04340394  1
  H+  H289  1  0.17470775  0.84053516  0.25155453  1
  H+  H290  1  0.26132664  0.16299724  0.05422536  1
  H+  H291  1  0.83629132  0.91694187  0.06581202  1
  H+  H292  1  0.17234065  0.34876018  0.93422264  1
  H+  H293  1  0.35735467  0.67987235  0.05511546  1
  H+  H294  1  0.84366492  0.67089248  0.76928056  1
  H+  H295  1  0.58072024  0.64596575  0.44604191  1
  H+  H296  1  0.41345767  0.57956587  0.56778738  1
  H+  H297  1  0.66346639  0.83113980  0.89551135  1
  H+  H298  1  0.88481714  0.09489582  0.50467401  1
  H+  H299  1  0.90827252  0.34297338  0.59340256  1
  H+  H300  1  0.14138545  0.62048269  0.67422271  1
  H+  H301  1  0.13623839  0.10512814  0.32127126  1
  H+  H302  1  0.66221170  0.82987224  0.22268947  1
  H+  H303  1  0.72227528  0.11119180  0.32745416  1
  H+  H304  1  0.28665781  0.30601078  0.79113861  1
  H+  H305  1  0.60926968  0.71571990  0.35515557  1
  H+  H306  1  0.82995539  0.67140152  0.42405151  1
  H+  H307  1  0.17401026  0.84125589  0.93932354  1
  H+  H308  1  0.57314899  0.40641079  0.40169458  1
  H+  H309  1  0.08903385  0.91436357  0.73667850  1
  H+  H310  1  0.82276730  0.17218088  0.10697451  1
  H+  H311  1  0.76986952  0.87650609  0.49513620  1
  H+  H312  1  0.35923482  0.37876631  0.50311898  1
  H+  H313  1  0.84765564  0.46558517  0.02135850  1
  H+  H314  1  0.66754220  0.82858839  0.59968813  1
  H+  H315  1  0.32938741  0.41176197  0.09808042  1
  H+  H316  1  0.05190108  0.42079755  0.76017636  1
  H+  H317  1  0.32945242  0.15275549  0.44608735  1
  H+  H318  1  0.36555134  0.08609367  0.17932382  1
  H+  H319  1  0.16600072  0.32515738  0.27018884  1
  H+  H320  1  0.91756070  0.07206650  0.60164403  1
  H+  H321  1  0.42305806  0.83633235  0.89388430  1
  H+  H322  1  0.40883581  0.32081394  0.22970631  1
  H+  H323  1  0.82484106  0.15955300  0.77837282  1
  H+  H324  1  0.53665232  0.71005579  0.77608912  1
  H+  H325  1  0.41084181  0.06955901  0.27260722  1
  H+  H326  1  0.50129860  0.18995680  0.56285407  1
  H+  H327  1  0.15596999  0.57076680  0.27224737  1
  H+  H328  1  0.17698770  0.58719242  0.57566744  1
  H+  H329  1  0.97289405  0.95722522  0.21333422  1
  H+  H330  1  0.60152819  0.37694727  0.01249929  1
  H+  H331  1  0.59045234  0.91720997  0.73328935  1
  H+  H332  1  0.57976145  0.65537613  0.72168178  1
  H+  H333  1  0.65896833  0.56771853  0.23605251  1
  H+  H334  1  0.90245157  0.84128585  0.26510811  1
  H+  H335  1  0.71440665  0.59624660  0.99591856  1
  H+  H336  1  0.36734134  0.88728616  0.67901277  1
  H+  H337  1  0.91160713  0.08307771  0.26927525  1
  H+  H338  1  0.72926923  0.93979633  0.94429919  1
  H+  H339  1  0.82344349  0.91619629  0.40083793  1
  H+  H340  1  0.90760729  0.58383171  0.60209702  1
  H+  H341  1  0.16943023  0.34043055  0.57466858  1
  H+  H342  1  0.09489719  0.67082827  0.73903848  1
  H+  H343  1  0.66336770  0.55608404  0.57875813  1
  H+  H344  1  0.09409476  0.19954194  0.76543745  1
  H+  H345  1  0.18454574  0.56294505  0.89978195  1
  H+  H346  1  0.63309826  0.01917933  0.84601654  1
  H+  H347  1  0.27838424  0.62350773  0.82579127  1
  H+  H348  1  0.33734808  0.66699107  0.76624364  1
  H+  H349  1  0.07924504  0.91724609  0.09190259  1
  H+  H350  1  0.58509408  0.91264467  0.09764776  1
  H+  H351  1  0.87568272  0.44698295  0.43270736  1
  H+  H352  1  0.41333117  0.58209975  0.22360825  1
  H+  H353  1  0.77332770  0.63307645  0.67701182  1
  H+  H354  1  0.82299304  0.15092152  0.40147734  1
  H+  H355  1  0.93698561  0.09194493  0.89285028  1
  H+  H356  1  0.90420547  0.56490557  0.93787361  1
  H+  H357  1  0.19140874  0.06310869  0.22907583  1
  H+  H358  1  0.83143167  0.89863029  0.76713919  1
  H+  H359  1  0.75555189  0.37259737  0.17550737  1
  H+  H360  1  0.57743099  0.16020862  0.10304163  1
  H+  H361  1  0.57355797  0.91106692  0.40200450  1
  H+  H362  1  0.42290655  0.08983440  0.93303221  1
  H+  H363  1  0.63605001  0.60108794  0.66077019  1
  H+  H364  1  0.41674715  0.33058112  0.58636615  1
  H+  H365  1  0.33310097  0.40283993  0.71813414  1
  H+  H366  1  0.36067259  0.92799638  0.05548693  1
  H+  H367  1  0.32786846  0.40755992  0.41156951  1
  H+  H368  1  0.85495381  0.62779311  0.01047618  1
  H+  H369  1  0.09372547  0.41366958  0.40342837  1
  H+  H370  1  0.06737964  0.40506773  0.06597271  1
  H+  H371  1  0.63279378  0.31746816  0.23405910  1
  H+  H372  1  0.54961921  0.39983833  0.74384181  1
  H+  H373  1  0.42022464  0.81996827  0.23589806  1
  H+  H374  1  0.08403184  0.66399356  0.06169758  1
  H+  H375  1  0.66489713  0.09506704  0.24451328  1
  H+  H376  1  0.33414400  0.90645502  0.40357103  1
  H+  H377  1  0.90515546  0.57009070  0.23966119  1
  H+  H378  1  0.58467589  0.16575871  0.74002636  1
  H+  H379  1  0.42352962  0.08696827  0.61118282  1
  H+  H380  1  0.90096385  0.33573505  0.90064123  1
  H+  H381  1  0.07220810  0.95384467  0.43263465  1
  H+  H382  1  0.20635932  0.09056993  0.90050116  1
  H+  H383  1  0.67213533  0.08648316  0.93822468  1
  O2-  O384  1  0.07458512  0.17680926  0.15014122  1
  O2-  O385  1  0.07408160  0.14872764  0.47542208  1
  O2-  O386  1  0.08144503  0.22840850  0.79808591  1
  O2-  O387  1  0.07830078  0.41381504  0.14938395  1
  O2-  O388  1  0.10123542  0.43107317  0.48519358  1
  O2-  O389  1  0.03629078  0.44252318  0.79607478  1
  O2-  O390  1  0.06345664  0.64990714  0.14779859  1
  O2-  O391  1  0.07798473  0.67089894  0.50054081  1
  O2-  O392  1  0.08470723  0.66542345  0.82125405  1
  O2-  O393  1  0.07555672  0.91282972  0.13817232  1
  O2-  O394  1  0.07196097  0.96653522  0.47654211  1
  O2-  O395  1  0.09423952  0.92688622  0.81590256  1
  O2-  O396  1  0.33407412  0.17777946  0.12210230  1
  O2-  O397  1  0.33583095  0.16329666  0.49047632  1
  O2-  O398  1  0.34371627  0.17174107  0.79904733  1
  O2-  O399  1  0.32861346  0.41138285  0.14372790  1
  O2-  O400  1  0.32795068  0.41083476  0.49053560  1
  O2-  O401  1  0.32339122  0.36828403  0.79315615  1
  O2-  O402  1  0.33691307  0.65921701  0.13548230  1
  O2-  O403  1  0.33344467  0.66427382  0.48300554  1
  O2-  O404  1  0.33750706  0.66624086  0.81154576  1
  O2-  O405  1  0.36556450  0.91583329  0.14014433  1
  O2-  O406  1  0.33625825  0.91487323  0.48415477  1
  O2-  O407  1  0.33229262  0.91750916  0.81823942  1
  O2-  O408  1  0.57566221  0.16073852  0.14931359  1
  O2-  O409  1  0.59707663  0.16028702  0.47455817  1
  O2-  O410  1  0.58577889  0.16905616  0.81968577  1
  O2-  O411  1  0.57930518  0.41348231  0.14800533  1
  O2-  O412  1  0.57878414  0.39460376  0.47638733  1
  O2-  O413  1  0.54336212  0.38950510  0.83086717  1
  O2-  O414  1  0.57659752  0.66623518  0.13182431  1
  O2-  O415  1  0.58269774  0.64811442  0.49142234  1
  O2-  O416  1  0.55544365  0.67347762  0.79570731  1
  O2-  O417  1  0.58900467  0.91078228  0.14261671  1
  O2-  O418  1  0.58160795  0.90178062  0.48227731  1
  O2-  O419  1  0.58499910  0.91757572  0.81121560  1
  O2-  O420  1  0.81825013  0.16930719  0.15212679  1
  O2-  O421  1  0.81744983  0.13455181  0.48307860  1
  O2-  O422  1  0.82256448  0.16445899  0.82286087  1
  O2-  O423  1  0.81716565  0.40394212  0.16078444  1
  O2-  O424  1  0.85519899  0.43991421  0.47609487  1
  O2-  O425  1  0.82017754  0.41851628  0.81171093  1
  O2-  O426  1  0.81632854  0.64633251  0.15555006  1
  O2-  O427  1  0.83347180  0.67590959  0.46993728  1
  O2-  O428  1  0.84252968  0.66898318  0.81464802  1
  O2-  O429  1  0.82655053  0.92455467  0.14015008  1
  O2-  O430  1  0.82998022  0.90909585  0.47849637  1
  O2-  O431  1  0.82986511  0.89366679  0.81202546  1
  O2-  O432  1  0.20710333  0.04509228  0.19094267  1
  O2-  O433  1  0.19847837  0.15263583  0.54145274  1
  O2-  O434  1  0.19731293  0.09416593  0.85665220  1
  O2-  O435  1  0.16319986  0.33450121  0.19331190  1
  O2-  O436  1  0.17272713  0.34722864  0.52648392  1
  O2-  O437  1  0.18706542  0.37508259  0.85814807  1
  O2-  O438  1  0.15862099  0.58923509  0.19266884  1
  O2-  O439  1  0.17350500  0.58852875  0.53105444  1
  O2-  O440  1  0.18614947  0.53878212  0.85823006  1
  O2-  O441  1  0.13732989  0.82038292  0.17858139  1
  O2-  O442  1  0.18011151  0.84240867  0.53627641  1
  O2-  O443  1  0.16906311  0.83599156  0.86199497  1
  O2-  O444  1  0.40743211  0.06921722  0.19147643  1
  O2-  O445  1  0.45942373  0.13495337  0.54039360  1
  O2-  O446  1  0.41954845  0.08664972  0.85255768  1
  O2-  O447  1  0.41167364  0.32618216  0.18446848  1
  O2-  O448  1  0.41307074  0.32568529  0.50065173  1
  O2-  O449  1  0.45217282  0.35047970  0.84793427  1
  O2-  O450  1  0.40930454  0.57542308  0.17885641  1
  O2-  O451  1  0.41316810  0.57636938  0.52206621  1
  O2-  O452  1  0.41501129  0.57538373  0.84885078  1
  O2-  O453  1  0.42418925  0.82270768  0.19013299  1
  O2-  O454  1  0.41809172  0.82826217  0.52650627  1
  O2-  O455  1  0.41956150  0.83444185  0.84824644  1
  O2-  O456  1  0.66463209  0.09933254  0.19632964  1
  O2-  O457  1  0.66150663  0.06758760  0.52465647  1
  O2-  O458  1  0.66148552  0.07833612  0.86370974  1
  O2-  O459  1  0.65290020  0.32790433  0.18913012  1
  O2-  O460  1  0.68255861  0.32808574  0.49970499  1
  O2-  O461  1  0.65883017  0.32998492  0.86541567  1
  O2-  O462  1  0.66624843  0.56615420  0.19058386  1
  O2-  O463  1  0.66151226  0.55440132  0.53266406  1
  O2-  O464  1  0.65519908  0.57004552  0.81490474  1
  O2-  O465  1  0.66574420  0.83044105  0.17798789  1
  O2-  O466  1  0.66740645  0.82243382  0.52116589  1
  O2-  O467  1  0.65904574  0.82517822  0.85052209  1
  O2-  O468  1  0.90272343  0.08394411  0.19160975  1
  O2-  O469  1  0.92012940  0.06929610  0.51822666  1
  O2-  O470  1  0.93725247  0.10645081  0.84971602  1
  O2-  O471  1  0.91259004  0.32801828  0.19240140  1
  O2-  O472  1  0.93397554  0.36610180  0.51860890  1
  O2-  O473  1  0.89511160  0.33100738  0.85548168  1
  O2-  O474  1  0.90166210  0.56664529  0.19486860  1
  O2-  O475  1  0.91786329  0.59456624  0.52912982  1
  O2-  O476  1  0.91847855  0.57940873  0.85739194  1
  O2-  O477  1  0.94352982  0.89800616  0.19876330  1
  O2-  O478  1  0.92585283  0.84249985  0.52261980  1
  O2-  O479  1  0.92823714  0.83917996  0.85863347  1
  O2-  O480  1  0.16277439  0.07025952  0.30913770  1
  O2-  O481  1  0.17582968  0.09829331  0.59659173  1
  O2-  O482  1  0.22816308  0.08602112  0.98418607  1
  O2-  O483  1  0.16375780  0.31977818  0.31598152  1
  O2-  O484  1  0.16703514  0.32982569  0.63930937  1
  O2-  O485  1  0.16948293  0.34440869  0.97966021  1
  O2-  O486  1  0.16124004  0.57360802  0.31727378  1
  O2-  O487  1  0.16950692  0.58291746  0.66215704  1
  O2-  O488  1  0.19459137  0.61651969  0.96007429  1
  O2-  O489  1  0.18751942  0.84787908  0.29627956  1
  O2-  O490  1  0.17115319  0.83326548  0.65255846  1
  O2-  O491  1  0.17568373  0.84324929  0.98502371  1
  O2-  O492  1  0.41248465  0.07201476  0.31778099  1
  O2-  O493  1  0.41207736  0.07761781  0.65581350  1
  O2-  O494  1  0.42152368  0.08424207  0.97809351  1
  O2-  O495  1  0.40392227  0.31367527  0.31172495  1
  O2-  O496  1  0.41072757  0.33018916  0.63090114  1
  O2-  O497  1  0.41767110  0.33542955  0.96944609  1
  O2-  O498  1  0.43990960  0.63422141  0.29831450  1
  O2-  O499  1  0.41863384  0.58163936  0.64353418  1
  O2-  O500  1  0.41753859  0.58189796  0.97188174  1
  O2-  O501  1  0.41380654  0.81871499  0.31249703  1
  O2-  O502  1  0.42384385  0.83718545  0.65041023  1
  O2-  O503  1  0.43249839  0.84575870  0.96984577  1
  O2-  O504  1  0.66310479  0.08410938  0.30971225  1
  O2-  O505  1  0.67204881  0.08262450  0.64832924  1
  O2-  O506  1  0.67446931  0.08896474  0.98428881  1
  O2-  O507  1  0.59085126  0.29409282  0.29461714  1
  O2-  O508  1  0.57797871  0.26738825  0.60186253  1
  O2-  O509  1  0.65650339  0.32598622  0.99021145  1
  O2-  O510  1  0.65324513  0.57267182  0.31101991  1
  O2-  O511  1  0.66784032  0.56915876  0.65370624  1
  O2-  O512  1  0.65447159  0.56219948  0.98136912  1
  O2-  O513  1  0.66869503  0.80398686  0.30596233  1
  O2-  O514  1  0.66746086  0.82906356  0.64522738  1
  O2-  O515  1  0.69409675  0.88482452  0.96465064  1
  O2-  O516  1  0.91602518  0.08372334  0.31485973  1
  O2-  O517  1  0.91845046  0.07403033  0.64673188  1
  O2-  O518  1  0.92810167  0.07739117  0.97819087  1
  O2-  O519  1  0.92622068  0.32020225  0.31458577  1
  O2-  O520  1  0.90267328  0.33530310  0.63863582  1
  O2-  O521  1  0.90152815  0.33315292  0.98102066  1
  O2-  O522  1  0.92534652  0.60253816  0.32197097  1
  O2-  O523  1  0.90437619  0.58021763  0.64828984  1
  O2-  O524  1  0.90488998  0.56606422  0.98333322  1
  O2-  O525  1  0.89107371  0.82844461  0.30946469  1
  O2-  O526  1  0.91661823  0.82333884  0.64797823  1
  O2-  O527  1  0.92812052  0.83272309  0.98133188  1
  O2-  O528  1  0.09016949  0.18024424  0.02414222  1
  O2-  O529  1  0.08052456  0.15489948  0.35707658  1
  O2-  O530  1  0.08585641  0.15578524  0.67309514  1
  O2-  O531  1  0.05847703  0.39956582  0.02152259  1
  O2-  O532  1  0.08879283  0.40822828  0.35847169  1
  O2-  O533  1  0.07039717  0.39971839  0.67460280  1
  O2-  O534  1  0.08660716  0.66922888  0.01696459  1
  O2-  O535  1  0.08687760  0.67397054  0.33722614  1
  O2-  O536  1  0.10073525  0.67003104  0.69427177  1
  O2-  O537  1  0.09415431  0.92871206  0.01936264  1
  O2-  O538  1  0.05222483  0.92080515  0.35614127  1
  O2-  O539  1  0.08861542  0.90679675  0.69170025  1
  O2-  O540  1  0.23510803  0.16252359  0.01435210  1
  O2-  O541  1  0.32141599  0.14752923  0.35930201  1
  O2-  O542  1  0.32282835  0.16335676  0.67123687  1
  O2-  O543  1  0.33242767  0.41967133  0.01961150  1
  O2-  O544  1  0.32736699  0.40397104  0.36591401  1
  O2-  O545  1  0.33119589  0.41205470  0.67351325  1
  O2-  O546  1  0.35752186  0.68380563  0.01024648  1
  O2-  O547  1  0.32634348  0.65893717  0.35827708  1
  O2-  O548  1  0.34694535  0.67383391  0.68624606  1
  O2-  O549  1  0.34955257  0.92502392  0.01147513  1
  O2-  O550  1  0.34020215  0.90788490  0.35843019  1
  O2-  O551  1  0.33452311  0.91437591  0.69464147  1
  O2-  O552  1  0.58517402  0.16432006  0.02961034  1
  O2-  O553  1  0.57900590  0.15638642  0.35377845  1
  O2-  O554  1  0.57830421  0.15975144  0.69483799  1
  O2-  O555  1  0.56957874  0.40614304  0.02658256  1
  O2-  O556  1  0.56558710  0.40727389  0.35641576  1
  O2-  O557  1  0.56255194  0.41803264  0.70112771  1
  O2-  O558  1  0.57951182  0.65952577  0.01497593  1
  O2-  O559  1  0.57559417  0.65429492  0.36776751  1
  O2-  O560  1  0.58535409  0.65612993  0.67663367  1
  O2-  O561  1  0.58849455  0.92215018  0.01863845  1
  O2-  O562  1  0.56779045  0.91077427  0.35703701  1
  O2-  O563  1  0.59111788  0.91833873  0.68763355  1
  O2-  O564  1  0.86057938  0.18668430  0.02989244  1
  O2-  O565  1  0.82559068  0.15686969  0.35656158  1
  O2-  O566  1  0.85042997  0.16368898  0.69311136  1
  O2-  O567  1  0.81612835  0.40517657  0.03643975  1
  O2-  O568  1  0.92450816  0.45230090  0.36821516  1
  O2-  O569  1  0.83520264  0.43332343  0.68955924  1
  O2-  O570  1  0.82735266  0.65954346  0.02708515  1
  O2-  O571  1  0.81995227  0.66571072  0.34770230  1
  O2-  O572  1  0.83493970  0.66459676  0.68993110  1
  O2-  O573  1  0.84279476  0.91565719  0.02041092  1
  O2-  O574  1  0.82082761  0.91984886  0.35547909  1
  O2-  O575  1  0.83517459  0.90594862  0.68582220  1
