# generated using pymatgen
data_H2O
_symmetry_space_group_name_H-M   'P 1'
_cell_length_a   17.98705943
_cell_length_b   17.99284611
_cell_length_c   22.01894671
_cell_angle_alpha   89.98056565
_cell_angle_beta   89.99300975
_cell_angle_gamma   119.98564926
_symmetry_Int_Tables_number   1
_chemical_formula_structural   H2O
_chemical_formula_sum   'H384 O192'
_cell_volume   6172.34143489
_cell_formula_units_Z   192
loop_
 _symmetry_equiv_pos_site_id
 _symmetry_equiv_pos_as_xyz
  1  'x, y, z'
loop_
 _atom_type_symbol
 _atom_type_oxidation_number
  H+  1.0
  O2-  -2.0
loop_
 _atom_site_type_symbol
 _atom_site_label
 _atom_site_symmetry_multiplicity
 _atom_site_fract_x
 _atom_site_fract_y
 _atom_site_fract_z
 _atom_site_occupancy
  H+  H0  1  0.41899196  0.20749362  0.44506081  1
  H+  H1  1  0.53161118  0.89686931  0.82856070  1
  H+  H2  1  0.13415334  0.86098992  0.17526212  1
  H+  H3  1  0.07512982  0.94170069  0.78301335  1
  H+  H4  1  0.21365777  0.60590640  0.50518350  1
  H+  H5  1  0.61648254  0.38330809  0.15445921  1
  H+  H6  1  0.90944329  0.65391356  0.63876478  1
  H+  H7  1  0.27431624  0.88662623  0.69187485  1
  H+  H8  1  0.55613013  0.92812349  0.67666823  1
  H+  H9  1  0.98008704  0.36509858  0.49149391  1
  H+  H10  1  0.73135041  0.61049249  0.33521575  1
  H+  H11  1  0.89657721  0.03105103  0.99962859  1
  H+  H12  1  0.87711663  0.64757333  0.33565685  1
  H+  H13  1  0.39396901  0.87425884  0.84244920  1
  H+  H14  1  0.32212931  0.02623518  0.54134584  1
  H+  H15  1  0.10835818  0.37901424  0.48211763  1
  H+  H16  1  0.12823414  0.02715156  0.30963632  1
  H+  H17  1  0.37105186  0.27435456  0.99666949  1
  H+  H18  1  0.02867013  0.64004527  0.48099033  1
  H+  H19  1  0.83510714  0.16930654  0.39932277  1
  H+  H20  1  0.12641788  0.58777259  0.66760571  1
  H+  H21  1  0.21486937  0.41474513  0.90992931  1
  H+  H22  1  0.88855319  0.18689250  0.81966243  1
  H+  H23  1  0.64941015  0.77939301  0.33808315  1
  H+  H24  1  0.38938466  0.86745384  -0.00287962  1
  H+  H25  1  0.73680683  0.11246928  0.83442804  1
  H+  H26  1  0.64951755  0.11221823  0.98863962  1
  H+  H27  1  0.67885569  0.84329242  0.88744033  1
  H+  H28  1  0.11628923  0.71406843  0.00777399  1
  H+  H29  1  0.64050536  0.86637982  0.98341363  1
  H+  H30  1  0.30379372  0.15315866  -0.05073021  1
  H+  H31  1  0.22271288  0.34405550  0.16332913  1
  H+  H32  1  0.78686445  0.13382813  0.98597491  1
  H+  H33  1  0.07033439  0.33124212  0.85668518  1
  H+  H34  1  0.27979575  0.40741936  0.82468603  1
  H+  H35  1  0.58569798  0.17042406  0.91072432  1
  H+  H36  1  0.52200024  0.13462694  -0.00388320  1
  H+  H37  1  0.12644705  0.58704106  -0.00609369  1
  H+  H38  1  0.59475329  0.24194979  0.63185750  1
  H+  H39  1  0.66177177  0.79761003  0.18638288  1
  H+  H40  1  0.87609106  0.49705399  0.16697024  1
  H+  H41  1  0.40167968  0.78852770  0.84026464  1
  H+  H42  1  0.51445776  0.12680048  0.68228673  1
  H+  H43  1  0.77859199  0.89556822  0.00388972  1
  H+  H44  1  0.36046495  0.10645402  0.16666215  1
  H+  H45  1  0.23355095  0.36845096  0.67014395  1
  H+  H46  1  0.15841978  0.70489001  0.82558161  1
  H+  H47  1  0.22549654  0.12581492  0.50928941  1
  H+  H48  1  0.83920458  0.91816756  0.40052638  1
  H+  H49  1  0.27676020  0.63597115  0.32529954  1
  H+  H50  1  0.35503869  0.22442194  0.68170962  1
  H+  H51  1  0.74125703  0.61832623  0.63296104  1
  H+  H52  1  0.65453380  0.88007674  0.16427495  1
  H+  H53  1  0.38823405  0.35913282  0.15514696  1
  H+  H54  1  0.26367473  0.37556651  0.33621422  1
  H+  H55  1  0.86799100  0.22598921  0.48938968  1
  H+  H56  1  0.12700685  0.26729723  0.32288072  1
  H+  H57  1  0.63645750  0.36166559  0.48104676  1
  H+  H58  1  0.67299171  0.34747758  0.25880553  1
  H+  H59  1  0.87000011  0.89117146  0.15928597  1
  H+  H60  1  0.82777569  0.31362567  0.64330910  1
  H+  H61  1  0.36457166  0.97168464  0.68212833  1
  H+  H62  1  0.47298401  0.36130016  0.31107976  1
  H+  H63  1  0.00666276  0.32099501  0.64274576  1
  H+  H64  1  0.62415975  0.64509180  0.82277012  1
  H+  H65  1  0.63847065  0.51890158  0.48552148  1
  H+  H66  1  0.62235333  0.63889094  0.34649355  1
  H+  H67  1  0.38382241  0.97074587  0.48318046  1
  H+  H68  1  0.55025629  0.41405188  0.58355607  1
  H+  H69  1  0.73855245  0.39277702  0.16956603  1
  H+  H70  1  0.13547462  0.24952671  0.68744222  1
  H+  H71  1  0.36595794  0.84040026  0.66728226  1
  H+  H72  1  0.38670427  0.64722312  0.83215548  1
  H+  H73  1  0.60926286  0.38429718  0.33041077  1
  H+  H74  1  0.26820061  0.13635446  0.68241237  1
  H+  H75  1  0.51253852  0.37077318  0.15386595  1
  H+  H76  1  0.12607125  0.26815275  0.49834529  1
  H+  H77  1  0.55526624  0.65165708  0.66174950  1
  H+  H78  1  0.52880764  0.13834396  0.49626354  1
  H+  H79  1  0.88114296  0.77683732  0.00327547  1
  H+  H80  1  0.13285807  0.79542713  0.72394598  1
  H+  H81  1  0.61266277  0.47240051  0.63341803  1
  H+  H82  1  0.65371080  0.88174128  0.67719461  1
  H+  H83  1  0.39020121  0.77516827  0.31646418  1
  H+  H84  1  0.65081328  0.13084699  0.66318947  1
  H+  H85  1  0.90875354  0.56608709  0.64124293  1
  H+  H86  1  0.98819073  0.63237924  0.86140851  1
  H+  H87  1  0.35708042  -0.02936807  0.16170329  1
  H+  H88  1  0.89761168  0.05759099  0.57913126  1
  H+  H89  1  0.52374033  0.13755839  0.30844506  1
  H+  H90  1  0.40186747  0.33432164  0.56424965  1
  H+  H91  1  0.76959552  0.89204329  0.15962327  1
  H+  H92  1  0.29311787  0.88549605  0.47684412  1
  H+  H93  1  0.91020702  0.05907334  0.17225709  1
  H+  H94  1  0.77741111  0.15248039  0.14197441  1
  H+  H95  1  0.64686348  0.86663534  0.33358542  1
  H+  H96  1  0.40939102  0.54802850  0.57219715  1
  H+  H97  1  0.71157389  0.37812716  0.69509492  1
  H+  H98  1  0.65375046  0.61632915  0.64400518  1
  H+  H99  1  0.35553905  0.23387975  0.83747667  1
  H+  H100  1  0.34043141  0.68738018  0.67590498  1
  H+  H101  1  0.11408309  0.89345277  0.32861185  1
  H+  H102  1  0.46408323  0.36050131  1.00185575  1
  H+  H103  1  0.39079168  0.74336186  0.00524603  1
  H+  H104  1  0.90254697  0.63856163  0.86098121  1
  H+  H105  1  0.34715369  0.72422149  0.48630991  1
  H+  H106  1  0.91797724  0.10158770  0.23449018  1
  H+  H107  1  0.10203852  0.14043001  0.83969805  1
  H+  H108  1  0.07953943  0.21490870  0.84115517  1
  H+  H109  1  0.85790761  0.37289211  0.85482730  1
  H+  H110  1  0.93636385  0.86167963  0.59245507  1
  H+  H111  1  0.45888020  0.35775632  0.65028406  1
  H+  H112  1  0.11522763  0.47591001  0.32869973  1
  H+  H113  1  0.77716057  0.14681062  0.66761499  1
  H+  H114  1  0.88539247  1.02538162  0.33148938  1
  H+  H115  1  0.66153536  0.79418204  0.67493235  1
  H+  H116  1  0.20339511  0.12784821  0.15536973  1
  H+  H117  1  0.53968309  0.64774068  0.18135484  1
  H+  H118  1  0.67876333  0.08145165  0.93114364  1
  H+  H119  1  0.32449115  0.51892110  0.20830487  1
  H+  H120  1  0.65067675  0.10370613  0.18308972  1
  H+  H121  1  0.22765431  0.88283472  0.84497787  1
  H+  H122  1  0.77686583  0.87977483  0.49545053  1
  H+  H123  1  0.86631847  0.39124403  0.49034991  1
  H+  H124  1  0.96892771  0.35344169  0.16341810  1
  H+  H125  1  0.08686121  0.35769122  0.96882873  1
  H+  H126  1  0.86505578  0.39070434  0.33299973  1
  H+  H127  1  0.01620795  0.12432753  0.49858642  1
  H+  H128  1  0.64133051  0.12224461  0.50121502  1
  H+  H129  1  0.13929095  0.61627142  0.17431304  1
  H+  H130  1  0.99004559  0.11798126  0.99943348  1
  H+  H131  1  0.11533505  0.72843522  0.16124367  1
  H+  H132  1  0.40973756  0.63931627  0.31264586  1
  H+  H133  1  0.64061249  0.02231494  0.32695402  1
  H+  H134  1  0.01926706  0.90616515  0.68163209  1
  H+  H135  1  0.66006372  1.04743310  0.66416775  1
  H+  H136  1  0.66291559  0.29936698  0.15742908  1
  H+  H137  1  0.97509858  0.36492192  0.31963468  1
  H+  H138  1  0.76790349  0.62639441  0.47639935  1
  H+  H139  1  0.85809472  0.63955318  1.01708919  1
  H+  H140  1  0.71570079  0.21515901  0.11440974  1
  H+  H141  1  0.14469865  0.61386159  0.32092853  1
  H+  H142  1  0.61176261  0.16845606  0.10838372  1
  H+  H143  1  0.37087093  0.11225809  0.32481335  1
  H+  H144  1  0.86766782  0.50239720  0.84727561  1
  H+  H145  1  0.87359086  0.65135046  0.16547745  1
  H+  H146  1  0.10975107  0.87484325  0.01755459  1
  H+  H147  1  0.89907544  0.88959126  0.65053468  1
  H+  H148  1  0.86435662  0.63074799  0.47838188  1
  H+  H149  1  0.16324504  0.09206070  0.60639582  1
  H+  H150  1  0.16698720  0.54881085  0.82299089  1
  H+  H151  1  0.72607624  0.36932201  1.01139199  1
  H+  H152  1  0.60857648  0.63168381  0.49017172  1
  H+  H153  1  0.65021845  0.78510749  0.82762220  1
  H+  H154  1  0.91140415  0.84310206  0.23304556  1
  H+  H155  1  0.40004085  0.34115177  0.90995558  1
  H+  H156  1  0.64467161  0.03001533  0.83781068  1
  H+  H157  1  0.78523995  0.90832373  0.81516590  1
  H+  H158  1  0.12876760  0.20545169  0.16215599  1
  H+  H159  1  0.96051310  0.34670182  0.82371842  1
  H+  H160  1  0.39091991  0.86515808  0.31523768  1
  H+  H161  1  0.13906125  0.35791399  0.67663022  1
  H+  H162  1  0.98574646  0.62609305  0.17376157  1
  H+  H163  1  0.47308368  0.12154008  0.85566578  1
  H+  H164  1  0.88576313  0.78306011  0.17411241  1
  H+  H165  1  0.94440515  0.05323916  0.82541609  1
  H+  H166  1  0.83404498  0.67490179  0.10809397  1
  H+  H167  1  0.37561905  0.36482176  0.66013512  1
  H+  H168  1  1.02664997  0.88415786  1.01797630  1
  H+  H169  1  0.72535495  0.40776523  0.66771295  1
  H+  H170  1  0.35519905  0.46525767  0.49077273  1
  H+  H171  1  0.11877132  0.73016883  0.33313662  1
  H+  H172  1  0.53002657  0.88966918  0.33292167  1
  H+  H173  1  0.21893421  0.12968186  0.85406241  1
  H+  H174  1  0.09091706  0.34319176  0.14783856  1
  H+  H175  1  0.86029123  0.38938049  1.02126530  1
  H+  H176  1  0.36364497  0.98398973  0.83572199  1
  H+  H177  1  0.37870623  0.36621195  0.50134614  1
  H+  H178  1  0.10618871  0.90667973  0.69861206  1
  H+  H179  1  0.01431204  0.13570646  0.34339755  1
  H+  H180  1  0.43904592  0.81602896  0.66711431  1
  H+  H181  1  0.36117553  0.39414016  0.82748446  1
  H+  H182  1  0.85290668  0.95636475  0.72625810  1
  H+  H183  1  0.17197031  0.58399547  0.26023139  1
  H+  H184  1  0.39721174  0.85298152  0.50613584  1
  H+  H185  1  0.73375324  0.61897562  0.84352614  1
  H+  H186  1  0.13113020  0.35765531  0.31538740  1
  H+  H187  1  0.88739651  0.87865766  0.84630886  1
  H+  H188  1  0.88580524  0.27660929  0.32395917  1
  H+  H189  1  0.37038518  0.50792472  1.00193937  1
  H+  H190  1  0.98414790  0.61818116  0.32644155  1
  H+  H191  1  0.21457098  0.35588675  0.49714009  1
  H+  H192  1  0.51792543  0.38962836  0.48201288  1
  H+  H193  1  0.37337746  0.10364698  1.00033928  1
  H+  H194  1  0.48355745  0.86413087  0.16731306  1
  H+  H195  1  0.35365026  0.38073300  0.03404137  1
  H+  H196  1  0.34684191  0.44250449  0.73016895  1
  H+  H197  1  0.02783640  0.64012331  0.67439734  1
  H+  H198  1  -0.02803419  0.35695160  -0.00358610  1
  H+  H199  1  0.38051210  0.11010295  0.67691868  1
  H+  H200  1  0.10846928  0.46864576  0.48562700  1
  H+  H201  1  0.52971797  0.89145134  1.00328392  1
  H+  H202  1  0.81961453  0.27270921  0.86219787  1
  H+  H203  1  0.46631486  0.36853252  0.85518752  1
  H+  H204  1  0.60524693  0.47527750  1.00740122  1
  H+  H205  1  0.60813785  -0.00883501  0.48954064  1
  H+  H206  1  0.44610052  0.71518069  1.04122145  1
  H+  H207  1  0.35075693  0.22321866  0.14905733  1
  H+  H208  1  0.38115123  0.27465431  0.31017757  1
  H+  H209  1  0.63828726  0.77739273  0.97705629  1
  H+  H210  1  0.88978498  0.13413563  -0.01469898  1
  H+  H211  1  0.76816469  0.63814956  1.01344685  1
  H+  H212  1  0.63922755  0.11028062  0.31080567  1
  H+  H213  1  0.84122883  0.25193104  0.14103888  1
  H+  H214  1  0.72553286  0.38078268  0.85072302  1
  H+  H215  1  0.88463236  0.86670452  0.32875516  1
  H+  H216  1  0.62244205  0.97666476  0.00264256  1
  H+  H217  1  0.60739882  0.38908252  0.84554823  1
  H+  H218  1  0.38298197  0.12092197  0.84696629  1
  H+  H219  1  0.22613810  0.86511516  0.32312934  1
  H+  H220  1  0.64230549  0.53039318  0.84485288  1
  H+  H221  1  0.53113590  0.89350033  0.49370583  1
  H+  H222  1  0.38468602  0.24858682  0.49257858  1
  H+  H223  1  0.77650183  0.88821541  0.34233241  1
  H+  H224  1  0.53567246  0.64455220  0.82078573  1
  H+  H225  1  0.17953287  0.83827969  0.53393822  1
  H+  H226  1  0.88883570  0.52562910  0.49400708  1
  H+  H227  1  0.56868730  0.41262762  0.78863921  1
  H+  H228  1  0.10325779  0.13631286  0.33873943  1
  H+  H229  1  0.21379760  0.58451537  0.66860973  1
  H+  H230  1  0.09676552  0.57509455  0.83437465  1
  H+  H231  1  0.87491652  0.75072536  0.84437072  1
  H+  H232  1  0.62726512  0.60934841  -0.00798690  1
  H+  H233  1  -0.00824249  0.88224533  0.50475609  1
  H+  H234  1  0.35814289  0.97005680  0.01226960  1
  H+  H235  1  -0.11633211  0.52597346  0.01065534  1
  H+  H236  1  0.35497253  0.38294634  0.33263746  1
  H+  H237  1  0.91670273  0.58964122  0.95352500  1
  H+  H238  1  0.36325260  0.60018329  0.16677526  1
  H+  H239  1  0.87229274  0.73751272  0.33612613  1
  H+  H240  1  0.89149235  0.20714961  0.65719815  1
  H+  H241  1  0.14915606  0.77387517  0.48010399  1
  H+  H242  1  0.36197143  -0.02198856  0.33030139  1
  H+  H243  1  0.22332697  0.85832554  0.17442738  1
  H+  H244  1  0.86160952  -0.02779708  0.49768240  1
  H+  H245  1  0.12708148  0.90078948  0.47401623  1
  H+  H246  1  0.13519584  0.81533772  0.65484275  1
  H+  H247  1  0.64171943  0.28600256  0.86061332  1
  H+  H248  1  0.45171042  0.11480309  0.17411275  1
  H+  H249  1  0.25530622  0.14028762  0.32410650  1
  H+  H250  1  0.35410190  0.46765436  0.13188307  1
  H+  H251  1  0.13004756  0.04176805  0.85719661  1
  H+  H252  1  0.64999543  0.61019008  0.19379162  1
  H+  H253  1  0.86597746  0.89237936  1.00909100  1
  H+  H254  1  0.03189718  0.89078508  0.16808425  1
  H+  H255  1  0.22895910  0.61928465  0.17207102  1
  H+  H256  1  0.39759736  0.53143552  0.83361581  1
  H+  H257  1  0.72827441  0.36897380  0.31969920  1
  H+  H258  1  0.11201102  0.63116662  0.49139571  1
  H+  H259  1  0.77577920  0.38961252  0.48565558  1
  H+  H260  1  0.73913980  0.61483721  0.18583904  1
  H+  H261  1  0.12362516  0.14645935  0.68467600  1
  H+  H262  1  0.87501724  0.23091782  -0.00938200  1
  H+  H263  1  0.46793982  0.59560423  0.51464088  1
  H+  H264  1  0.35536815  0.55308543  0.67205604  1
  H+  H265  1  0.87541468  0.75955109  0.65062162  1
  H+  H266  1  0.50313950  0.62095477  0.98888478  1
  H+  H267  1  0.13086172  0.03422795  0.66747775  1
  H+  H268  1  0.87154200  0.40365258  0.16621549  1
  H+  H269  1  0.82870373  0.30712413  0.67715266  1
  H+  H270  1  0.82773697  0.44728283  0.69088787  1
  H+  H271  1  0.97740670  0.88329669  0.85300018  1
  H+  H272  1  0.77539265  0.13985578  0.33979907  1
  H+  H273  1  0.88470460  0.11512133  0.33219071  1
  H+  H274  1  0.63802903  0.76554937  0.50976658  1
  H+  H275  1  0.61036879  0.47375078  0.33500240  1
  H+  H276  1  0.37117661  0.73111817  0.16103836  1
  H+  H277  1  0.97511141  0.86854792  0.32187198  1
  H+  H278  1  0.77759081  0.13954363  0.49281551  1
  H+  H279  1  0.05152495  0.42950382  0.82361193  1
  H+  H280  1  0.85166615  0.08856142  0.80906218  1
  H+  H281  1  0.57550885  0.40983795  0.09103264  1
  H+  H282  1  0.62153858  -0.02595219  0.15942181  1
  H+  H283  1  0.10013533  0.45549873  0.67817568  1
  H+  H284  1  0.77666483  0.91140767  0.67130230  1
  H+  H285  1  0.22625740  0.85387938  1.00094211  1
  H+  H286  1  0.11257634  0.91345890  0.83951732  1
  H+  H287  1  0.30539443  0.65497490  0.84626058  1
  H+  H288  1  0.84955727  0.45107504  0.78502525  1
  H+  H289  1  0.15778852  0.56790985  0.56646632  1
  H+  H290  1  0.13256580  0.80171797  0.84422017  1
  H+  H291  1  0.67475612  0.57922904  0.54522743  1
  H+  H292  1  0.16737656  0.31706491  0.22599542  1
  H+  H293  1  0.60123943  0.66810132  0.72572087  1
  H+  H294  1  0.33221233  0.90950818  0.07105897  1
  H+  H295  1  0.60083092  0.94073262  0.74172982  1
  H+  H296  1  0.42468602  0.83540877  0.22748209  1
  H+  H297  1  0.67247627  0.82648999  0.56751967  1
  H+  H298  1  0.90025746  0.33747376  0.94609424  1
  H+  H299  1  0.08709736  0.66553017  0.10259646  1
  H+  H300  1  0.10582273  0.45069441  0.99243715  1
  H+  H301  1  0.37838553  0.59998354  0.99162414  1
  H+  H302  1  0.05043925  0.38585869  0.73335322  1
  H+  H303  1  0.33511336  0.66699780  0.38417171  1
  H+  H304  1  0.40258963  0.80907522  0.56759042  1
  H+  H305  1  0.91395338  0.83978520  0.94541108  1
  H+  H306  1  0.92653942  0.59798064  0.23419082  1
  H+  H307  1  0.67324633  0.34818332  0.94924638  1
  H+  H308  1  0.61321314  0.22408507  0.30425011  1
  H+  H309  1  0.54043291  0.65052738  0.33747928  1
  H+  H310  1  0.92927852  0.32512484  0.55234484  1
  H+  H311  1  0.32579699  0.64415296  0.74014055  1
  H+  H312  1  0.32607874  0.40639767  0.42921148  1
  H+  H313  1  0.13181847  0.11435906  0.50680959  1
  H+  H314  1  0.42150024  0.57905173  0.89693251  1
  H+  H315  1  0.06459434  0.36807952  0.08621743  1
  H+  H316  1  0.38096889  0.11811362  0.51618326  1
  H+  H317  1  0.64522870  0.31320910  0.53759007  1
  H+  H318  1  0.61203917  0.22473488  -0.00039614  1
  H+  H319  1  0.87704698  0.69713923  0.78878245  1
  H+  H320  1  0.24082265  0.14004325  0.00154675  1
  H+  H321  1  0.00364696  0.56175561  0.71389899  1
  H+  H322  1  0.57605346  0.66444076  0.43658157  1
  H+  H323  1  0.08506875  0.66439053  0.77432403  1
  H+  H324  1  0.49982653  0.44757966  0.73613914  1
  H+  H325  1  0.08794365  0.93065979  0.38528582  1
  H+  H326  1  0.83595058  0.42662036  0.07951659  1
  H+  H327  1  0.41234556  0.33058366  0.21912514  1
  H+  H328  1  0.53245382  0.49370059  0.73030942  1
  H+  H329  1  0.83964337  0.92300445  0.09592365  1
  H+  H330  1  0.57220918  0.41189883  0.41934104  1
  H+  H331  1  0.67602683  0.57975809  0.27511577  1
  H+  H332  1  0.42271483  0.84473874  0.93508144  1
  H+  H333  1  0.89738755  0.42142672  0.69186638  1
  H+  H334  1  0.14848121  0.09390256  0.25439317  1
  H+  H335  1  0.61252615  0.67249481  0.13316167  1
  H+  H336  1  0.43442454  0.59736197  0.25861468  1
  H+  H337  1  0.83881094  0.66918822  0.41431900  1
  H+  H338  1  0.02432643  0.63037807  0.01510241  1
  H+  H339  1  0.60920495  0.38710664  1.00968931  1
  H+  H340  1  0.67480545  0.09979958  0.56259863  1
  H+  H341  1  0.40781857  0.08183299  0.61630947  1
  H+  H342  1  0.34590493  0.91628339  0.38664421  1
  H+  H343  1  0.61854543  0.14613095  0.85219324  1
  H+  H344  1  0.84579056  0.15657170  0.72780324  1
  H+  H345  1  0.08202386  0.82860641  0.58709400  1
  H+  H346  1  0.10550125  0.14931810  0.06406078  1
  H+  H347  1  0.99647288  0.24906558  0.59579403  1
  H+  H348  1  0.13335495  0.10585749  0.95152991  1
  H+  H349  1  0.34306171  0.67461982  0.10058425  1
  H+  H350  1  0.58219852  0.32210996  0.61798439  1
  H+  H351  1  0.58151455  0.92476857  0.39508222  1
  H+  H352  1  0.36655097  0.88566798  0.16178744  1
  H+  H353  1  0.32442191  0.17109811  0.77964763  1
  H+  H354  1  0.08048316  0.78566874  0.58803712  1
  H+  H355  1  0.31053307  0.17343544  0.38520125  1
  H+  H356  1  0.88135769  0.10363576  0.52014845  1
  H+  H357  1  0.39388533  0.08054174  0.26477074  1
  H+  H358  1  0.89947575  0.87633662  0.50706361  1
  H+  H359  1  0.12591803  0.98831459  0.48545734  1
  H+  H360  1  0.62093684  0.89409290  0.82490171  1
  H+  H361  1  0.59230794  0.91849379  0.09691919  1
  H+  H362  1  0.91422702  0.33421930  0.22570674  1
  H+  H363  1  0.40262271  0.07746949  0.94060512  1
  H+  H364  1  0.09273323  0.66820145  0.39125509  1
  H+  H365  1  0.82837762  0.68777511  0.70116820  1
  H+  H366  1  0.07120368  0.15432454  0.43573659  1
  H+  H367  1  0.92622172  0.59956659  0.54633343  1
  H+  H368  1  0.66657772  0.58434700  0.93700146  1
  H+  H369  1  0.58824079  0.18448524  0.72975965  1
  H+  H370  1  0.61081882  0.22198467  0.47423425  1
  H+  H371  1  0.16498660  0.83289436  0.26484620  1
  H+  H372  1  0.08919233  0.91419735  0.10890267  1
  H+  H373  1  0.16783513  0.83549956  0.94240696  1
  H+  H374  1  0.55910024  0.66870041  0.04495991  1
  H+  H375  1  0.83659080  0.42048575  0.39288520  1
  H+  H376  1  0.08930551  0.17412931  0.74898460  1
  H+  H377  1  0.14068856  0.55339228  0.93123341  1
  H+  H378  1  0.33748077  0.92259242  0.77710929  1
  H+  H379  1  0.31664179  0.16035388  0.09247976  1
  H+  H380  1  0.89213256  0.53024871  0.32625803  1
  H+  H381  1  0.67997975  0.07006927  0.23817088  1
  H+  H382  1  0.08311347  0.41523063  0.38733061  1
  H+  H383  1  0.27162154  0.70780888  0.44313820  1
  O2-  O384  1  0.10651922  0.14763216  0.14174840  1
  O2-  O385  1  0.07533477  0.15404699  0.48143340  1
  O2-  O386  1  0.06493312  0.16093486  0.81963878  1
  O2-  O387  1  0.05852708  0.36898082  0.13046881  1
  O2-  O388  1  0.07824240  0.41086247  0.46664801  1
  O2-  O389  1  0.02023021  0.36910636  0.80865797  1
  O2-  O390  1  0.08371560  0.66674964  0.14786589  1
  O2-  O391  1  0.09104562  0.66730180  0.47112592  1
  O2-  O392  1  0.09667849  0.67979775  0.81868773  1
  O2-  O393  1  0.09147581  0.91296346  0.15450720  1
  O2-  O394  1  0.09501399  0.93091353  0.46551911  1
  O2-  O395  1  0.07753200  0.94040821  0.82840885  1
  O2-  O396  1  0.31446709  0.16137720  0.13679959  1
  O2-  O397  1  0.37079653  0.19150119  0.47264506  1
  O2-  O398  1  0.32540667  0.17206242  0.82512664  1
  O2-  O399  1  0.33236392  0.40725027  0.11737940  1
  O2-  O400  1  0.32549666  0.40448503  0.47523211  1
  O2-  O401  1  0.33826890  0.42899829  0.80775821  1
  O2-  O402  1  0.33801793  0.67027806  0.14545953  1
  O2-  O403  1  0.29905271  0.67807277  0.46126968  1
  O2-  O404  1  0.35434611  0.67746378  0.81866973  1
  O2-  O405  1  0.33127677  0.91081830  0.14658207  1
  O2-  O406  1  0.35572235  0.91187526  0.46739075  1
  O2-  O407  1  0.33312478  0.92238699  0.82234153  1
  O2-  O408  1  0.66294902  0.22327979  0.11577068  1
  O2-  O409  1  0.57963154  0.15815310  0.47099316  1
  O2-  O410  1  0.58693009  0.17573614  0.86500085  1
  O2-  O411  1  0.57439094  0.40360759  0.13793148  1
  O2-  O412  1  0.57706881  0.41579255  0.46535770  1
  O2-  O413  1  0.57530452  0.41934120  0.83267070  1
  O2-  O414  1  0.60185990  0.68049197  0.17539471  1
  O2-  O415  1  0.57439289  0.65983128  0.48229715  1
  O2-  O416  1  0.59491243  0.67399565  0.80355151  1
  O2-  O417  1  0.59038073  0.91387514  0.14207930  1
  O2-  O418  1  0.56791974  0.93977385  0.46586133  1
  O2-  O419  1  0.59196741  0.92728706  0.81238756  1
  O2-  O420  1  0.79634194  0.20348983  0.11621726  1
  O2-  O421  1  0.83871635  0.16369979  0.47949977  1
  O2-  O422  1  0.84114972  0.13785358  0.79933576  1
  O2-  O423  1  0.84162468  0.43577537  0.15265443  1
  O2-  O424  1  0.83841800  0.42374652  0.47500567  1
  O2-  O425  1  0.83443236  0.44361186  0.82860994  1
  O2-  O426  1  0.83884516  0.67867928  0.15328681  1
  O2-  O427  1  0.83149392  0.65984115  0.46320084  1
  O2-  O428  1  0.85333517  0.68940091  0.82958715  1
  O2-  O429  1  0.83903560  0.92238230  0.14207301  1
  O2-  O430  1  0.83760793  0.91359951  0.47998104  1
  O2-  O431  1  0.84697088  0.93987817  0.80000498  1
  O2-  O432  1  0.14631433  0.10603210  0.17485157  1
  O2-  O433  1  0.16704798  0.08867030  0.52395056  1
  O2-  O434  1  0.15968590  0.10299554  0.87106193  1
  O2-  O435  1  0.16542261  0.30720980  0.18088325  1
  O2-  O436  1  0.15328218  0.32961694  0.50947324  1
  O2-  O437  1  0.19118190  0.39719385  0.86886912  1
  O2-  O438  1  0.17084116  0.58784636  0.18983615  1
  O2-  O439  1  0.15406438  0.57153961  0.52174875  1
  O2-  O440  1  0.11436783  0.53301382  0.84550708  1
  O2-  O441  1  0.16373110  0.82789087  0.19043262  1
  O2-  O442  1  0.18407897  0.83726144  0.48983158  1
  O2-  O443  1  0.16721841  0.86025421  0.85987431  1
  O2-  O444  1  0.39150909  0.07828352  0.18490788  1
  O2-  O445  1  0.38271000  0.06935108  0.53723027  1
  O2-  O446  1  0.40981537  0.08734649  0.86238347  1
  O2-  O447  1  0.41477910  0.32708570  0.17288686  1
  O2-  O448  1  0.41417193  0.34064931  0.51984167  1
  O2-  O449  1  0.40380517  0.33979332  0.86459822  1
  O2-  O450  1  0.37358412  0.55242844  0.18163084  1
  O2-  O451  1  0.40770517  0.55911982  0.52870381  1
  O2-  O452  1  0.42992042  0.59016111  0.85250614  1
  O2-  O453  1  0.42262550  0.83439534  0.18148875  1
  O2-  O454  1  0.41434132  0.81267762  0.52355796  1
  O2-  O455  1  0.42949356  0.84847680  0.85563261  1
  O2-  O456  1  0.67635603  0.06828213  0.19177576  1
  O2-  O457  1  0.67470540  0.09546201  0.51797089  1
  O2-  O458  1  0.67927322  0.09066336  0.85273111  1
  O2-  O459  1  0.67492563  0.35458420  0.17788829  1
  O2-  O460  1  0.66694995  0.33141415  0.49493675  1
  O2-  O461  1  0.66724006  0.34893909  0.86902096  1
  O2-  O462  1  0.68033590  0.57905713  0.20326123  1
  O2-  O463  1  0.67481799  0.57999880  0.49990571  1
  O2-  O464  1  0.67334437  0.59211707  0.85712965  1
  O2-  O465  1  0.69426770  0.86044157  0.18115767  1
  O2-  O466  1  0.67647220  0.82584438  0.52335385  1
  O2-  O467  1  0.67958914  0.84599616  0.84182089  1
  O2-  O468  1  0.91434597  0.11031046  0.19051531  1
  O2-  O469  1  0.91069142  0.07239191  0.53453847  1
  O2-  O470  1  0.88170765  0.02235498  0.83446087  1
  O2-  O471  1  0.91156943  0.33999590  0.18082972  1
  O2-  O472  1  0.92026310  0.33648980  0.51006699  1
  O2-  O473  1  0.87255470  0.32749049  0.86691844  1
  O2-  O474  1  0.92443824  0.59874143  0.18888690  1
  O2-  O475  1  0.91985392  0.59005543  0.50175742  1
  O2-  O476  1  0.92760009  0.60217185  0.87385271  1
  O2-  O477  1  0.91281181  0.84461094  0.18745323  1
  O2-  O478  1  0.93600628  0.85475943  0.52630761  1
  O2-  O479  1  0.91497627  0.84856277  0.86504960  1
  O2-  O480  1  0.15599668  0.08953052  0.29878730  1
  O2-  O481  1  0.16505548  0.09445896  0.65172380  1
  O2-  O482  1  0.13552956  0.10091456  0.99651480  1
  O2-  O483  1  0.15964981  0.32456735  0.30256673  1
  O2-  O484  1  0.17119126  0.32831494  0.66402105  1
  O2-  O485  1  0.10758218  0.31805763  0.88350501  1
  O2-  O486  1  0.17408409  0.58260672  0.30687102  1
  O2-  O487  1  0.15452038  0.55714144  0.65076653  1
  O2-  O488  1  0.15036988  0.55311866  0.97502013  1
  O2-  O489  1  0.16449915  0.83495877  0.31085967  1
  O2-  O490  1  0.16015165  0.84182864  0.69429254  1
  O2-  O491  1  0.16569379  0.82145431  0.98593164  1
  O2-  O492  1  0.40092762  0.08217095  0.30960557  1
  O2-  O493  1  0.41027741  0.07911576  0.66145042  1
  O2-  O494  1  0.40641188  0.07688784  0.98603364  1
  O2-  O495  1  0.41423081  0.33343435  0.29266227  1
  O2-  O496  1  0.39542775  0.32512120  0.64579817  1
  O2-  O497  1  0.40297822  0.33755776  0.98970084  1
  O2-  O498  1  0.45588730  0.62983070  0.29630668  1
  O2-  O499  1  0.39053065  0.52634668  0.66077339  1
  O2-  O500  1  0.39790705  0.56041700  0.97606640  1
  O2-  O501  1  0.42289605  0.83597197  0.30163632  1
  O2-  O502  1  0.38254366  0.79874730  0.65042209  1
  O2-  O503  1  0.42325817  0.84114776  0.98024035  1
  O2-  O504  1  0.67527559  0.08208756  0.30969598  1
  O2-  O505  1  0.68648525  0.10681830  0.64721844  1
  O2-  O506  1  0.68029060  0.08146192  0.97662529  1
  O2-  O507  1  0.66824922  0.34087852  0.30376172  1
  O2-  O508  1  0.58493832  0.27357979  0.59930526  1
  O2-  O509  1  0.66615372  0.34016978  0.99401847  1
  O2-  O510  1  0.67094906  0.57927350  0.32128801  1
  O2-  O511  1  0.67888688  0.58425112  0.62400741  1
  O2-  O512  1  0.66007420  0.57997058  0.98210560  1
  O2-  O513  1  0.68054132  0.83887166  0.32186342  1
  O2-  O514  1  0.68856897  0.85583288  0.66326262  1
  O2-  O515  1  0.67235997  0.83860501  0.96586257  1
  O2-  O516  1  0.91729190  0.08671681  0.31807107  1
  O2-  O517  1  0.87938726  0.03627340  0.65468111  1
  O2-  O518  1  0.93000955  0.09153771  0.98426647  1
  O2-  O519  1  0.91352346  0.33601380  0.30657985  1
  O2-  O520  1  0.96413604  0.27202182  0.61642432  1
  O2-  O521  1  0.90772897  0.33099592  0.98998413  1
  O2-  O522  1  0.92262994  0.59194446  0.31321771  1
  O2-  O523  1  0.94267284  0.62509494  0.62613477  1
  O2-  O524  1  0.91435938  0.58820180  0.99848888  1
  O2-  O525  1  0.91297219  0.83478241  0.31062712  1
  O2-  O526  1  0.92932386  0.85818907  0.64028118  1
  O2-  O527  1  0.91294269  0.83848184  0.99046162  1
  O2-  O528  1  0.10282316  0.15664971  0.01883004  1
  O2-  O529  1  0.07580884  0.16595570  0.35896687  1
  O2-  O530  1  0.09949252  0.18188115  0.70301595  1
  O2-  O531  1  0.07254903  0.38666028  0.00067248  1
  O2-  O532  1  0.08203869  0.41443347  0.34196410  1
  O2-  O533  1  0.07110769  0.39348690  0.69050790  1
  O2-  O534  1  0.08652112  0.65418303  0.02400216  1
  O2-  O535  1  0.08985790  0.66830164  0.34617816  1
  O2-  O536  1  0.05326782  0.61902656  0.70562731  1
  O2-  O537  1  0.08602256  0.91017673  0.03316546  1
  O2-  O538  1  0.08408255  0.92571386  0.34020218  1
  O2-  O539  1  0.07530552  0.93855578  0.70453784  1
  O2-  O540  1  0.30402498  0.16141816  -0.00679604  1
  O2-  O541  1  0.31585694  0.17011287  0.34112227  1
  O2-  O542  1  0.32772639  0.16532190  0.69938594  1
  O2-  O543  1  0.32588886  0.41327115  0.05039416  1
  O2-  O544  1  0.32210008  0.40488749  0.35446092  1
  O2-  O545  1  0.34113645  0.43738641  0.68438979  1
  O2-  O546  1  0.38753870  0.69164843  0.02620579  1
  O2-  O547  1  0.33858841  0.66990896  0.33939717  1
  O2-  O548  1  0.31555575  0.63068618  0.69610001  1
  O2-  O549  1  0.33205626  0.90903169  0.02520304  1
  O2-  O550  1  0.33649799  0.91609464  0.34224742  1
  O2-  O551  1  0.33696051  0.91127632  0.69785484  1
  O2-  O552  1  0.58453262  0.16321739  -0.01282120  1
  O2-  O553  1  0.58376674  0.16182104  0.29522371  1
  O2-  O554  1  0.57847275  0.15968545  0.68921045  1
  O2-  O555  1  0.57419421  0.41440443  0.02252739  1
  O2-  O556  1  0.57472926  0.41076983  0.34503951  1
  O2-  O557  1  0.56686923  0.41209971  0.62550731  1
  O2-  O558  1  0.56462820  0.66067102  0.00181352  1
  O2-  O559  1  0.59457712  0.67129170  0.36160403  1
  O2-  O560  1  0.61191817  0.67790495  0.68076772  1
  O2-  O561  1  0.59069290  0.91564991  0.01673079  1
  O2-  O562  1  0.58896574  0.92115415  0.34994376  1
  O2-  O563  1  0.61167917  0.94742519  0.69574396  1
  O2-  O564  1  0.85080851  0.16776232  -0.02060562  1
  O2-  O565  1  0.83640335  0.17306660  0.35408001  1
  O2-  O566  1  0.83899427  0.16919594  0.68394077  1
  O2-  O567  1  0.83082895  0.42139038  0.03355960  1
  O2-  O568  1  0.83568830  0.42260638  0.34772658  1
  O2-  O569  1  0.88735255  0.46793975  0.70487835  1
  O2-  O570  1  0.82794395  0.67156509  0.02890315  1
  O2-  O571  1  0.84505717  0.67617725  0.35216613  1
  O2-  O572  1  0.84569676  0.69425519  0.65869646  1
  O2-  O573  1  0.83684582  0.92577077  0.02224861  1
  O2-  O574  1  0.83994865  0.91936914  0.35517770  1
  O2-  O575  1  0.84587847  0.94880370  0.67989120  1
