# generated using pymatgen
data_H2O
_symmetry_space_group_name_H-M   'P 1'
_cell_length_a   17.98916936
_cell_length_b   17.97575303
_cell_length_c   22.00465780
_cell_angle_alpha   90.04114227
_cell_angle_beta   89.95938609
_cell_angle_gamma   119.98844593
_symmetry_Int_Tables_number   1
_chemical_formula_structural   H2O
_chemical_formula_sum   'H384 O192'
_cell_volume   6163.02399178
_cell_formula_units_Z   192
loop_
 _symmetry_equiv_pos_site_id
 _symmetry_equiv_pos_as_xyz
  1  'x, y, z'
loop_
 _atom_type_symbol
 _atom_type_oxidation_number
  H+  1.0
  O2-  -2.0
loop_
 _atom_site_type_symbol
 _atom_site_label
 _atom_site_symmetry_multiplicity
 _atom_site_fract_x
 _atom_site_fract_y
 _atom_site_fract_z
 _atom_site_occupancy
  H+  H0  1  0.17647581  0.06250210  0.51605722  1
  H+  H1  1  0.36581834  0.22164192  0.00501332  1
  H+  H2  1  0.11598400  0.89583341  0.67675606  1
  H+  H3  1  0.85937227  0.63234433  1.00069412  1
  H+  H4  1  0.52388781  0.38776192  0.67290890  1
  H+  H5  1  0.22870025  0.61420081  0.99586165  1
  H+  H6  1  0.20479818  0.34677518  0.50193509  1
  H+  H7  1  0.60274170  0.38571973  0.34743368  1
  H+  H8  1  1.00654870  0.34464265  0.98357354  1
  H+  H9  1  0.03368534  0.90673847  0.83282371  1
  H+  H10  1  0.20413426  0.23488243  0.72474129  1
  H+  H11  1  0.09738883  0.12478536  0.16760305  1
  H+  H12  1  0.48964229  0.63389860  0.17145671  1
  H+  H13  1  0.26729346  0.14292113  0.82647236  1
  H+  H14  1  0.36171553  0.97248011  0.16092652  1
  H+  H15  1  0.77314852  0.37136940  0.50193139  1
  H+  H16  1  0.02296779  0.14641406  0.83440792  1
  H+  H17  1  0.86538760  0.64183194  0.15571166  1
  H+  H18  1  0.59404673  0.22263834  0.16456840  1
  H+  H19  1  0.61019116  0.47585089  0.82816704  1
  H+  H20  1  0.21016987  0.33564751  0.17115990  1
  H+  H21  1  0.86829067  0.88834645  0.00931673  1
  H+  H22  1  0.40902184  0.07823020  0.56907074  1
  H+  H23  1  0.14754066  0.25490995  0.68146181  1
  H+  H24  1  0.64195807  0.11498705  0.84355340  1
  H+  H25  1  0.67840353  0.34413568  0.61481932  1
  H+  H26  1  0.20016013  0.08953671  0.33313146  1
  H+  H27  1  0.86783515  0.98862750  0.82758940  1
  H+  H28  1  0.37810866  1.01956805  0.65510306  1
  H+  H29  1  0.35511388  0.38990016  0.34386672  1
  H+  H30  1  0.47049604  0.61591071  0.32324620  1
  H+  H31  1  0.60124474  0.63650428  0.33005287  1
  H+  H32  1  0.01439478  0.65557388  0.52797276  1
  H+  H33  1  0.66349414  0.58780958  0.89581824  1
  H+  H34  1  0.11132155  0.33451506  0.50325832  1
  H+  H35  1  0.36570026  0.88522276  0.16199166  1
  H+  H36  1  0.63263577  0.23083696  0.67981940  1
  H+  H37  1  0.42558120  0.59493175  0.93900129  1
  H+  H38  1  0.86596628  0.22713375  0.82266916  1
  H+  H39  1  0.94212795  0.61064138  0.59673392  1
  H+  H40  1  0.96400751  0.85246391  0.31165353  1
  H+  H41  1  0.14819327  0.13091309  0.50090337  1
  H+  H42  1  0.91376986  0.64966838  0.53856338  1
  H+  H43  1  0.33811452  0.68073447  0.43325140  1
  H+  H44  1  0.62843674  0.11398549  0.16925420  1
  H+  H45  1  0.85460232  0.88150160  0.68302791  1
  H+  H46  1  0.36744262  0.48897265  0.82599876  1
  H+  H47  1  0.65325393  0.57794539  0.20991795  1
  H+  H48  1  0.11886296  0.66608718  0.50570321  1
  H+  H49  1  0.35983749  0.63921269  0.66471913  1
  H+  H50  1  0.39777338  0.52892606  0.99582540  1
  H+  H51  1  0.52643497  0.64330534  0.00765169  1
  H+  H52  1  0.73047222  0.87088831  0.66089610  1
  H+  H53  1  0.38444565  0.10483160  1.00000720  1
  H+  H54  1  0.61392971  0.89057893  0.67147151  1
  H+  H55  1  0.37077429  0.02119889  0.32710811  1
  H+  H56  1  0.37934318  0.10965330  0.65376040  1
  H+  H57  1  0.90602433  0.89479035  0.52083445  1
  H+  H58  1  0.99672248  0.89803919  0.53138933  1
  H+  H59  1  0.41554295  0.58768868  0.59629424  1
  H+  H60  1  0.38824353  0.62754942  0.17044944  1
  H+  H61  1  0.89598287  0.76921332  0.51817655  1
  H+  H62  1  0.33540450  0.66133677  0.10176906  1
  H+  H63  1  0.11284352  0.71873585  0.32850061  1
  H+  H64  1  0.27061304  0.88304777  0.33634842  1
  H+  H65  1  0.09891495  0.96439280  0.32186514  1
  H+  H66  1  0.84752806  0.35749281  1.00430645  1
  H+  H67  1  0.62091891  0.23006407  0.82838065  1
  H+  H68  1  0.11887990  0.75623949  0.51175172  1
  H+  H69  1  0.87576214  0.51517405  0.83833603  1
  H+  H70  1  0.90057312  0.21585520  0.67226333  1
  H+  H71  1  0.13763724  0.39545957  0.00581784  1
  H+  H72  1  0.34678266  0.20937295  0.16675611  1
  H+  H73  1  0.64639759  0.87391353  0.17056211  1
  H+  H74  1  0.46558078  0.36299743  0.33992184  1
  H+  H75  1  0.39200761  0.14611623  0.84317824  1
  H+  H76  1  0.59906238  0.12103173  0.32993015  1
  H+  H77  1  0.67065587  0.84220160  0.26810167  1
  H+  H78  1  0.89819650  0.88090670  0.84090832  1
  H+  H79  1  0.52712053  0.64348440  0.66788454  1
  H+  H80  1  0.63016528  0.26796009  0.99271642  1
  H+  H81  1  0.61346749  0.64777340  0.15458875  1
  H+  H82  1  0.39317455  0.77458793  0.17358773  1
  H+  H83  1  0.38919807  0.27969216  0.49456577  1
  H+  H84  1  0.43893528  0.67971675  0.87312355  1
  H+  H85  1  0.37926773  0.30682606  0.24769700  1
  H+  H86  1  0.08621550  0.19937495  0.49252445  1
  H+  H87  1  0.38597867  0.36760264  0.65844396  1
  H+  H88  1  0.51121820  0.13034486  0.16116882  1
  H+  H89  1  0.37453620  0.10394525  0.16995085  1
  H+  H90  1  0.97406698  0.86648942  0.16283359  1
  H+  H91  1  0.86604158  0.38517973  0.83213646  1
  H+  H92  1  0.77147813  0.88887429  0.16821943  1
  H+  H93  1  0.36395616  0.89276334  0.33789556  1
  H+  H94  1  0.73040119  0.36518554  0.83967257  1
  H+  H95  1  0.76075254  0.62511186  0.83084597  1
  H+  H96  1  0.64014468  0.61832456  0.66902317  1
  H+  H97  1  0.51036282  0.88348623  0.49203031  1
  H+  H98  1  0.91775443  0.84123719  0.61803019  1
  H+  H99  1  0.60831922  0.73016472  0.33081879  1
  H+  H100  1  0.16119262  0.11944103  1.00189339  1
  H+  H101  1  0.88374923  0.01866795  0.33433667  1
  H+  H102  1  0.09547615  0.21355128  0.17248758  1
  H+  H103  1  0.00872074  0.09933830  0.48551822  1
  H+  H104  1  0.64423068  0.78339639  0.17083653  1
  H+  H105  1  0.77316087  0.88594042  0.34549676  1
  H+  H106  1  0.92606829  0.09815491  0.64385302  1
  H+  H107  1  0.26638633  0.39012396  0.33851010  1
  H+  H108  1  0.13015633  0.52103705  0.83815570  1
  H+  H109  1  0.13334497  0.26808292  0.32871762  1
  H+  H110  1  0.12544349  0.47885255  0.00388795  1
  H+  H111  1  0.36216990  0.72190477  1.01649546  1
  H+  H112  1  0.63709390  0.28645787  0.52642075  1
  H+  H113  1  0.85742375  0.30734446  0.50743356  1
  H+  H114  1  0.87237178  0.76579014  0.31033905  1
  H+  H115  1  0.64762661  0.79582365  0.49600920  1
  H+  H116  1  0.16328827  0.25004773  0.02083356  1
  H+  H117  1  0.89068683  0.26664437  0.15941013  1
  H+  H118  1  0.86275156  0.72943513  0.15159392  1
  H+  H119  1  0.85603729  0.62979163  0.32060338  1
  H+  H120  1  0.38005302  0.52589596  0.32253287  1
  H+  H121  1  0.70365638  0.60356796  0.30556991  1
  H+  H122  1  0.88813126  0.35166792  0.65849345  1
  H+  H123  1  0.86835584  -0.01108642  0.17584523  1
  H+  H124  1  0.77774466  0.13825300  0.82692488  1
  H+  H125  1  0.68620785  0.64874592  0.52966005  1
  H+  H126  1  0.37645617  0.38997550  0.00085317  1
  H+  H127  1  0.03530695  0.38616014  0.15175905  1
  H+  H128  1  0.97528152  0.59258939  0.99443619  1
  H+  H129  1  0.36418760  0.64337689  0.33584215  1
  H+  H130  1  0.95442500  0.34226146  0.31759415  1
  H+  H131  1  0.83606475  0.92903641  0.76781213  1
  H+  H132  1  0.64343514  0.36578407  0.67421927  1
  H+  H133  1  0.70984454  0.35207472  0.32179531  1
  H+  H134  1  0.47347104  0.36634581  0.83611693  1
  H+  H135  1  0.47664173  0.35834094  0.98405557  1
  H+  H136  1  0.37217862  0.52398074  0.50122582  1
  H+  H137  1  0.61699860  0.89481462  0.48989180  1
  H+  H138  1  0.13632311  0.91495089  0.52087475  1
  H+  H139  1  0.63389833  1.03326682  0.51285924  1
  H+  H140  1  0.13896836  0.28183632  0.84352637  1
  H+  H141  1  0.10518349  0.62708466  0.33307495  1
  H+  H142  1  0.17311997  0.08702164  -0.06417065  1
  H+  H143  1  0.61237107  0.38253357  0.99260477  1
  H+  H144  1  0.64723328  0.02791856  0.84219329  1
  H+  H145  1  0.63829979  0.86843035  0.32812574  1
  H+  H146  1  0.13703746  0.37068728  0.65599771  1
  H+  H147  1  0.19835668  0.54046401  0.31072283  1
  H+  H148  1  0.88977715  0.12085811  0.84036668  1
  H+  H149  1  0.78475086  0.39291613  0.68027916  1
  H+  H150  1  0.77949919  0.33392370  0.15301529  1
  H+  H151  1  0.99050870  0.62838481  0.68477038  1
  H+  H152  1  0.87703952  0.10438988  0.32652247  1
  H+  H153  1  0.85186205  0.37263847  -0.02812090  1
  H+  H154  1  0.25795160  0.62464115  0.81711353  1
  H+  H155  1  0.36260147  0.88877520  0.67399509  1
  H+  H156  1  0.85515250  0.17541350  0.48214955  1
  H+  H157  1  0.22327943  0.61698348  0.66080964  1
  H+  H158  1  0.62928549  0.89827584  0.82768833  1
  H+  H159  1  0.73648541  0.88633225  0.50238552  1
  H+  H160  1  0.11421411  0.39136383  0.82289848  1
  H+  H161  1  0.84121700  0.21011457  0.32713240  1
  H+  H162  1  0.81331902  0.41408968  0.25554109  1
  H+  H163  1  0.36206154  0.63229339  0.01340525  1
  H+  H164  1  0.90324269  0.36146899  0.15593668  1
  H+  H165  1  0.13957712  0.03257987  0.84221037  1
  H+  H166  1  0.12156944  0.65124440  0.68720782  1
  H+  H167  1  0.61502084  0.64223536  0.00755504  1
  H+  H168  1  0.38145185  0.85065198  1.00047678  1
  H+  H169  1  0.64187612  0.50467456  0.50244658  1
  H+  H170  1  0.08437029  0.41876346  0.76164967  1
  H+  H171  1  0.85476022  0.61667882  0.83363726  1
  H+  H172  1  0.48268840  0.86321307  0.17102155  1
  H+  H173  1  0.85574631  0.93927622  0.44128491  1
  H+  H174  1  0.63687023  0.52697602  -0.01471702  1
  H+  H175  1  0.90757489  0.49943846  0.97022593  1
  H+  H176  1  0.33725182  0.40537105  0.06110157  1
  H+  H177  1  0.21390539  0.10155939  0.16808125  1
  H+  H178  1  0.52384889  0.89017890  0.34091028  1
  H+  H179  1  1.03098449  0.63832248  0.15346972  1
  H+  H180  1  0.22802247  0.37222996  0.83850150  1
  H+  H181  1  0.13660673  0.85384585  0.31225099  1
  H+  H182  1  0.86761619  0.73313968  0.68724344  1
  H+  H183  1  0.38060499  0.27428951  0.35146815  1
  H+  H184  1  0.46107171  0.10642591  0.32051236  1
  H+  H185  1  0.38592709  0.10708419  0.50413331  1
  H+  H186  1  0.14977375  0.12811888  0.66476250  1
  H+  H187  1  0.97941188  0.86504990  0.99692414  1
  H+  H188  1  0.68971828  0.36038362  0.18513487  1
  H+  H189  1  0.64056907  0.36569373  0.84004381  1
  H+  H190  1  0.61671810  0.73258410  0.66844557  1
  H+  H191  1  0.14289392  0.78501745  0.66875071  1
  H+  H192  1  0.77798099  0.64223445  0.68648210  1
  H+  H193  1  0.71086412  0.10575676  0.31950490  1
  H+  H194  1  0.61419037  0.88420864  0.00502586  1
  H+  H195  1  0.72161206  0.61749905  0.15627323  1
  H+  H196  1  0.61328679  0.97753285  0.15756733  1
  H+  H197  1  0.14757177  0.56186970  0.50104351  1
  H+  H198  1  0.14152950  0.52191845  0.16534890  1
  H+  H199  1  0.08714212  0.70865575  -0.00910577  1
  H+  H200  1  0.39025305  0.53007248  0.65620291  1
  H+  H201  1  0.73153957  0.86628204  0.99478078  1
  H+  H202  1  0.85506544  0.13041878  0.16929896  1
  H+  H203  1  0.81683000  0.13990268  0.10660898  1
  H+  H204  1  0.51769117  0.13176752  0.00783097  1
  H+  H205  1  0.65097143  0.38137681  0.52053135  1
  H+  H206  1  0.89784876  0.62283397  0.68170659  1
  H+  H207  1  0.13768871  0.61086408  0.99028186  1
  H+  H208  1  0.27689983  0.63293276  0.16296347  1
  H+  H209  1  0.32232603  -0.04800155  0.82694518  1
  H+  H210  1  0.86499624  0.09252805  0.46839113  1
  H+  H211  1  0.23780933  0.64494248  0.50563706  1
  H+  H212  1  0.08144141  0.44692447  0.33517458  1
  H+  H213  1  0.31852816  0.41733357  0.43199655  1
  H+  H214  1  0.60480482  0.96907168  0.00411440  1
  H+  H215  1  0.88924252  0.77634329  -0.00558372  1
  H+  H216  1  0.61135885  0.97952064  0.33950092  1
  H+  H217  1  0.64190649  0.77760114  0.99443174  1
  H+  H218  1  0.05155367  0.42228857  0.48780115  1
  H+  H219  1  0.22852466  0.86031637  0.16518375  1
  H+  H220  1  0.90280749  1.03056157  -0.00977199  1
  H+  H221  1  0.12032744  0.72546228  0.15138968  1
  H+  H222  1  0.11948942  0.97086326  0.00022077  1
  H+  H223  1  0.24871252  0.37660927  -0.01095153  1
  H+  H224  1  0.34766879  0.62718322  0.81253298  1
  H+  H225  1  0.33622053  0.37829650  0.49201272  1
  H+  H226  1  0.10620452  0.96726985  0.15344204  1
  H+  H227  1  0.52020018  0.14619551  0.50759378  1
  H+  H228  1  0.29782687  0.23197386  0.52340094  1
  H+  H229  1  0.96820708  0.10319225  0.18168840  1
  H+  H230  1  0.97822721  0.36507629  0.83197652  1
  H+  H231  1  0.26482029  0.85162141  0.82205906  1
  H+  H232  1  0.85027099  0.37796621  0.30404843  1
  H+  H233  1  0.63370395  0.12028647  0.67136592  1
  H+  H234  1  0.23783591  0.87805987  0.51640522  1
  H+  H235  1  0.87627228  0.47927259  0.68211166  1
  H+  H236  1  0.39851484  0.87575875  0.49961175  1
  H+  H237  1  0.86804907  0.88920512  0.16552545  1
  H+  H238  1  0.73955103  0.08984068  0.01566978  1
  H+  H239  1  0.36148007  -0.03914160  1.00448927  1
  H+  H240  1  0.61627751  0.51847746  0.31853778  1
  H+  H241  1  0.63392594  0.12106757  0.52043677  1
  H+  H242  1  0.58956992  0.64459206  0.47956788  1
  H+  H243  1  0.71897879  0.11479282  0.17272385  1
  H+  H244  1  0.63751907  0.61808264  0.83406145  1
  H+  H245  1  0.36397901  0.22862058  0.67191122  1
  H+  H246  1  0.82264850  0.49183469  0.03622891  1
  H+  H247  1  0.62722481  0.01749160  0.66707413  1
  H+  H248  1  0.48994380  0.63770390  0.84309743  1
  H+  H249  1  0.62134301  0.26355290  0.33556117  1
  H+  H250  1  0.88816403  0.52687052  0.31254983  1
  H+  H251  1  0.13688182  0.85701504  0.16471775  1
  H+  H252  1  0.14043047  0.61155788  0.16608390  1
  H+  H253  1  0.61230517  0.47717067  0.67933376  1
  H+  H254  1  0.62555624  0.73498739  0.82440105  1
  H+  H255  1  0.28400515  0.65945234  0.33723103  1
  H+  H256  1  0.13877517  0.12272419  0.84741280  1
  H+  H257  1  0.52977510  0.14669154  0.82834981  1
  H+  H258  1  0.42666640  0.84379388  0.26558584  1
  H+  H259  1  0.76774509  0.64043447  0.52323209  1
  H+  H260  1  0.86837373  0.97237879  0.66558944  1
  H+  H261  1  0.66771207  0.32961721  0.93292979  1
  H+  H262  1  0.62811113  0.10777764  0.99435509  1
  H+  H263  1  0.27609063  0.39727258  0.66832215  1
  H+  H264  1  0.02264697  0.38507482  0.66627446  1
  H+  H265  1  0.01962338  0.13231927  0.33903751  1
  H+  H266  1  0.54996351  0.42364790  0.50813231  1
  H+  H267  1  0.89345973  0.53234772  0.17188386  1
  H+  H268  1  0.52230494  0.88664766  0.67433755  1
  H+  H269  1  0.37069723  0.97904482  0.49242584  1
  H+  H270  1  0.39768241  0.78423986  0.50002337  1
  H+  H271  1  0.37324508  0.14189244  0.35846868  1
  H+  H272  1  0.13469345  0.35804059  0.17401974  1
  H+  H273  1  0.57944347  0.38361504  0.18565883  1
  H+  H274  1  0.25281420  0.13374271  0.43504298  1
  H+  H275  1  0.04042762  0.76987377  -0.07257386  1
  H+  H276  1  0.11229351  -0.01742636  0.67222562  1
  H+  H277  1  0.10823321  0.47892829  0.66899149  1
  H+  H278  1  0.35990481  0.64513540  0.49352349  1
  H+  H279  1  0.32373418  0.32704916  0.15413587  1
  H+  H280  1  0.88000643  0.10202346  -0.00489401  1
  H+  H281  1  0.39678074  0.78607247  0.32550537  1
  H+  H282  1  0.38950582  0.75439145  0.85086524  1
  H+  H283  1  0.38033107  0.28049879  0.83259076  1
  H+  H284  1  0.85937499  0.88259457  0.33951817  1
  H+  H285  1  0.46017565  0.61520371  0.49661269  1
  H+  H286  1  0.27453462  0.13958927  0.67000592  1
  H+  H287  1  0.44454048  0.34653435  0.19321516  1
  H+  H288  1  0.42101941  0.78598099  0.91839297  1
  H+  H289  1  0.73567341  0.40378596  0.02846568  1
  H+  H290  1  0.58212909  0.92158407  0.42702509  1
  H+  H291  1  0.33348354  0.91666382  0.43395032  1
  H+  H292  1  0.46950997  0.19863531  0.88613056  1
  H+  H293  1  0.58179040  0.67979892  0.09854070  1
  H+  H294  1  0.92463244  0.59403372  0.22909335  1
  H+  H295  1  0.90560258  0.30805261  0.60008134  1
  H+  H296  1  0.16084953  0.33108336  0.59801670  1
  H+  H297  1  0.57766470  0.16596200  0.06667756  1
  H+  H298  1  0.10332410  0.87448559  -0.00902865  1
  H+  H299  1  0.17241797  0.10273995  0.60079500  1
  H+  H300  1  0.59819470  0.92896117  0.77023983  1
  H+  H301  1  0.41546150  0.08342112  0.93896696  1
  H+  H302  1  0.73675349  0.86946718  0.83917500  1
  H+  H303  1  0.27838939  0.13098252  0.00576431  1
  H+  H304  1  0.58069987  0.41424145  0.77004586  1
  H+  H305  1  0.42042399  0.83844806  0.60145869  1
  H+  H306  1  0.83327414  0.66305378  0.06086660  1
  H+  H307  1  0.04845748  0.37716244  0.42506019  1
  H+  H308  1  0.96396437  0.25004481  0.95923688  1
  H+  H309  1  0.40237141  0.07822463  0.23157798  1
  H+  H310  1  0.92076735  0.09149939  0.90060740  1
  H+  H311  1  0.90708491  0.57726949  0.89673782  1
  H+  H312  1  0.67487967  0.83576477  0.89757062  1
  H+  H313  1  0.58904898  0.67475234  0.76491487  1
  H+  H314  1  0.16033198  0.59694361  0.60560910  1
  H+  H315  1  0.13354740  0.78576030  0.90871602  1
  H+  H316  1  0.90844593  0.07175615  0.24366179  1
  H+  H317  1  0.41193177  0.32914490  0.92775877  1
  H+  H318  1  0.16850179  0.57899694  0.89903659  1
  H+  H319  1  0.82077356  0.14617159  0.38511716  1
  H+  H320  1  0.87086681  0.15267102  0.72752039  1
  H+  H321  1  0.23302403  0.87335739  0.66737099  1
  H+  H322  1  0.82048777  0.38158346  0.43965134  1
  H+  H323  1  0.59648941  0.16813133  0.73792056  1
  H+  H324  1  0.10811043  0.69487257  0.74767526  1
  H+  H325  1  0.54627667  0.11749957  0.38781115  1
  H+  H326  1  0.10380657  0.94933968  0.46723360  1
  H+  H327  1  0.33030885  0.91589672  0.73390998  1
  H+  H328  1  0.90876611  0.31855233  0.25299826  1
  H+  H329  1  0.18002167  0.34091489  0.93409132  1
  H+  H330  1  0.64911861  0.07428326  0.26056514  1
  H+  H331  1  0.18114611  0.85128880  0.57978326  1
  H+  H332  1  0.32410086  0.66409321  0.72356212  1
  H+  H333  1  0.80594667  0.64804737  0.37226620  1
  H+  H334  1  0.63086538  0.32081868  0.24353987  1
  H+  H335  1  0.92981315  0.32444458  0.89374078  1
  H+  H336  1  0.76364164  0.02670869  0.04783243  1
  H+  H337  1  0.59240830  0.19724923  0.45701668  1
  H+  H338  1  0.83144776  0.66333036  0.77260120  1
  H+  H339  1  0.17274805  0.82643082  0.25661248  1
  H+  H340  1  0.92459089  0.84968908  0.90013574  1
  H+  H341  1  0.33576929  0.42716257  0.72821140  1
  H+  H342  1  0.25195622  0.28655866  0.10106720  1
  H+  H343  1  0.09238467  0.36360561  0.33498504  1
  H+  H344  1  0.13538894  0.65608227  0.83703051  1
  H+  H345  1  0.38453522  0.77343333  0.65762652  1
  H+  H346  1  0.66197287  0.08076345  0.93404685  1
  H+  H347  1  0.15984916  0.32702249  0.26917041  1
  H+  H348  1  0.32673864  0.16853389  0.76493608  1
  H+  H349  1  0.58641131  0.41691441  0.04978789  1
  H+  H350  1  0.40163573  0.32544584  0.59993685  1
  H+  H351  1  0.08071724  0.66363069  0.05707624  1
  H+  H352  1  0.09235599  0.93495773  0.77387560  1
  H+  H353  1  0.11860238  0.09844508  0.32200434  1
  H+  H354  1  0.79007792  0.41641222  0.11810717  1
  H+  H355  1  0.58590215  0.42955563  0.40447611  1
  H+  H356  1  0.08051198  0.90760243  0.09380089  1
  H+  H357  1  0.06836970  0.89353648  0.37381634  1
  H+  H358  1  0.97943219  0.61634263  0.32183087  1
  H+  H359  1  0.11779090  0.18458215  0.07633831  1
  H+  H360  1  0.09084007  0.17988094  0.77841091  1
  H+  H361  1  0.58682401  0.91543273  0.09891806  1
  H+  H362  1  0.42248977  0.59537512  0.23361138  1
  H+  H363  1  0.47185568  0.85092266  1.00440526  1
  H+  H364  1  0.36828427  0.40060542  0.82480284  1
  H+  H365  1  0.15599700  0.06972187  0.22807255  1
  H+  H366  1  0.92075654  0.04657701  0.58294857  1
  H+  H367  1  0.83927788  0.41414684  0.77089137  1
  H+  H368  1  0.88491318  0.70720495  0.46263797  1
  H+  H369  1  0.72563245  0.61557851  -0.01134379  1
  H+  H370  1  0.91229441  0.83445327  0.22301587  1
  H+  H371  1  0.57112140  0.67970684  0.42026946  1
  H+  H372  1  0.09978755  0.41903131  0.09510182  1
  H+  H373  1  0.15701842  0.56604251  0.25739699  1
  H+  H374  1  0.84053995  0.92295096  0.06694642  1
  H+  H375  1  0.94175395  0.30247730  0.50456643  1
  H+  H376  1  0.65926189  0.08155580  0.60583337  1
  H+  H377  1  0.97753177  0.86703008  0.67583817  1
  H+  H378  1  0.08025549  0.15544508  0.39667765  1
  H+  H379  1  0.68191766  0.58972314  0.61644512  1
  H+  H380  1  0.67313508  0.84536718  0.60024703  1
  H+  H381  1  0.56908280  0.45949377  0.15635210  1
  H+  H382  1  0.33296312  0.90613620  0.06462275  1
  H+  H383  1  0.32778519  0.16088391  0.10146382  1
  O2-  O384  1  0.06393049  0.15354672  0.15600004  1
  O2-  O385  1  0.07027101  0.14272926  0.47412440  1
  O2-  O386  1  0.08621399  0.17870641  0.82327999  1
  O2-  O387  1  0.09729767  0.41938270  0.14122073  1
  O2-  O388  1  0.04615687  0.36993323  0.47060474  1
  O2-  O389  1  0.08260697  0.41985634  0.80707917  1
  O2-  O390  1  0.09011250  0.66420719  0.13670728  1
  O2-  O391  1  0.08272472  0.69347936  0.49987644  1
  O2-  O392  1  0.11852523  0.69926702  0.82461377  1
  O2-  O393  1  0.07535250  0.90599905  0.13926768  1
  O2-  O394  1  0.10766966  0.95016920  0.51140215  1
  O2-  O395  1  0.09504783  0.93998187  0.81862899  1
  O2-  O396  1  0.31935042  0.15170266  0.14641551  1
  O2-  O397  1  0.26686489  0.11395333  0.39686899  1
  O2-  O398  1  0.32826913  0.17519901  0.81018464  1
  O2-  O399  1  0.28761605  0.33922847  0.12547229  1
  O2-  O400  1  0.31466848  0.41620659  0.47760152  1
  O2-  O401  1  0.33779212  0.43071627  0.80889946  1
  O2-  O402  1  0.33822435  0.66309056  0.14867938  1
  O2-  O403  1  0.33789365  0.68380116  0.47857788  1
  O2-  O404  1  0.31478150  0.65255288  0.79544389  1
  O2-  O405  1  0.33245528  0.91165830  0.14614002  1
  O2-  O406  1  0.33991524  0.91716017  0.47933342  1
  O2-  O407  1  0.31941546  0.90271807  0.80641507  1
  O2-  O408  1  0.57263952  0.16416462  0.14723748  1
  O2-  O409  1  0.58443598  0.18290500  0.50010307  1
  O2-  O410  1  0.58948324  0.16903557  0.81399674  1
  O2-  O411  1  0.54357426  0.41163227  0.18470454  1
  O2-  O412  1  0.60553333  0.44409978  0.48856815  1
  O2-  O413  1  0.58082508  0.41414992  0.81561612  1
  O2-  O414  1  0.58266192  0.68078254  0.14466372  1
  O2-  O415  1  0.56973124  0.68337810  0.46628124  1
  O2-  O416  1  0.59158852  0.67326701  0.81010858  1
  O2-  O417  1  0.58861698  0.91619419  0.14487085  1
  O2-  O418  1  0.57945929  0.91898402  0.47447167  1
  O2-  O419  1  0.60608740  0.93552506  0.81464192  1
  O2-  O420  1  0.82792147  0.16088512  0.14994623  1
  O2-  O421  1  0.84753755  0.13310016  0.45057343  1
  O2-  O422  1  0.83752829  0.16544972  0.81063221  1
  O2-  O423  1  0.79932015  0.39477244  0.15961967  1
  O2-  O424  1  0.82749022  0.38013138  0.48338722  1
  O2-  O425  1  0.83444434  0.41441419  0.81644206  1
  O2-  O426  1  0.83312143  0.66843516  0.13795617  1
  O2-  O427  1  0.87090372  0.70554218  0.50561232  1
  O2-  O428  1  0.82417875  0.65234384  0.81853984  1
  O2-  O429  1  0.83600273  0.92321245  0.15572742  1
  O2-  O430  1  0.85372231  0.94004789  0.48659671  1
  O2-  O431  1  0.83735958  0.92758713  0.81321717  1
  O2-  O432  1  0.15284567  0.07059650  0.18288783  1
  O2-  O433  1  0.19905956  0.12571789  0.51521621  1
  O2-  O434  1  0.17242916  0.09471104  0.85924812  1
  O2-  O435  1  0.15565077  0.32131845  0.19327470  1
  O2-  O436  1  0.14648649  0.31046679  0.51957319  1
  O2-  O437  1  0.16945757  0.34413951  0.85631389  1
  O2-  O438  1  0.16988876  0.58134162  0.18363544  1
  O2-  O439  1  0.17691591  0.61761573  0.52104200  1
  O2-  O440  1  0.16484633  0.58116250  0.85379232  1
  O2-  O441  1  0.16711571  0.82675244  0.17954663  1
  O2-  O442  1  0.17889927  0.85498436  0.53336556  1
  O2-  O443  1  0.17979581  0.77597910  0.85851222  1
  O2-  O444  1  0.40772007  0.07698171  0.18654427  1
  O2-  O445  1  0.41814549  0.08129855  0.52064637  1
  O2-  O446  1  0.43818627  0.14220284  0.86701876  1
  O2-  O447  1  0.38204559  0.30454077  0.20279228  1
  O2-  O448  1  0.35174684  0.28832419  0.52223489  1
  O2-  O449  1  0.41217747  0.34036329  0.84962236  1
  O2-  O450  1  0.42697943  0.60209390  0.18744683  1
  O2-  O451  1  0.40224819  0.58532417  0.51529052  1
  O2-  O452  1  0.43392944  0.62167694  0.86304432  1
  O2-  O453  1  0.42340408  0.83476235  0.18865601  1
  O2-  O454  1  0.43224756  0.84669304  0.51311566  1
  O2-  O455  1  0.43561793  0.76696327  0.87995530  1
  O2-  O456  1  0.65716432  0.08191077  0.18451306  1
  O2-  O457  1  0.66055026  0.08772780  0.53513083  1
  O2-  O458  1  0.67471453  0.08858200  0.86030462  1
  O2-  O459  1  0.62929959  0.32466081  0.19812742  1
  O2-  O460  1  0.67636219  0.34794406  0.53734979  1
  O2-  O461  1  0.66978495  0.33455975  0.85548350  1
  O2-  O462  1  0.65922615  0.59036459  0.16584160  1
  O2-  O463  1  0.70515165  0.60686199  0.53443030  1
  O2-  O464  1  0.66468609  0.58443141  0.85028090  1
  O2-  O465  1  0.67749922  0.84402663  0.18671911  1
  O2-  O466  1  0.67403498  0.85472123  0.51299676  1
  O2-  O467  1  0.67497545  0.83434980  0.85240097  1
  O2-  O468  1  0.90604890  0.06979453  0.19707081  1
  O2-  O469  1  0.90288504  0.03400464  0.50260808  1
  O2-  O470  1  0.92258620  0.09221782  0.85497116  1
  O2-  O471  1  0.92689249  0.32796080  0.17396518  1
  O2-  O472  1  0.88467943  0.27499015  0.52416792  1
  O2-  O473  1  0.91941812  0.33369022  0.85027888  1
  O2-  O474  1  0.92348424  0.59308323  0.18309558  1
  O2-  O475  1  0.94464709  0.61852754  0.55016934  1
  O2-  O476  1  0.89899684  0.57645526  0.85233298  1
  O2-  O477  1  0.91225367  0.83912502  0.17731957  1
  O2-  O478  1  0.93375534  0.86292122  0.53882691  1
  O2-  O479  1  0.93144425  0.85395340  0.85558057  1
  O2-  O480  1  0.14757953  0.06587315  0.30752290  1
  O2-  O481  1  0.16938875  0.09087032  0.64473972  1
  O2-  O482  1  0.17635202  0.07974322  0.98103453  1
  O2-  O483  1  0.15887642  0.32917529  0.31496795  1
  O2-  O484  1  0.17072667  0.34249833  0.64260325  1
  O2-  O485  1  0.18587032  0.34259864  0.97945790  1
  O2-  O486  1  0.15598762  0.55818206  0.30331769  1
  O2-  O487  1  0.16051020  0.58987127  0.65003328  1
  O2-  O488  1  0.17017674  0.58186270  0.97740427  1
  O2-  O489  1  0.17128922  0.82656996  0.30236193  1
  O2-  O490  1  0.17198542  0.84439446  0.65119493  1
  O2-  O491  1  0.09614334  0.78829375  0.94613029  1
  O2-  O492  1  0.39889405  0.08197846  0.31195044  1
  O2-  O493  1  0.40285216  0.07615164  0.63379776  1
  O2-  O494  1  0.41467958  0.07488843  0.98346306  1
  O2-  O495  1  0.40312467  0.33008580  0.32997434  1
  O2-  O496  1  0.41493860  0.33557636  0.64377052  1
  O2-  O497  1  0.41453637  0.32657619  0.97318108  1
  O2-  O498  1  0.41001586  0.58689699  0.30692260  1
  O2-  O499  1  0.42018704  0.59084463  0.64135189  1
  O2-  O500  1  0.42420670  0.59093698  0.98454249  1
  O2-  O501  1  0.42672548  0.84671068  0.31132813  1
  O2-  O502  1  0.41791030  0.83612948  0.64613624  1
  O2-  O503  1  0.41103185  0.81588085  0.99121289  1
  O2-  O504  1  0.64831116  0.07442190  0.30637145  1
  O2-  O505  1  0.65892967  0.08010250  0.65249096  1
  O2-  O506  1  0.65494320  0.07396007  0.97992102  1
  O2-  O507  1  0.64589647  0.32338252  0.32073816  1
  O2-  O508  1  0.67816408  0.33986658  0.66011046  1
  O2-  O509  1  0.66004712  0.32915396  0.97817337  1
  O2-  O510  1  0.64126469  0.57545258  0.29775669  1
  O2-  O511  1  0.67264008  0.58693972  0.66082144  1
  O2-  O512  1  0.66525110  0.58868959  0.97351800  1
  O2-  O513  1  0.66750288  0.83703546  0.31325988  1
  O2-  O514  1  0.66908447  0.83974760  0.64488113  1
  O2-  O515  1  0.67147558  0.83811348  0.97913910  1
  O2-  O516  1  0.91270870  0.07764872  0.31575787  1
  O2-  O517  1  0.93623954  0.05265223  0.62696575  1
  O2-  O518  1  0.92354138  0.09047250  0.97712269  1
  O2-  O519  1  0.89706648  0.31771749  0.29738251  1
  O2-  O520  1  0.92026170  0.32361426  0.64383718  1
  O2-  O521  1  0.95472599  0.29882516  0.96247724  1
  O2-  O522  1  0.91842011  0.58962710  0.30444474  1
  O2-  O523  1  0.93128734  0.59588871  0.66641607  1
  O2-  O524  1  0.91294825  0.55510941  0.97972821  1
  O2-  O525  1  0.90283568  0.82756303  0.29844319  1
  O2-  O526  1  0.91558796  0.83240068  0.66264450  1
  O2-  O527  1  0.91777236  0.83827596  0.98408551  1
  O2-  O528  1  0.16664969  0.20705239  0.04778551  1
  O2-  O529  1  0.08135343  0.15995568  0.35117509  1
  O2-  O530  1  0.14701281  0.20754209  0.70665593  1
  O2-  O531  1  0.10094716  0.41932246  0.02086524  1
  O2-  O532  1  0.05418024  0.38678994  0.34948865  1
  O2-  O533  1  0.08319921  0.41803070  0.68234112  1
  O2-  O534  1  0.07214094  0.65310364  0.01236859  1
  O2-  O535  1  0.07633886  0.65914969  0.34416285  1
  O2-  O536  1  0.09553448  0.68528827  0.70281912  1
  O2-  O537  1  0.08568519  0.91022825  0.01505841  1
  O2-  O538  1  0.06996263  0.89987828  0.32985806  1
  O2-  O539  1  0.08291791  0.92396630  0.68999811  1
  O2-  O540  1  0.33822426  0.16298370  0.02316998  1
  O2-  O541  1  0.35852308  0.17617609  0.38774373  1
  O2-  O542  1  0.33411599  0.16821929  0.68699251  1
  O2-  O543  1  0.35049645  0.42372545  0.01782831  1
  O2-  O544  1  0.32675971  0.42448917  0.35379762  1
  O2-  O545  1  0.33691465  0.42453967  0.68292342  1
  O2-  O546  1  0.32990190  0.65934976  0.03103400  1
  O2-  O547  1  0.34179384  0.68020811  0.35361262  1
  O2-  O548  1  0.32804757  0.66890871  0.67749022  1
  O2-  O549  1  0.33390558  0.90120855  0.01978350  1
  O2-  O550  1  0.32947966  0.91755937  0.35463943  1
  O2-  O551  1  0.33290423  0.91991657  0.68776859  1
  O2-  O552  1  0.57937076  0.16568818  0.02133137  1
  O2-  O553  1  0.56591817  0.14783473  0.34922435  1
  O2-  O554  1  0.60251183  0.16936507  0.69254761  1
  O2-  O555  1  0.58429305  0.41720514  0.00554043  1
  O2-  O556  1  0.57621944  0.42056491  0.36017057  1
  O2-  O557  1  0.58192375  0.41547375  0.69173516  1
  O2-  O558  1  0.58710590  0.67425414  0.02364304  1
  O2-  O559  1  0.57374880  0.66946785  0.34611510  1
  O2-  O560  1  0.58724431  0.67195173  0.68371886  1
  O2-  O561  1  0.58209927  0.91117526  0.02335746  1
  O2-  O562  1  0.58409701  0.92020836  0.35820630  1
  O2-  O563  1  0.58375045  0.92074474  0.68714793  1
  O2-  O564  1  0.78683560  0.08780356  0.03989196  1
  O2-  O565  1  0.81107896  0.14872598  0.33955601  1
  O2-  O566  1  0.89399582  0.16074212  0.68600786  1
  O2-  O567  1  0.77124759  0.44945011  0.05859511  1
  O2-  O568  1  0.81948088  0.41180713  0.29971550  1
  O2-  O569  1  0.84580115  0.41768455  0.69371985  1
  O2-  O570  1  0.83110741  0.66357386  0.01518799  1
  O2-  O571  1  0.81814038  0.65574255  0.32884539  1
  O2-  O572  1  0.83831963  0.67143979  0.70202913  1
  O2-  O573  1  0.83784719  0.92026683  0.02239676  1
  O2-  O574  1  0.83395869  0.91454159  0.35947342  1
  O2-  O575  1  0.82767203  0.91763547  0.68924405  1
