# generated using pymatgen
data_H2O
_symmetry_space_group_name_H-M   'P 1'
_cell_length_a   17.99036508
_cell_length_b   17.98467142
_cell_length_c   22.00384154
_cell_angle_alpha   89.96493558
_cell_angle_beta   90.00750720
_cell_angle_gamma   119.97651322
_symmetry_Int_Tables_number   1
_chemical_formula_structural   H2O
_chemical_formula_sum   'H384 O192'
_cell_volume   6167.00456159
_cell_formula_units_Z   192
loop_
 _symmetry_equiv_pos_site_id
 _symmetry_equiv_pos_as_xyz
  1  'x, y, z'
loop_
 _atom_type_symbol
 _atom_type_oxidation_number
  H+  1.0
  O2-  -2.0
loop_
 _atom_site_type_symbol
 _atom_site_label
 _atom_site_symmetry_multiplicity
 _atom_site_fract_x
 _atom_site_fract_y
 _atom_site_fract_z
 _atom_site_occupancy
  H+  H0  1  0.27911547  0.63543923  0.15961113  1
  H+  H1  1  0.11818856  0.38236967  0.82481736  1
  H+  H2  1  0.74896479  0.62203327  0.82579834  1
  H+  H3  1  0.87333543  0.89400909  0.67411704  1
  H+  H4  1  0.47847409  0.87144163  -0.00749586  1
  H+  H5  1  0.36445549  0.14351925  0.66797703  1
  H+  H6  1  0.65340037  0.07584736  0.23640072  1
  H+  H7  1  0.70135549  0.52938610  0.59636888  1
  H+  H8  1  0.62055144  0.14654771  0.00479524  1
  H+  H9  1  0.13253254  0.26569806  0.83563301  1
  H+  H10  1  0.99132870  0.86532489  0.97785035  1
  H+  H11  1  0.38327889  0.98959400  0.83743238  1
  H+  H12  1  0.13906875  0.60854487  0.16398833  1
  H+  H13  1  0.36585731  0.88068301  0.16548615  1
  H+  H14  1  0.39093902  1.01999954  0.50928476  1
  H+  H15  1  0.10740207  0.73075802  0.99466778  1
  H+  H16  1  0.85624855  0.46933274  0.16423040  1
  H+  H17  1  0.60111479  0.47170912  0.99977543  1
  H+  H18  1  0.84082893  0.63432406  0.99686862  1
  H+  H19  1  0.37894115  0.37001971  0.65400205  1
  H+  H20  1  0.36853323  0.73243198  0.00678299  1
  H+  H21  1  0.52241975  0.62999638  0.16169746  1
  H+  H22  1  0.37228086  0.14538846  1.00588593  1
  H+  H23  1  0.27790084  0.63483331  0.33464912  1
  H+  H24  1  0.10983115  0.23467817  0.05471831  1
  H+  H25  1  0.61556085  0.60244245  0.98456813  1
  H+  H26  1  0.86863096  0.98195728  0.67279919  1
  H+  H27  1  0.89584982  0.04049623  0.16271768  1
  H+  H28  1  0.15261744  0.51729935  0.68156581  1
  H+  H29  1  0.39308968  0.23475703  0.34530421  1
  H+  H30  1  0.76251965  0.63609697  0.48852130  1
  H+  H31  1  0.84336207  0.46761464  0.33612175  1
  H+  H32  1  0.46694508  0.62034426  0.67751118  1
  H+  H33  1  0.10653524  0.12438399  0.67328079  1
  H+  H34  1  0.51926268  0.12998043  0.49522419  1
  H+  H35  1  0.86898833  0.23169199  0.15611812  1
  H+  H36  1  0.62187505  1.01357473  0.17420823  1
  H+  H37  1  0.62256262  0.26415593  0.83172452  1
  H+  H38  1  0.87760585  0.25705959  0.65492849  1
  H+  H39  1  0.87030377  -0.01064962  0.82375653  1
  H+  H40  1  0.84088582  0.38602251  0.00547267  1
  H+  H41  1  0.60738432  0.12529155  0.82273840  1
  H+  H42  1  0.60829174  0.22068914  0.67160146  1
  H+  H43  1  0.28357190  0.88557356  0.49999527  1
  H+  H44  1  0.70339902  0.60404811  -0.02840722  1
  H+  H45  1  0.36498177  0.21421087  0.82467384  1
  H+  H46  1  0.18407986  0.09676396  0.57172851  1
  H+  H47  1  0.18905855  0.53969041  0.74606077  1
  H+  H48  1  0.28570745  0.88556738  0.68769648  1
  H+  H49  1  0.86300324  0.88852654  0.82113075  1
  H+  H50  1  0.82752892  0.57732061  0.85949387  1
  H+  H51  1  0.01596331  0.12394369  0.66971879  1
  H+  H52  1  0.52749624  0.88464602  0.67135474  1
  H+  H53  1  0.08762537  0.60236418  0.40260504  1
  H+  H54  1  0.87376408  0.89245341  0.17067005  1
  H+  H55  1  0.15574583  0.98833193  0.15325376  1
  H+  H56  1  0.11514973  0.78134577  0.36242835  1
  H+  H57  1  0.63432714  0.11134087  0.65759068  1
  H+  H58  1  0.39609411  1.02380026  0.16948108  1
  H+  H59  1  0.23682206  0.61270422  0.00472243  1
  H+  H60  1  0.47541901  0.60421041  0.33168416  1
  H+  H61  1  0.15571171  0.39569960  0.48946499  1
  H+  H62  1  0.86498325  0.22373753  0.82361921  1
  H+  H63  1  0.18187097  0.07408200  0.87694541  1
  H+  H64  1  0.46489028  0.36503325  0.65757240  1
  H+  H65  1  0.97993474  0.36870562  0.16531784  1
  H+  H66  1  0.16919233  0.18788170  0.53049119  1
  H+  H67  1  0.87210632  0.22102650  0.00271226  1
  H+  H68  1  0.38136126  0.54525731  0.83812962  1
  H+  H69  1  0.46354273  0.34739610  0.83444190  1
  H+  H70  1  0.38208911  0.61099263  -0.00361149  1
  H+  H71  1  0.72689018  0.11068533  0.83662303  1
  H+  H72  1  0.35529413  0.38615868  0.82791938  1
  H+  H73  1  0.82607192  0.45115005  0.48261463  1
  H+  H74  1  0.59302293  0.46112882  0.81916293  1
  H+  H75  1  0.26236062  0.36519177  0.01428485  1
  H+  H76  1  0.52089497  0.88337086  0.15937669  1
  H+  H77  1  0.71299723  0.36804585  0.00359046  1
  H+  H78  1  0.33988034  0.48721412  0.67731775  1
  H+  H79  1  0.29740654  0.15599802  0.34264587  1
  H+  H80  1  0.39422551  0.10435825  0.34488462  1
  H+  H81  1  0.34743766  0.17038437  0.43877576  1
  H+  H82  1  0.84881240  0.63103928  0.33634640  1
  H+  H83  1  0.94693751  0.08234116  0.49487022  1
  H+  H84  1  0.01736271  0.16108001  0.14458323  1
  H+  H85  1  0.11968497  0.98938754  0.01174134  1
  H+  H86  1  0.14484940  1.01353638  0.34902350  1
  H+  H87  1  0.72057999  0.35154107  0.17734734  1
  H+  H88  1  -0.00485802  0.62917196  0.86391226  1
  H+  H89  1  0.35097619  0.87538534  0.01214440  1
  H+  H90  1  0.39062679  0.85975114  0.33812789  1
  H+  H91  1  0.88595799  0.63408119  0.51529834  1
  H+  H92  1  0.42808070  0.33901444  0.23458311  1
  H+  H93  1  0.51172752  0.38173045  1.00329806  1
  H+  H94  1  0.72314489  0.11519079  0.50266402  1
  H+  H95  1  0.59996771  0.77891374  0.52354139  1
  H+  H96  1  0.62338278  0.60044602  0.32279336  1
  H+  H97  1  0.60171270  0.22302852  0.49316765  1
  H+  H98  1  0.66630794  0.08022079  0.89687594  1
  H+  H99  1  0.26386905  0.38986701  0.67647599  1
  H+  H100  1  0.62014751  0.35176068  0.66087439  1
  H+  H101  1  0.02547995  0.88463373  0.66007341  1
  H+  H102  1  0.61277826  -0.02021801  0.67010617  1
  H+  H103  1  0.11739491  0.39349505  0.13574172  1
  H+  H104  1  0.38669611  0.02483024  0.66397358  1
  H+  H105  1  0.62471918  0.27076964  1.00480745  1
  H+  H106  1  0.90750169  0.78932004  0.18552474  1
  H+  H107  1  0.12744466  0.91510773  0.50870607  1
  H+  H108  1  0.48312777  0.85932048  0.50144261  1
  H+  H109  1  0.06868695  0.64370991  -0.04223739  1
  H+  H110  1  0.61372627  0.98368213  0.48879861  1
  H+  H111  1  0.71918290  0.86834989  0.83500088  1
  H+  H112  1  0.97483288  0.35023536  0.65457555  1
  H+  H113  1  0.95540883  0.85206852  0.81686744  1
  H+  H114  1  0.13428030  0.58918246  0.31959539  1
  H+  H115  1  0.12719704  0.00158123  0.49746712  1
  H+  H116  1  0.98212747  0.59180914  0.84227922  1
  H+  H117  1  0.70792322  0.59421310  0.32673768  1
  H+  H118  1  -0.00335364  0.87767827  0.17751182  1
  H+  H119  1  0.90479126  0.77484240  0.96743359  1
  H+  H120  1  0.75110570  0.86896899  0.49027110  1
  H+  H121  1  0.88767236  0.61223080  0.17849722  1
  H+  H122  1  0.46763109  0.57201519  0.49638543  1
  H+  H123  1  0.87457994  0.66159196  0.68264016  1
  H+  H124  1  0.18082333  0.58191754  0.90392965  1
  H+  H125  1  0.39361089  0.52466826  0.17428062  1
  H+  H126  1  0.61252064  0.63166759  0.15902476  1
  H+  H127  1  0.15125530  0.79323804  0.38470032  1
  H+  H128  1  0.05029553  0.68451276  0.67296444  1
  H+  H129  1  0.16352598  0.11862627  0.95557241  1
  H+  H130  1  0.62499776  0.26615499  0.32931371  1
  H+  H131  1  0.27960104  0.63638330  0.47977849  1
  H+  H132  1  0.97177150  0.60446761  0.16841466  1
  H+  H133  1  0.85145513  0.12616258  1.00157719  1
  H+  H134  1  0.37504856  0.81911311  0.83540616  1
  H+  H135  1  0.51351816  0.63081762  1.00459183  1
  H+  H136  1  0.15818467  0.86350095  0.84022901  1
  H+  H137  1  0.37654016  0.39318969  0.15994825  1
  H+  H138  1  0.41414622  0.85084695  0.93672533  1
  H+  H139  1  1.00715306  0.28563862  0.97132094  1
  H+  H140  1  0.97518388  0.10431199  0.83423670  1
  H+  H141  1  0.07280352  0.03804119  0.19521382  1
  H+  H142  1  0.37894832  0.46094358  0.44418841  1
  H+  H143  1  0.85244047  0.12964647  0.48830514  1
  H+  H144  1  1.03016250  0.68203999  0.50822231  1
  H+  H145  1  0.06930883  0.39532931  0.72569839  1
  H+  H146  1  0.63480206  0.77914723  0.82404362  1
  H+  H147  1  0.75534951  0.37750397  0.33527173  1
  H+  H148  1  0.03162089  0.38458252  0.49389828  1
  H+  H149  1  0.16889932  0.78001598  0.83619068  1
  H+  H150  1  0.11078007  0.12856690  0.82042990  1
  H+  H151  1  0.66200618  0.57657675  0.23395067  1
  H+  H152  1  0.92301633  0.55440150  0.66941089  1
  H+  H153  1  0.38383325  0.97633995  0.35289628  1
  H+  H154  1  0.37959501  0.67247543  0.83581213  1
  H+  H155  1  0.22911415  0.11509569  0.66441935  1
  H+  H156  1  0.18729431  0.31850744  0.50900088  1
  H+  H157  1  0.63704635  1.02108433  0.32710273  1
  H+  H158  1  0.11751059  0.27277846  0.93305724  1
  H+  H159  1  0.28374647  0.98654466  0.28433706  1
  H+  H160  1  0.13496203  0.86065146  0.17214844  1
  H+  H161  1  0.41096280  0.59531311  0.89972014  1
  H+  H162  1  0.83904379  0.70803870  0.82856268  1
  H+  H163  1  0.58248507  0.41295603  0.10208185  1
  H+  H164  1  0.84471155  0.47649404  0.01303553  1
  H+  H165  1  0.62861891  0.67824600  0.49875548  1
  H+  H166  1  0.88283954  0.36284051  0.32354451  1
  H+  H167  1  0.88232824  0.35553854  0.50297857  1
  H+  H168  1  0.79299711  0.47671283  0.70114693  1
  H+  H169  1  0.48346954  0.12635332  0.99242282  1
  H+  H170  1  0.60999465  0.88463846  0.15856288  1
  H+  H171  1  0.66261675  0.83854034  0.57537069  1
  H+  H172  1  0.14257334  0.02253765  0.65857955  1
  H+  H173  1  0.39009247  0.10953645  0.50863511  1
  H+  H174  1  0.98122869  0.35956711  0.83432867  1
  H+  H175  1  0.09896636  0.36490909  0.66674309  1
  H+  H176  1  0.61747231  0.13673773  0.34206258  1
  H+  H177  1  0.38821019  0.58680160  0.48796215  1
  H+  H178  1  0.57018574  0.45114026  0.32647159  1
  H+  H179  1  0.64472914  0.52364015  0.17244654  1
  H+  H180  1  0.28347589  0.61893201  0.68886103  1
  H+  H181  1  0.08535702  0.14859892  0.26731461  1
  H+  H182  1  0.73234883  0.86811227  0.66084328  1
  H+  H183  1  0.29063785  0.39745131  0.16097475  1
  H+  H184  1  0.38840501  0.76644170  0.17488839  1
  H+  H185  1  0.38302937  0.22795883  0.49838469  1
  H+  H186  1  0.63673205  0.02921314  0.99039752  1
  H+  H187  1  0.86148235  0.13338577  0.82028059  1
  H+  H188  1  0.96764714  0.86673725  0.49889816  1
  H+  H189  1  0.84951316  0.88309581  0.33945114  1
  H+  H190  1  0.11082607  0.22496661  0.31500689  1
  H+  H191  1  0.85088062  0.72645133  0.49267835  1
  H+  H192  1  0.37498140  0.46985568  0.35103365  1
  H+  H193  1  0.85733018  0.99978162  0.50178625  1
  H+  H194  1  0.14355759  0.88861550  0.61372642  1
  H+  H195  1  0.23774088  0.10620461  0.81869411  1
  H+  H196  1  0.06280296  0.88920806  0.87100908  1
  H+  H197  1  0.77680756  0.64190219  0.17888808  1
  H+  H198  1  0.22296255  0.85753276  1.00309947  1
  H+  H199  1  0.88456315  0.26803547  0.50131505  1
  H+  H200  1  0.29578235  0.89294315  0.34152779  1
  H+  H201  1  0.72611863  0.11768695  -0.01164074  1
  H+  H202  1  0.58786672  0.65656539  0.39729476  1
  H+  H203  1  0.61007006  0.52580713  0.47120618  1
  H+  H204  1  0.38535498  0.09712148  0.83024796  1
  H+  H205  1  0.12593601  0.48065340  1.04206290  1
  H+  H206  1  0.86049815  0.22869210  0.33561370  1
  H+  H207  1  0.61670586  0.11185727  0.17194587  1
  H+  H208  1  0.88147116  1.01958935  -0.01278792  1
  H+  H209  1  0.12130058  0.47269967  0.82764985  1
  H+  H210  1  0.59959237  0.37395334  0.81963617  1
  H+  H211  1  0.85885938  0.13858434  0.33388618  1
  H+  H212  1  0.11064624  0.71393220  0.13539799  1
  H+  H213  1  0.89027880  0.36579728  0.17193031  1
  H+  H214  1  0.89037440  0.78488288  0.65621543  1
  H+  H215  1  0.07413592  0.15542533  0.76439528  1
  H+  H216  1  0.60524403  0.87638654  0.33704099  1
  H+  H217  1  0.13107052  0.54293945  0.47787645  1
  H+  H218  1  0.47901896  0.10065533  0.83111557  1
  H+  H219  1  0.62132235  -0.01328772  0.82484520  1
  H+  H220  1  0.37293104  0.71692909  0.48940679  1
  H+  H221  1  0.65542226  0.32108243  0.23385503  1
  H+  H222  1  0.42428920  0.36248791  0.49114068  1
  H+  H223  1  0.85786380  0.37671679  0.82539706  1
  H+  H224  1  0.00879286  0.52621453  0.37224195  1
  H+  H225  1  0.56048291  0.35962090  0.50589787  1
  H+  H226  1  0.51843804  0.12713250  0.16092052  1
  H+  H227  1  0.15149492  0.77550669  0.62888297  1
  H+  H228  1  0.71487700  0.85801840  0.32371321  1
  H+  H229  1  0.12716052  0.25762919  0.67160987  1
  H+  H230  1  0.76233171  0.39073836  0.66978770  1
  H+  H231  1  0.38236073  0.35968006  0.99003725  1
  H+  H232  1  0.82765238  0.92902993  0.20923135  1
  H+  H233  1  0.42818402  0.33925144  0.56109317  1
  H+  H234  1  0.71383477  0.84976032  0.16934380  1
  H+  H235  1  0.61930360  0.60525154  0.82334100  1
  H+  H236  1  0.94847017  0.60707339  0.99434831  1
  H+  H237  1  0.11470579  0.78288541  0.21807667  1
  H+  H238  1  0.87142421  0.77256374  0.33095588  1
  H+  H239  1  0.60903012  0.72136993  0.34040435  1
  H+  H240  1  0.56369673  0.66161784  0.65531039  1
  H+  H241  1  0.96442191  0.10903112  0.31447055  1
  H+  H242  1  0.10894794  0.24584413  0.15472631  1
  H+  H243  1  0.11723649  0.46895731  0.33534705  1
  H+  H244  1  0.64458140  0.86972451  0.66394189  1
  H+  H245  1  0.08816732  0.20022253  0.52819208  1
  H+  H246  1  0.14208793  0.63577688  0.48882857  1
  H+  H247  1  0.88725449  0.12646690  0.16385464  1
  H+  H248  1  0.27675778  0.87861938  0.16806590  1
  H+  H249  1  0.14669100  0.60839866  0.00359928  1
  H+  H250  1  0.24750875  0.62257043  0.84914602  1
  H+  H251  1  0.99902671  0.35497129  1.00630693  1
  H+  H252  1  0.71098247  0.35100609  0.83300821  1
  H+  H253  1  0.14441743  0.36423122  0.33595554  1
  H+  H254  1  0.14808114  0.12694639  0.32839121  1
  H+  H255  1  0.62709202  0.76794299  -0.00894739  1
  H+  H256  1  0.14610156  0.76920312  0.54937803  1
  H+  H257  1  0.63371292  0.11470584  0.50548320  1
  H+  H258  1  0.24628988  0.13038920  0.51199046  1
  H+  H259  1  0.90979415  0.07338997  0.89255326  1
  H+  H260  1  0.62529887  0.76153295  0.16850850  1
  H+  H261  1  0.61266058  0.34806267  0.32430483  1
  H+  H262  1  0.37579521  0.51887263  -0.00850332  1
  H+  H263  1  0.23274733  0.36021734  0.34074135  1
  H+  H264  1  0.48166040  0.10348993  0.33843158  1
  H+  H265  1  0.76493308  0.88893649  0.00216766  1
  H+  H266  1  0.38710400  0.27305944  -0.00544723  1
  H+  H267  1  0.28290561  0.14618769  0.01382171  1
  H+  H268  1  0.76811102  0.13463003  0.66869091  1
  H+  H269  1  0.78528514  0.64805390  0.65990831  1
  H+  H270  1  0.16465884  0.93412431  0.34355630  1
  H+  H271  1  0.39174291  0.85238626  0.50620080  1
  H+  H272  1  0.47874375  0.36118586  0.17298127  1
  H+  H273  1  0.38580669  0.60199570  0.33054947  1
  H+  H274  1  0.39605915  0.11320956  0.16908352  1
  H+  H275  1  0.37468728  0.71086442  0.66296908  1
  H+  H276  1  0.96751258  0.11395594  0.97880547  1
  H+  H277  1  0.21997938  0.35471063  0.84527595  1
  H+  H278  1  0.15947209  0.65312049  0.81580765  1
  H+  H279  1  0.21919647  0.28709837  0.20685250  1
  H+  H280  1  0.65903706  0.58481396  0.59125402  1
  H+  H281  1  0.42268133  0.37416211  0.33760382  1
  H+  H282  1  0.61138712  0.88921226  1.00375086  1
  H+  H283  1  0.12363039  0.90101467  0.00699966  1
  H+  H284  1  0.87556480  0.86016209  0.49960780  1
  H+  H285  1  0.93339026  0.32533711  0.89650964  1
  H+  H286  1  0.60208427  0.46539787  0.67117915  1
  H+  H287  1  0.15650951  0.15485111  1.01617318  1
  H+  H288  1  0.41917023  0.82609048  0.23418531  1
  H+  H289  1  0.61381415  0.21687191  0.16461050  1
  H+  H290  1  0.17262653  0.83861885  0.93943783  1
  H+  H291  1  0.09368054  0.89241956  0.70995058  1
  H+  H292  1  0.09648335  0.18313766  0.42722100  1
  H+  H293  1  0.36209544  0.21594458  0.16677276  1
  H+  H294  1  0.35448679  0.69987189  0.77558335  1
  H+  H295  1  0.48722212  0.85888970  0.33694495  1
  H+  H296  1  0.13701448  0.71924219  0.71364700  1
  H+  H297  1  0.67473893  0.71427153  0.76215131  1
  H+  H298  1  0.92099795  0.33885123  0.26579395  1
  H+  H299  1  0.80181362  0.68405391  0.03374770  1
  H+  H300  1  0.61450686  0.88816926  0.82166274  1
  H+  H301  1  0.58645599  0.16490939  0.40239824  1
  H+  H302  1  0.57673435  0.65924152  0.06215046  1
  H+  H303  1  0.33996852  0.16460307  0.10562134  1
  H+  H304  1  0.58448735  0.92137023  0.06314876  1
  H+  H305  1  0.82330686  0.40900004  0.10581085  1
  H+  H306  1  0.82980840  0.16672558  0.42907612  1
  H+  H307  1  0.86920307  0.55813469  0.94356272  1
  H+  H308  1  0.90572314  0.07368664  0.59579502  1
  H+  H309  1  0.57594808  0.66897249  0.74932816  1
  H+  H310  1  0.93914981  0.61601549  0.61351893  1
  H+  H311  1  0.90999669  0.57775895  0.26634417  1
  H+  H312  1  0.58956055  0.16728525  0.06840248  1
  H+  H313  1  0.42462853  0.09350912  0.93371162  1
  H+  H314  1  0.91774999  0.56571054  0.52141762  1
  H+  H315  1  0.40715766  0.31961680  0.89511054  1
  H+  H316  1  0.91666001  0.83617556  0.88282758  1
  H+  H317  1  0.17860472  0.09543988  0.27422473  1
  H+  H318  1  0.95913686  0.59891436  0.32954967  1
  H+  H319  1  0.15867675  0.29794102  0.60868948  1
  H+  H320  1  0.51976689  0.13169938  0.67075414  1
  H+  H321  1  0.81090366  0.39554199  0.42463301  1
  H+  H322  1  0.32187907  0.90290610  0.07245839  1
  H+  H323  1  0.02379156  0.38353926  0.33823153  1
  H+  H324  1  0.07624499  0.65585697  0.80257838  1
  H+  H325  1  0.21652567  0.63524056  0.58725974  1
  H+  H326  1  0.66516019  0.08249973  0.59787354  1
  H+  H327  1  0.04904662  0.15361246  0.43226964  1
  H+  H328  1  0.34442697  0.67564533  0.06827568  1
  H+  H329  1  0.38551513  0.76090333  0.33496342  1
  H+  H330  1  0.10191245  0.92861392  0.09809462  1
  H+  H331  1  0.80941013  0.90325975  0.42913317  1
  H+  H332  1  0.83064019  0.16625311  0.72782005  1
  H+  H333  1  0.83184370  0.48922360  0.85860700  1
  H+  H334  1  0.56730607  0.40549198  0.73120182  1
  H+  H335  1  0.58076643  0.91160070  0.39860220  1
  H+  H336  1  0.91132304  0.32131890  0.59073490  1
  H+  H337  1  0.33670417  0.66233356  0.39627554  1
  H+  H338  1  0.35993463  0.23149025  0.66847442  1
  H+  H339  1  0.39082255  0.84469114  0.65636057  1
  H+  H340  1  0.91820622  0.84539648  0.59725204  1
  H+  H341  1  0.90390228  0.08469335  0.25837993  1
  H+  H342  1  0.72638356  0.11134756  0.32477442  1
  H+  H343  1  0.58724948  0.92526578  0.75901118  1
  H+  H344  1  0.21050036  0.89811363  0.25655183  1
  H+  H345  1  0.82728136  0.41090895  0.76817296  1
  H+  H346  1  0.83514879  0.17065106  0.09751162  1
  H+  H347  1  0.65468329  0.82668673  0.93157349  1
  H+  H348  1  0.61166100  0.37891064  0.15998162  1
  H+  H349  1  0.91973782  0.84263588  0.27980500  1
  H+  H350  1  0.08310633  0.41402997  0.43023226  1
  H+  H351  1  0.57638829  0.15292824  0.76197879  1
  H+  H352  1  0.12104399  0.94514230  0.41154837  1
  H+  H353  1  0.07085659  0.64474491  0.08407986  1
  H+  H354  1  0.41414851  0.07962047  0.60243013  1
  H+  H355  1  0.33873722  0.90865324  0.43904533  1
  H+  H356  1  0.36851191  0.63532326  0.16365124  1
  H+  H357  1  0.82325244  0.92331681  0.06052158  1
  H+  H358  1  0.33309146  0.41283234  0.06485785  1
  H+  H359  1  0.11774825  0.96452759  0.82557704  1
  H+  H360  1  0.65135822  0.32652740  0.60069972  1
  H+  H361  1  0.17340391  0.57390272  0.25891842  1
  H+  H362  1  0.14302794  0.52332859  0.16046654  1
  H+  H363  1  0.61540893  0.36564293  0.00234528  1
  H+  H364  1  0.35338720  0.91429045  0.73905706  1
  H+  H365  1  0.41879428  0.57826880  0.23643528  1
  H+  H366  1  0.32536672  0.42006402  0.77185191  1
  H+  H367  1  0.88146648  0.11011262  0.65469304  1
  H+  H368  1  0.84291727  0.68171583  0.12521150  1
  H+  H369  1  0.70548539  0.35020560  0.50149432  1
  H+  H370  1  0.83938539  0.92562394  0.75680202  1
  H+  H371  1  0.84782079  0.97227390  0.33616570  1
  H+  H372  1  0.18666143  0.33855333  0.24350539  1
  H+  H373  1  0.82044049  0.65930317  0.39621460  1
  H+  H374  1  0.42305063  0.81912634  0.59591978  1
  H+  H375  1  0.10057320  0.74274293  0.45909496  1
  H+  H376  1  0.65309235  0.82302370  0.26486353  1
  H+  H377  1  0.28614098  0.88228536  0.84172671  1
  H+  H378  1  0.63280851  0.56820033  0.88652127  1
  H+  H379  1  0.17250972  0.62960149  0.59113235  1
  H+  H380  1  0.11102677  0.13187931  0.17017464  1
  H+  H381  1  0.61699253  0.89639873  0.49363463  1
  H+  H382  1  0.25985522  0.42510847  0.50961968  1
  H+  H383  1  0.34269724  0.16405642  0.76078101  1
  O2-  O384  1  0.07844807  0.19368438  0.12919582  1
  O2-  O385  1  0.14944375  0.23194936  0.53736595  1
  O2-  O386  1  0.07614740  0.15576375  0.81017209  1
  O2-  O387  1  0.08718785  0.42422320  0.12377943  1
  O2-  O388  1  0.09019548  0.41886416  0.47615300  1
  O2-  O389  1  0.09240994  0.41611954  0.80688697  1
  O2-  O390  1  0.07694759  0.65167604  0.12867232  1
  O2-  O391  1  0.09308890  0.71213154  0.49756642  1
  O2-  O392  1  0.13840090  0.68895773  0.79527651  1
  O2-  O393  1  0.10862722  0.93048131  0.14422769  1
  O2-  O394  1  0.10187949  0.94099084  0.48218408  1
  O2-  O395  1  0.08489539  0.90028427  0.82924764  1
  O2-  O396  1  0.33574036  0.15697810  0.15053314  1
  O2-  O397  1  0.34504718  0.16716618  0.48420457  1
  O2-  O398  1  0.33966166  0.15469808  0.80607484  1
  O2-  O399  1  0.34895106  0.42560267  0.14282793  1
  O2-  O400  1  0.36154994  0.40224815  0.42765997  1
  O2-  O401  1  0.32376224  0.41647082  0.81707968  1
  O2-  O402  1  0.34085015  0.66793744  0.14752669  1
  O2-  O403  1  0.34092705  0.65807223  0.47114584  1
  O2-  O404  1  0.35044850  0.70475804  0.81958796  1
  O2-  O405  1  0.33537038  0.91161100  0.15221206  1
  O2-  O406  1  0.34211200  0.91150425  0.48466894  1
  O2-  O407  1  0.35001897  0.91458664  0.82478677  1
  O2-  O408  1  0.58450262  0.15637512  0.14799059  1
  O2-  O409  1  0.57978812  0.16291020  0.47931576  1
  O2-  O410  1  0.57161464  0.14946054  0.80765420  1
  O2-  O411  1  0.58518770  0.41392733  0.14711596  1
  O2-  O412  1  0.62286155  0.38854362  0.49619361  1
  O2-  O413  1  0.56454240  0.40041590  0.80449220  1
  O2-  O414  1  0.58136041  0.66053720  0.14323357  1
  O2-  O415  1  0.59177105  0.62366711  0.47767658  1
  O2-  O416  1  0.62064135  0.69468204  0.78371240  1
  O2-  O417  1  0.58167119  0.91755595  0.14488248  1
  O2-  O418  1  0.58601267  0.92273064  0.47333939  1
  O2-  O419  1  0.58912645  0.92504058  0.80620552  1
  O2-  O420  1  0.83982977  0.17105037  0.14248796  1
  O2-  O421  1  0.82935655  0.16700142  0.47484149  1
  O2-  O422  1  0.83156622  0.16413714  0.80628437  1
  O2-  O423  1  0.82707913  0.40813033  0.15089511  1
  O2-  O424  1  0.81036562  0.39293638  0.47086671  1
  O2-  O425  1  0.82313522  0.40274760  0.81282919  1
  O2-  O426  1  0.84097751  0.67642099  0.16930895  1
  O2-  O427  1  0.82499175  0.66458786  0.48074785  1
  O2-  O428  1  0.81179567  0.64643325  0.82011593  1
  O2-  O429  1  0.83530268  0.91780475  0.16691185  1
  O2-  O430  1  0.81112493  0.90086287  0.47488324  1
  O2-  O431  1  0.83575503  0.92468645  0.80539598  1
  O2-  O432  1  0.11946246  0.09652305  0.20197023  1
  O2-  O433  1  0.18537752  0.10748546  0.52665087  1
  O2-  O434  1  0.17517295  0.07467682  0.83303902  1
  O2-  O435  1  0.19495201  0.32456888  0.20061864  1
  O2-  O436  1  0.20564516  0.37990181  0.49217122  1
  O2-  O437  1  0.15746751  0.32187699  0.85691137  1
  O2-  O438  1  0.17062214  0.58075179  0.18036114  1
  O2-  O439  1  0.15879969  0.60240493  0.46236311  1
  O2-  O440  1  0.18518177  0.58612211  0.85886701  1
  O2-  O441  1  0.15939958  0.82709871  0.19254868  1
  O2-  O442  1  0.18351689  0.80915946  0.58477517  1
  O2-  O443  1  0.19254839  0.83784284  0.85609748  1
  O2-  O444  1  0.43027536  0.08505878  0.18113854  1
  O2-  O445  1  0.42033866  0.07961462  0.52533331  1
  O2-  O446  1  0.41647056  0.06782538  0.84736931  1
  O2-  O447  1  0.41938283  0.33524563  0.19003436  1
  O2-  O448  1  0.44370543  0.33236380  0.51850827  1
  O2-  O449  1  0.40285638  0.31476819  0.84990768  1
  O2-  O450  1  0.42107310  0.58443530  0.19130590  1
  O2-  O451  1  0.40447633  0.54222372  0.49347132  1
  O2-  O452  1  0.40973354  0.60368013  0.85513099  1
  O2-  O453  1  0.41869251  0.82808605  0.18954138  1
  O2-  O454  1  0.42358331  0.82226887  0.51769411  1
  O2-  O455  1  0.39752929  0.87729905  0.85485700  1
  O2-  O456  1  0.64684935  0.07433075  0.19057498  1
  O2-  O457  1  0.66367847  0.08312440  0.51945526  1
  O2-  O458  1  0.66589433  0.07677501  0.85083779  1
  O2-  O459  1  0.65840111  0.31931039  0.18834171  1
  O2-  O460  1  0.64767577  0.32695986  0.52101139  1
  O2-  O461  1  0.64959116  0.32492475  0.84391008  1
  O2-  O462  1  0.67253417  0.58353382  0.18864449  1
  O2-  O463  1  0.64153105  0.58003818  0.49404430  1
  O2-  O464  1  0.63791323  0.56665766  0.84145698  1
  O2-  O465  1  0.65417572  0.82249942  0.18427638  1
  O2-  O466  1  0.65259909  0.83372011  0.52899679  1
  O2-  O467  1  0.65756910  0.83650575  0.84536119  1
  O2-  O468  1  0.92306032  0.09925580  0.17930690  1
  O2-  O469  1  0.89231503  0.06165237  0.51597897  1
  O2-  O470  1  0.91232652  0.07312564  0.84633014  1
  O2-  O471  1  0.92428283  0.33905551  0.18670076  1
  O2-  O472  1  0.91505113  0.32829245  0.51863246  1
  O2-  O473  1  0.92280638  0.32686950  0.85243165  1
  O2-  O474  1  0.91462961  0.57675126  0.18830890  1
  O2-  O475  1  0.93104241  0.62284334  0.53448900  1
  O2-  O476  1  0.82792786  0.53136637  0.88545741  1
  O2-  O477  1  0.93787931  0.85197881  0.19428315  1
  O2-  O478  1  0.90910072  0.83346286  0.51559795  1
  O2-  O479  1  0.90095965  0.83461570  0.83810647  1
  O2-  O480  1  0.18382732  0.09942217  0.31902859  1
  O2-  O481  1  0.16895115  0.08424856  0.64751829  1
  O2-  O482  1  0.16732457  0.10993782  0.99889757  1
  O2-  O483  1  0.17594882  0.33553749  0.32040370  1
  O2-  O484  1  0.15514559  0.31502212  0.65055411  1
  O2-  O485  1  0.08039633  0.24080498  0.96874457  1
  O2-  O486  1  0.17541279  0.57191717  0.30439089  1
  O2-  O487  1  0.19136418  0.56688249  0.70707328  1
  O2-  O488  1  0.17455962  0.57509561  0.99290937  1
  O2-  O489  1  0.23335686  0.93124762  0.29491229  1
  O2-  O490  1  0.17616856  0.88678535  0.57650516  1
  O2-  O491  1  0.16202475  0.83396297  0.98377497  1
  O2-  O492  1  0.41789357  0.06694877  0.33314470  1
  O2-  O493  1  0.41377523  0.08408038  0.64799731  1
  O2-  O494  1  0.42389572  0.10189243  0.97767384  1
  O2-  O495  1  0.45356676  0.34725965  0.31728198  1
  O2-  O496  1  0.40599155  0.33691583  0.63915003  1
  O2-  O497  1  0.41552489  0.33219894  0.97556646  1
  O2-  O498  1  0.41417273  0.56918010  0.31810026  1
  O2-  O499  1  0.37585299  0.59784320  0.65392839  1
  O2-  O500  1  0.41062685  0.58002881  0.97939588  1
  O2-  O501  1  0.42021900  0.82616264  0.32229182  1
  O2-  O502  1  0.42149348  0.81518672  0.64165977  1
  O2-  O503  1  0.41673233  0.83824375  0.97994883  1
  O2-  O504  1  0.66493606  0.08013466  0.31043488  1
  O2-  O505  1  0.66614673  0.08160624  0.64352740  1
  O2-  O506  1  0.66546516  0.08859640  0.97282936  1
  O2-  O507  1  0.65097406  0.32574258  0.31195677  1
  O2-  O508  1  0.65430288  0.32518703  0.64586242  1
  O2-  O509  1  0.65054067  0.33392290  0.99077946  1
  O2-  O510  1  0.64875203  0.56499211  0.30916524  1
  O2-  O511  1  0.68388907  0.56305837  0.62115084  1
  O2-  O512  1  0.64043666  0.56856706  0.96570436  1
  O2-  O513  1  0.65300755  0.82534507  0.31032070  1
  O2-  O514  1  0.67251726  0.83933376  0.64576931  1
  O2-  O515  1  0.65745441  0.82897969  0.97644100  1
  O2-  O516  1  0.90236595  0.07992427  0.30380098  1
  O2-  O517  1  0.91129732  0.07884376  0.64091556  1
  O2-  O518  1  0.90746193  0.07787643  0.96633950  1
  O2-  O519  1  0.91868191  0.33733992  0.31136286  1
  O2-  O520  1  0.91251241  0.31905787  0.63758272  1
  O2-  O521  1  0.96822697  0.30950128  0.97557354  1
  O2-  O522  1  0.90175349  0.57599957  0.31146284  1
  O2-  O523  1  0.94876119  0.61527384  0.65801157  1
  O2-  O524  1  0.88561481  0.57307366  0.99018428  1
  O2-  O525  1  0.90279446  0.83534090  0.32290794  1
  O2-  O526  1  0.92394016  0.84763246  0.64235477  1
  O2-  O527  1  0.95121172  0.82611953  0.94680158  1
  O2-  O528  1  0.14447276  0.25221418  0.01605281  1
  O2-  O529  1  0.07864168  0.16109706  0.31002876  1
  O2-  O530  1  0.07401522  0.15248518  0.68885790  1
  O2-  O531  1  0.09128734  0.41978637  0.05669397  1
  O2-  O532  1  0.08337221  0.41162689  0.35574204  1
  O2-  O533  1  0.06652934  0.39417277  0.68041721  1
  O2-  O534  1  0.07383089  0.66518498  -0.00072312  1
  O2-  O535  1  0.04978648  0.58714075  0.36622844  1
  O2-  O536  1  0.11102715  0.73312818  0.67888335  1
  O2-  O537  1  0.09152958  0.92859070  0.02445846  1
  O2-  O538  1  0.12527713  0.95145085  0.36466093  1
  O2-  O539  1  0.08911026  0.90945144  0.66861006  1
  O2-  O540  1  0.34407469  0.17641150  0.02531185  1
  O2-  O541  1  0.35471240  0.17533721  0.36035198  1
  O2-  O542  1  0.33302204  0.17157734  0.68503995  1
  O2-  O543  1  0.32371851  0.40679822  0.01983508  1
  O2-  O544  1  0.34766357  0.40655650  0.36167020  1
  O2-  O545  1  0.32409555  0.42740859  0.68943816  1
  O2-  O546  1  0.33962071  0.67246509  0.02300090  1
  O2-  O547  1  0.33831681  0.66765917  0.35040528  1
  O2-  O548  1  0.35099826  0.65495175  0.68725516  1
  O2-  O549  1  0.31152720  0.89431255  0.02810732  1
  O2-  O550  1  0.35054797  0.91024470  0.36271350  1
  O2-  O551  1  0.34731359  0.91161790  0.69433088  1
  O2-  O552  1  0.59195127  0.17674208  0.02346802  1
  O2-  O553  1  0.58606919  0.16574421  0.35676521  1
  O2-  O554  1  0.58059798  0.15942571  0.68547314  1
  O2-  O555  1  0.57363217  0.41253299  0.01844045  1
  O2-  O556  1  0.54096954  0.39176028  0.34399264  1
  O2-  O557  1  0.56768509  0.40535709  0.68483780  1
  O2-  O558  1  0.57574051  0.66132257  0.01686227  1
  O2-  O559  1  0.57998467  0.65973026  0.35311999  1
  O2-  O560  1  0.52634426  0.62965200  0.68906155  1
  O2-  O561  1  0.58455436  0.92328190  0.01786850  1
  O2-  O562  1  0.57360453  0.90616668  0.35279618  1
  O2-  O563  1  0.58599846  0.92079275  0.68913523  1
  O2-  O564  1  0.82795099  0.16250423  0.01653084  1
  O2-  O565  1  0.82895790  0.16832744  0.35110841  1
  O2-  O566  1  0.83033630  0.16592605  0.68203823  1
  O2-  O567  1  0.81265625  0.41333036  0.02603784  1
  O2-  O568  1  0.81644018  0.40681350  0.35028142  1
  O2-  O569  1  0.81476539  0.43882392  0.68926329  1
  O2-  O570  1  0.81495273  0.67283030  -0.00692799  1
  O2-  O571  1  0.81603698  0.65856732  0.35131242  1
  O2-  O572  1  0.83959724  0.68951429  0.67968400  1
  O2-  O573  1  0.82565517  0.92358131  0.01624551  1
  O2-  O574  1  0.81568609  0.91236792  0.35186040  1
  O2-  O575  1  0.84199921  0.92291984  0.69164273  1
