# generated using pymatgen
data_H2O
_symmetry_space_group_name_H-M   'P 1'
_cell_length_a   17.97695463
_cell_length_b   17.98447306
_cell_length_c   21.98382901
_cell_angle_alpha   89.99189420
_cell_angle_beta   90.01245071
_cell_angle_gamma   119.96384770
_symmetry_Int_Tables_number   1
_chemical_formula_structural   H2O
_chemical_formula_sum   'H384 O192'
_cell_volume   6157.52089804
_cell_formula_units_Z   192
loop_
 _symmetry_equiv_pos_site_id
 _symmetry_equiv_pos_as_xyz
  1  'x, y, z'
loop_
 _atom_type_symbol
 _atom_type_oxidation_number
  H+  1.0
  O2-  -2.0
loop_
 _atom_site_type_symbol
 _atom_site_label
 _atom_site_symmetry_multiplicity
 _atom_site_fract_x
 _atom_site_fract_y
 _atom_site_fract_z
 _atom_site_occupancy
  H+  H0  1  0.88151722  0.59438312  0.66085677  1
  H+  H1  1  0.21252002  0.85944041  -0.00914915  1
  H+  H2  1  0.38820292  0.35707645  0.65790927  1
  H+  H3  1  0.77757341  0.64025309  0.34409558  1
  H+  H4  1  0.73009379  0.85664416  0.50779736  1
  H+  H5  1  0.61914901  0.85562040  0.34209126  1
  H+  H6  1  0.07973383  0.17118756  0.72903504  1
  H+  H7  1  0.20836725  0.12050758  0.82690035  1
  H+  H8  1  0.86571394  0.90668677  0.17757692  1
  H+  H9  1  0.47458365  0.61875645  0.66629484  1
  H+  H10  1  0.63063478  0.34668152  0.17747156  1
  H+  H11  1  0.22531183  0.11508890  0.50630782  1
  H+  H12  1  0.09657731  0.71179448  0.67144923  1
  H+  H13  1  0.97331148  0.87008635  0.18062761  1
  H+  H14  1  0.40162179  0.04704847  0.65405338  1
  H+  H15  1  0.01758058  0.14171587  0.15905302  1
  H+  H16  1  0.11009914  0.72724683  0.48578937  1
  H+  H17  1  0.87170870  0.47234424  0.66951268  1
  H+  H18  1  0.40239386  0.13303608  0.66694334  1
  H+  H19  1  0.97920525  0.36260912  0.66710242  1
  H+  H20  1  0.60222511  0.88108849  0.00560495  1
  H+  H21  1  0.14221565  0.26296432  0.31953353  1
  H+  H22  1  1.02568651  0.13332528  0.49132421  1
  H+  H23  1  0.37379874  0.60197157  0.14974020  1
  H+  H24  1  0.11961596  0.64326236  0.82975952  1
  H+  H25  1  0.36531117  0.64302508  0.49960613  1
  H+  H26  1  0.73308312  0.62045460  0.99525692  1
  H+  H27  1  0.96674641  0.86164289  0.50950821  1
  H+  H28  1  0.74052333  0.39533007  0.99278358  1
  H+  H29  1  0.14039324  0.03843439  0.99026453  1
  H+  H30  1  0.38639398  0.38602163  0.15593291  1
  H+  H31  1  0.38020887  0.09869448  0.33087823  1
  H+  H32  1  0.35836184  0.64078871  0.67595843  1
  H+  H33  1  0.91773399  0.05991999  0.90936008  1
  H+  H34  1  0.10689576  0.46452414  0.15395778  1
  H+  H35  1  0.06986116  0.37221967  0.43355420  1
  H+  H36  1  0.42080433  0.84054296  0.61052132  1
  H+  H37  1  0.53214883  0.38506038  0.49334896  1
  H+  H38  1  0.88841385  0.48052777  0.33413244  1
  H+  H39  1  0.11879306  0.25957205  0.16702137  1
  H+  H40  1  0.46254072  0.60638097  0.84833584  1
  H+  H41  1  0.63103766  1.01804402  0.16011780  1
  H+  H42  1  0.03502208  0.98696924  0.05443979  1
  H+  H43  1  0.52497146  0.89430423  0.68059135  1
  H+  H44  1  0.60317048  0.72136655  -0.01642337  1
  H+  H45  1  0.35307024  0.73288171  0.34680383  1
  H+  H46  1  0.38726775  0.11219714  0.99278909  1
  H+  H47  1  0.97437619  0.03853487  0.86637249  1
  H+  H48  1  -0.02714693  0.59734909  0.66374154  1
  H+  H49  1  0.63668966  0.61315974  0.33335744  1
  H+  H50  1  0.11104398  0.48870370  0.82938397  1
  H+  H51  1  0.87316069  0.84458553  0.66415361  1
  H+  H52  1  0.52194008  0.64397635  0.49320739  1
  H+  H53  1  0.16666669  0.08337075  0.56694164  1
  H+  H54  1  0.86519919  0.63117138  0.49628989  1
  H+  H55  1  0.35224784  0.96913433  0.00427904  1
  H+  H56  1  0.21811363  0.37134060  0.83388730  1
  H+  H57  1  0.47050593  0.36842894  0.83628664  1
  H+  H58  1  0.38765042  0.86290715  0.83862695  1
  H+  H59  1  1.03876975  0.88199670  0.33758621  1
  H+  H60  1  0.87344493  0.37502163  0.67019140  1
  H+  H61  1  0.35629663  0.63677576  0.82899514  1
  H+  H62  1  0.39893555  0.36994397  0.52220846  1
  H+  H63  1  0.67780988  0.24039502  0.94467231  1
  H+  H64  1  0.35920868  0.23085118  0.49128064  1
  H+  H65  1  0.38502690  0.03627966  0.51704972  1
  H+  H66  1  0.34046559  0.41287094  0.25181031  1
  H+  H67  1  0.38918534  0.78065086  0.66902936  1
  H+  H68  1  0.08114869  0.16655525  0.09997639  1
  H+  H69  1  0.27977367  0.14378252  0.00089095  1
  H+  H70  1  0.22797673  0.61917978  0.84498964  1
  H+  H71  1  0.77021355  0.15710923  0.34677665  1
  H+  H72  1  0.13662101  0.61439646  0.99810096  1
  H+  H73  1  0.37694789  0.21896244  0.33706386  1
  H+  H74  1  0.97814540  0.85231085  0.82673344  1
  H+  H75  1  0.11023877  0.97834019  0.17996300  1
  H+  H76  1  0.12305894  0.12570017  0.83012828  1
  H+  H77  1  0.64852031  0.81969004  0.56222243  1
  H+  H78  1  0.61607987  0.23445857  0.49109433  1
  H+  H79  1  0.68646059  0.34232190  0.60144640  1
  H+  H80  1  0.85191941  0.87498429  0.50531514  1
  H+  H81  1  0.86610883  0.71028990  0.82151456  1
  H+  H82  1  0.87653924  0.73087520  0.00467481  1
  H+  H83  1  0.71940692  0.85520364  0.83971275  1
  H+  H84  1  1.02944256  0.63844138  1.00412824  1
  H+  H85  1  0.64304095  0.52630807  0.33512892  1
  H+  H86  1  0.36074062  0.38205724  0.00737561  1
  H+  H87  1  0.39172340  0.27654745  0.16729705  1
  H+  H88  1  0.61690173  0.97838685  0.49687765  1
  H+  H89  1  -0.02967011  0.35228318  0.18376538  1
  H+  H90  1  0.14644697  0.27300170  0.51354442  1
  H+  H91  1  0.53922352  0.77500215  0.61870483  1
  H+  H92  1  0.13492390  0.61310080  0.65765164  1
  H+  H93  1  0.88611954  0.61179793  0.33427565  1
  H+  H94  1  0.97375102  0.10935412  0.99848384  1
  H+  H95  1  0.61100391  0.12241743  0.17971859  1
  H+  H96  1  0.88913780  0.10555966  0.50186387  1
  H+  H97  1  0.54119451  0.15223059  0.67215278  1
  H+  H98  1  0.12884621  0.51990839  0.99921210  1
  H+  H99  1  0.90712039  0.52461959  0.84898237  1
  H+  H100  1  0.61530516  0.76849333  0.15800510  1
  H+  H101  1  0.11345627  0.50380173  0.31780126  1
  H+  H102  1  0.69880560  0.35891424  0.77660898  1
  H+  H103  1  0.14346921  0.63247547  0.50281894  1
  H+  H104  1  0.34189537  0.70713195  0.11261086  1
  H+  H105  1  0.89317354  0.35854824  0.50819047  1
  H+  H106  1  0.35113724  0.42847918  0.59252151  1
  H+  H107  1  0.63974101  0.61108270  0.66329148  1
  H+  H108  1  0.11596776  0.39103368  0.67589455  1
  H+  H109  1  0.12758822  0.11607201  0.18564159  1
  H+  H110  1  0.71948683  0.60889672  0.17926827  1
  H+  H111  1  0.73625497  0.10111107  0.50640583  1
  H+  H112  1  0.77692835  0.11987502  0.82635565  1
  H+  H113  1  0.85301801  0.96613003  0.50129954  1
  H+  H114  1  0.98099086  0.14739944  0.32794210  1
  H+  H115  1  0.19351725  0.84621473  0.64534249  1
  H+  H116  1  0.89718470  0.86365815  0.33305557  1
  H+  H117  1  0.38872227  0.53739431  0.30577387  1
  H+  H118  1  0.37395416  0.59875395  1.00298393  1
  H+  H119  1  0.09972171  0.96746032  0.66635078  1
  H+  H120  1  0.11938425  0.86075254  0.49851767  1
  H+  H121  1  0.60980408  0.38839984  0.82722938  1
  H+  H122  1  0.50496410  0.58313227  0.13728607  1
  H+  H123  1  0.61520981  0.47443919  0.67272454  1
  H+  H124  1  0.13527416  0.81839868  0.55710195  1
  H+  H125  1  0.76528152  0.37981571  0.31737983  1
  H+  H126  1  0.52311641  0.88723298  0.83283946  1
  H+  H127  1  0.98093518  0.60852997  0.50406823  1
  H+  H128  1  0.11590573  0.35627469  0.16715313  1
  H+  H129  1  0.10387341  0.38307460  0.00438976  1
  H+  H130  1  0.27783665  0.38727557  0.30585594  1
  H+  H131  1  0.60362739  0.72367502  0.67482325  1
  H+  H132  1  0.24056762  0.63301739  0.50565679  1
  H+  H133  1  0.87511168  1.00129829  0.17386530  1
  H+  H134  1  0.64420154  0.02660090  0.66490662  1
  H+  H135  1  0.57960352  0.56473838  0.14946688  1
  H+  H136  1  0.36035453  0.22419527  0.68035425  1
  H+  H137  1  0.90865051  0.34454158  0.93205121  1
  H+  H138  1  0.21464761  0.11848580  0.19873175  1
  H+  H139  1  0.85073149  0.25419169  0.34684169  1
  H+  H140  1  0.87450036  0.47293643  0.48661573  1
  H+  H141  1  0.40922893  0.36519646  0.31671634  1
  H+  H142  1  0.85238223  0.86017906  0.82520129  1
  H+  H143  1  0.09212434  0.61558773  0.33244009  1
  H+  H144  1  0.86222760  0.23203499  0.00090266  1
  H+  H145  1  0.62951093  0.22935249  0.82204218  1
  H+  H146  1  0.84026952  0.17438977  0.43498214  1
  H+  H147  1  0.47019289  0.11011342  0.18139836  1
  H+  H148  1  0.60318325  0.89479264  0.15693324  1
  H+  H149  1  0.62151529  0.38891233  0.67345058  1
  H+  H150  1  0.75831513  0.72017607  0.12388562  1
  H+  H151  1  0.27474915  0.89267330  0.82064335  1
  H+  H152  1  0.97339588  0.10349057  0.65669966  1
  H+  H153  1  0.11494631  0.13465854  0.49395109  1
  H+  H154  1  0.78161536  0.13792179  0.67149620  1
  H+  H155  1  0.00124451  0.27893735  0.33878725  1
  H+  H156  1  0.85538277  0.95808112  0.67083925  1
  H+  H157  1  0.52467073  0.64289532  0.33529809  1
  H+  H158  1  0.62620863  0.75361155  0.49750894  1
  H+  H159  1  0.89106184  0.61389564  0.17813160  1
  H+  H160  1  0.76772155  0.37391945  0.15610948  1
  H+  H161  1  0.52328738  0.15240790  0.48866712  1
  H+  H162  1  0.84832841  0.46674025  0.15919091  1
  H+  H163  1  0.72421389  0.10367842  0.16711507  1
  H+  H164  1  0.22076060  0.36110493  0.99418562  1
  H+  H165  1  0.63170717  0.10266988  1.00306523  1
  H+  H166  1  0.11389082  0.47857760  0.66950664  1
  H+  H167  1  0.63009262  0.25600417  0.18666258  1
  H+  H168  1  0.47840687  0.37108094  0.99473170  1
  H+  H169  1  0.01711086  0.15492761  0.82357425  1
  H+  H170  1  0.91383411  0.86849407  0.96881345  1
  H+  H171  1  0.60438330  0.88357556  0.49180665  1
  H+  H172  1  0.77663105  0.88206385  0.34703073  1
  H+  H173  1  0.13392050  0.11049659  0.66201319  1
  H+  H174  1  0.35999827  0.14143150  0.16467361  1
  H+  H175  1  0.35759688  0.47020254  0.01034334  1
  H+  H176  1  0.03099203  0.64286790  0.82974051  1
  H+  H177  1  0.56900016  0.90896662  0.08966514  1
  H+  H178  1  0.63413781  0.86547302  0.84160640  1
  H+  H179  1  0.88191619  0.36748807  -0.00469535  1
  H+  H180  1  0.13555176  0.77704850  0.16583275  1
  H+  H181  1  0.22871630  0.36610518  0.66407538  1
  H+  H182  1  0.59569170  0.20018689  0.02914014  1
  H+  H183  1  0.61908189  0.46342016  0.16518165  1
  H+  H184  1  0.47597895  0.35416364  0.66416283  1
  H+  H185  1  0.74007823  0.36796873  0.50607923  1
  H+  H186  1  0.69714423  0.97617112  0.21881502  1
  H+  H187  1  0.35894387  0.14283694  0.49351021  1
  H+  H188  1  0.12115523  0.71657729  0.33268046  1
  H+  H189  1  0.85729150  0.22475026  0.16473421  1
  H+  H190  1  0.63587975  0.52316801  0.83954607  1
  H+  H191  1  0.11405090  0.22701184  0.66970453  1
  H+  H192  1  0.07836184  0.91843636  0.43443422  1
  H+  H193  1  0.11712739  0.72916080  -0.00338083  1
  H+  H194  1  0.02637426  0.37043361  0.49569089  1
  H+  H195  1  0.86329894  0.14303650  0.00394675  1
  H+  H196  1  0.63926404  0.61352119  0.84727610  1
  H+  H197  1  0.59780586  0.72558120  0.14254668  1
  H+  H198  1  0.84464730  0.75467723  0.16041502  1
  H+  H199  1  0.11201947  0.88978900  0.16926499  1
  H+  H200  1  0.35687958  0.75450928  0.99567667  1
  H+  H201  1  0.74359992  0.92519646  0.19634846  1
  H+  H202  1  0.85480180  0.94915518  0.82981104  1
  H+  H203  1  -0.00364343  0.36310374  0.34166610  1
  H+  H204  1  0.87051162  0.48033567  1.01113771  1
  H+  H205  1  0.28396472  0.39369044  0.53757272  1
  H+  H206  1  0.01910329  0.47781415  0.29886064  1
  H+  H207  1  0.16286476  0.85272400  0.32389802  1
  H+  H208  1  0.57237233  0.65670218  0.89799575  1
  H+  H209  1  0.83019021  0.41489378  0.06835818  1
  H+  H210  1  0.14249712  0.78022406  0.83138068  1
  H+  H211  1  0.48011126  0.88123208  0.16939731  1
  H+  H212  1  0.31004923  0.93393083  0.60083649  1
  H+  H213  1  0.37990195  0.36723855  0.83409279  1
  H+  H214  1  0.88317803  0.76780254  0.50983275  1
  H+  H215  1  0.97866309  0.61822572  0.32996557  1
  H+  H216  1  0.14815915  0.32053977  0.23107302  1
  H+  H217  1  0.57924787  0.67266467  0.42957799  1
  H+  H218  1  0.87041836  0.22228883  0.49824666  1
  H+  H219  1  0.22252418  0.86950875  0.16944848  1
  H+  H220  1  0.54776392  0.38498372  0.33687244  1
  H+  H221  1  0.61265541  0.73203608  0.34071961  1
  H+  H222  1  0.61829514  0.47571696  0.49288972  1
  H+  H223  1  0.11250355  0.64567737  0.15161319  1
  H+  H224  1  0.52484186  0.13546443  0.33580648  1
  H+  H225  1  0.39500199  0.53404224  0.52385589  1
  H+  H226  1  0.35519123  -0.01489010  0.15894787  1
  H+  H227  1  0.10381818  0.97933513  0.49344082  1
  H+  H228  1  0.60823142  0.63418408  0.98491928  1
  H+  H229  1  0.12619937  0.34169943  0.32117202  1
  H+  H230  1  0.36162126  0.72907954  0.82833323  1
  H+  H231  1  0.88931710  0.60342597  0.84117458  1
  H+  H232  1  0.14051755  0.86841683  0.82965858  1
  H+  H233  1  0.10349819  0.97707368  0.81629560  1
  H+  H234  1  0.10584619  0.24501559  0.82461272  1
  H+  H235  1  0.89235657  0.61553846  1.00029960  1
  H+  H236  1  0.72657059  0.60607485  0.66068265  1
  H+  H237  1  0.35876550  0.89867645  0.15838833  1
  H+  H238  1  0.93213674  0.12527341  0.23175331  1
  H+  H239  1  0.89962154  0.16417017  0.32445762  1
  H+  H240  1  0.64824288  0.11730640  0.65945951  1
  H+  H241  1  0.99536321  0.87291466  0.99610672  1
  H+  H242  1  0.39835853  0.63039542  0.32028305  1
  H+  H243  1  0.85981647  0.70975090  0.67241478  1
  H+  H244  1  1.01429013  0.38362946  1.00388608  1
  H+  H245  1  0.39758179  1.02746664  0.83534759  1
  H+  H246  1  0.67092416  0.38332543  0.32683941  1
  H+  H247  1  0.83224261  0.87150435  0.03837047  1
  H+  H248  1  0.38718175  0.78256339  0.51370460  1
  H+  H249  1  0.85425133  0.10334911  0.81866245  1
  H+  H250  1  0.70602393  0.24950910  -0.02805715  1
  H+  H251  1  0.49971914  0.89243018  0.34747540  1
  H+  H252  1  0.53875612  0.14098319  0.82686460  1
  H+  H253  1  -0.02980401  0.39244670  0.83406550  1
  H+  H254  1  0.22699237  0.61770657  0.65862666  1
  H+  H255  1  0.13097606  0.37602376  0.83991649  1
  H+  H256  1  0.88249747  1.02213451  0.00535997  1
  H+  H257  1  0.50835742  0.11463838  0.02012705  1
  H+  H258  1  0.61384653  -0.02375715  0.83412893  1
  H+  H259  1  0.71502176  0.86326709  0.00067879  1
  H+  H260  1  0.77448978  0.62501453  0.82567329  1
  H+  H261  1  0.25280556  0.61672536  0.02206021  1
  H+  H262  1  0.10499467  0.84228189  0.65368721  1
  H+  H263  1  0.63847416  0.61321541  0.50662124  1
  H+  H264  1  0.22091662  0.10706777  0.66528480  1
  H+  H265  1  0.87518769  0.40951522  0.77951838  1
  H+  H266  1  0.37527260  0.47768761  0.15370934  1
  H+  H267  1  0.61629415  0.40488809  1.00526826  1
  H+  H268  1  0.39607963  0.80199407  0.19909572  1
  H+  H269  1  0.77569159  0.37795710  0.66843404  1
  H+  H270  1  0.26355526  0.88818863  0.51304025  1
  H+  H271  1  0.00794683  0.87738377  0.66999014  1
  H+  H272  1  0.61001356  -0.02675127  1.00756851  1
  H+  H273  1  0.89701928  0.77519513  0.33009878  1
  H+  H274  1  0.63750134  0.12402068  0.33861602  1
  H+  H275  1  0.36922375  0.23059914  0.00446259  1
  H+  H276  1  0.66689097  0.83944545  0.93531371  1
  H+  H277  1  0.88952656  0.12924717  0.16862958  1
  H+  H278  1  0.40476132  0.11919056  0.83622721  1
  H+  H279  1  0.65057903  1.04450468  0.35559032  1
  H+  H280  1  0.35208140  0.47429437  0.81940503  1
  H+  H281  1  0.83343110  0.68181661  0.06606404  1
  H+  H282  1  0.65303553  0.37255573  0.50991079  1
  H+  H283  1  0.10863149  0.22849540  0.00505184  1
  H+  H284  1  0.60621767  0.85409055  0.65552043  1
  H+  H285  1  0.31677568  0.14733604  0.86942414  1
  H+  H286  1  0.60538271  0.72550101  0.84731888  1
  H+  H287  1  0.64805927  0.11364048  0.84265320  1
  H+  H288  1  0.58228335  0.17568580  0.39474249  1
  H+  H289  1  0.40416761  0.07817235  0.23581192  1
  H+  H290  1  0.07906503  0.94101940  0.08459764  1
  H+  H291  1  0.91912852  0.32973949  0.57010660  1
  H+  H292  1  0.42260647  0.89884077  0.26431006  1
  H+  H293  1  0.32478473  0.66650158  0.73552120  1
  H+  H294  1  0.68564380  0.34123884  0.25900106  1
  H+  H295  1  0.33748283  0.91993200  0.76339750  1
  H+  H296  1  0.41924077  0.46034841  0.69230249  1
  H+  H297  1  0.09359994  0.68171288  0.09193229  1
  H+  H298  1  0.16378342  0.33772330  0.93336213  1
  H+  H299  1  0.16180112  0.83161822  0.92879641  1
  H+  H300  1  0.67106025  0.08228250  0.90459702  1
  H+  H301  1  0.07968430  0.65846180  0.73381419  1
  H+  H302  1  0.85110452  0.41099482  0.42886877  1
  H+  H303  1  0.57551078  0.14645109  0.12132644  1
  H+  H304  1  0.42787126  0.32455356  0.56802478  1
  H+  H305  1  0.40251666  0.82377247  0.89951179  1
  H+  H306  1  0.42899236  0.60672936  0.57093747  1
  H+  H307  1  0.89977702  0.57384291  0.24010940  1
  H+  H308  1  0.46326245  0.60271881  0.98603468  1
  H+  H309  1  0.36334309  0.23689316  0.83618209  1
  H+  H310  1  0.34207359  0.41147475  0.09321360  1
  H+  H311  1  0.34778196  0.68239234  0.43937868  1
  H+  H312  1  0.07212461  0.40093141  0.09663726  1
  H+  H313  1  0.58897630  0.67170015  0.73657545  1
  H+  H314  1  0.11589718  0.14389634  1.00223336  1
  H+  H315  1  0.67591041  0.58372372  0.93533361  1
  H+  H316  1  0.38648591  0.53126173  0.65688627  1
  H+  H317  1  0.91616623  0.07494119  0.56233235  1
  H+  H318  1  0.11979542  0.10144982  0.29416910  1
  H+  H319  1  0.66669335  0.57303974  0.24130768  1
  H+  H320  1  0.13990204  0.35781872  0.50986577  1
  H+  H321  1  0.90601056  0.81743737  0.60506101  1
  H+  H322  1  0.83716279  0.66726962  0.40333756  1
  H+  H323  1  0.26916067  0.97776614  0.63948863  1
  H+  H324  1  0.17371176  0.82202094  0.25813463  1
  H+  H325  1  0.41799489  0.34152387  0.93487829  1
  H+  H326  1  0.82376949  0.92814851  0.08850513  1
  H+  H327  1  0.92072177  0.57307301  0.56319804  1
  H+  H328  1  0.32774728  0.41827763  0.75809840  1
  H+  H329  1  0.77596058  0.63168308  0.49755822  1
  H+  H330  1  0.60742726  0.48653632  0.01364332  1
  H+  H331  1  0.13039036  0.96487819  0.33775605  1
  H+  H332  1  0.60133068  0.41315712  0.39909108  1
  H+  H333  1  0.08844208  0.15964316  0.40056004  1
  H+  H334  1  0.44011655  0.33338291  0.26222284  1
  H+  H335  1  0.93003064  0.81655059  0.88906279  1
  H+  H336  1  0.42655572  0.10915768  0.56655592  1
  H+  H337  1  0.32947270  0.16799453  0.10487173  1
  H+  H338  1  0.17500187  0.60114806  0.56912942  1
  H+  H339  1  0.33567884  0.16460005  0.39651963  1
  H+  H340  1  0.16174018  0.08814715  0.92582686  1
  H+  H341  1  0.39062597  0.01326222  0.32372904  1
  H+  H342  1  0.91586001  0.83829870  0.24069836  1
  H+  H343  1  0.58212679  0.41579991  0.76677163  1
  H+  H344  1  0.72575952  0.11363477  0.99843966  1
  H+  H345  1  0.40791792  0.59192993  0.21607810  1
  H+  H346  1  0.29497064  0.43751535  0.41757483  1
  H+  H347  1  0.88605345  0.10470390  0.65747528  1
  H+  H348  1  0.90863207  0.34124490  0.23949014  1
  H+  H349  1  0.58779298  0.41314554  0.10170274  1
  H+  H350  1  0.83085842  0.64757760  0.73059244  1
  H+  H351  1  0.75599437  0.36579688  0.83097770  1
  H+  H352  1  0.66952208  0.86151780  0.28262745  1
  H+  H353  1  0.08764427  0.66212601  0.42883036  1
  H+  H354  1  0.28369541  0.82765093  0.31399622  1
  H+  H355  1  0.67782055  0.07377094  0.56635467  1
  H+  H356  1  0.16877148  0.58716774  0.90517753  1
  H+  H357  1  0.54618755  0.89205522  0.41040857  1
  H+  H358  1  0.07846708  0.91561171  0.75766640  1
  H+  H359  1  0.66477449  0.58198806  0.56696980  1
  H+  H360  1  0.39235067  0.56862487  0.90016548  1
  H+  H361  1  0.83445711  0.17652490  0.09882699  1
  H+  H362  1  0.14810629  0.56673696  0.21700968  1
  H+  H363  1  0.65422687  0.27895104  0.66089602  1
  H+  H364  1  0.92108713  0.58597889  0.94010838  1
  H+  H365  1  0.83935375  0.15937786  0.73153488  1
  H+  H366  1  0.31950610  0.91487891  0.06515120  1
  H+  H367  1  0.88926940  0.26914405  0.66784631  1
  H+  H368  1  0.82244640  0.89809771  0.72910418  1
  H+  H369  1  0.48709610  0.36396518  0.16552530  1
  H+  H370  1  0.35476950  0.89078109  0.52352548  1
  H+  H371  1  0.58828634  0.92012095  0.73810049  1
  H+  H372  1  0.44403341  0.76197755  0.37007332  1
  H+  H373  1  0.35162686  0.84066494  0.99155971  1
  H+  H374  1  0.16839568  0.33555748  0.60550543  1
  H+  H375  1  0.21339538  0.59860519  0.15882251  1
  H+  H376  1  0.08114006  0.42930775  0.76902930  1
  H+  H377  1  0.83439595  0.90630181  0.40481375  1
  H+  H378  1  0.42242959  0.08212468  0.93605657  1
  H+  H379  1  0.27095442  0.38950789  0.41485033  1
  H+  H380  1  0.33005277  0.16374994  0.73936733  1
  H+  H381  1  0.47484305  0.87258272  0.51337032  1
  H+  H382  1  0.69320045  0.38854319  0.93040102  1
  H+  H383  1  0.60004142  0.17393778  0.73135120  1
  O2-  O384  1  0.08016788  0.16893801  0.14543782  1
  O2-  O385  1  0.08637158  0.16582131  0.47665786  1
  O2-  O386  1  0.07646201  0.18423340  0.80824272  1
  O2-  O387  1  0.07713491  0.40202827  0.14252698  1
  O2-  O388  1  0.08335005  0.39189200  0.47611632  1
  O2-  O389  1  0.07567638  0.42797462  0.81427068  1
  O2-  O390  1  0.09275614  0.68465022  0.13730989  1
  O2-  O391  1  0.08837581  0.66522661  0.47484264  1
  O2-  O392  1  0.08947892  0.67196713  0.81103866  1
  O2-  O393  1  0.08130129  0.92231052  0.15814463  1
  O2-  O394  1  0.07043089  0.91817600  0.47927984  1
  O2-  O395  1  0.08004015  0.91660082  0.80353916  1
  O2-  O396  1  0.33091123  0.17339975  0.14982303  1
  O2-  O397  1  0.32588270  0.17001656  0.47748789  1
  O2-  O398  1  0.33265332  0.17220921  0.82869695  1
  O2-  O399  1  0.35004086  0.41497951  0.14085608  1
  O2-  O400  1  0.34680174  0.42803385  0.54710910  1
  O2-  O401  1  0.32240752  0.41397865  0.80345142  1
  O2-  O402  1  0.31260984  0.64495980  0.10492435  1
  O2-  O403  1  0.33537854  0.67380361  0.48432240  1
  O2-  O404  1  0.32731327  0.66806008  0.81342150  1
  O2-  O405  1  0.32480632  0.92456407  0.14292120  1
  O2-  O406  1  0.32331074  0.92333129  0.52855776  1
  O2-  O407  1  0.33739130  0.92369424  0.80767767  1
  O2-  O408  1  0.57935266  0.15287391  0.16635721  1
  O2-  O409  1  0.58117333  0.17907380  0.47048384  1
  O2-  O410  1  0.59830930  0.16798026  0.81009029  1
  O2-  O411  1  0.58697202  0.40444263  0.14698564  1
  O2-  O412  1  0.59273567  0.41549834  0.47806676  1
  O2-  O413  1  0.57832626  0.41646842  0.81243227  1
  O2-  O414  1  0.53679948  0.55799280  0.11871383  1
  O2-  O415  1  0.58260805  0.67520936  0.47611029  1
  O2-  O416  1  0.57513331  0.66119828  0.85193336  1
  O2-  O417  1  0.56509376  0.91213938  0.13684398  1
  O2-  O418  1  0.57480216  0.91561401  0.48250054  1
  O2-  O419  1  0.58354853  0.91638426  0.81720732  1
  O2-  O420  1  0.83029395  0.16725542  0.14366354  1
  O2-  O421  1  0.84261152  0.16396766  0.47944738  1
  O2-  O422  1  0.83410560  0.14237739  0.80657814  1
  O2-  O423  1  0.82544686  0.40994395  0.13888430  1
  O2-  O424  1  0.84459605  0.41148395  0.47369681  1
  O2-  O425  1  0.87107094  0.41344555  0.82411617  1
  O2-  O426  1  0.80004712  0.70353284  0.13639535  1
  O2-  O427  1  0.83635192  0.66344041  0.48257294  1
  O2-  O428  1  0.83392206  0.64849434  0.80901268  1
  O2-  O429  1  0.83789424  0.93920073  0.16179072  1
  O2-  O430  1  0.81816918  0.90279542  0.49095407  1
  O2-  O431  1  0.82120316  0.89058015  0.81261051  1
  O2-  O432  1  0.15338795  0.08820674  0.21022971  1
  O2-  O433  1  0.16438736  0.08279753  0.52165263  1
  O2-  O434  1  0.14922787  0.09004617  0.84296584  1
  O2-  O435  1  0.14564321  0.32172905  0.18448562  1
  O2-  O436  1  0.17223922  0.33176551  0.53093301  1
  O2-  O437  1  0.15988628  0.34332116  0.85315921  1
  O2-  O438  1  0.15296033  0.56823794  0.17222694  1
  O2-  O439  1  0.17859522  0.60641611  0.52202304  1
  O2-  O440  1  0.16691210  0.58866028  0.85984596  1
  O2-  O441  1  0.16269333  0.83621752  0.18617113  1
  O2-  O442  1  0.14714442  0.82700261  0.51250907  1
  O2-  O443  1  0.17409537  0.84173556  0.84455110  1
  O2-  O444  1  0.40752260  0.08430030  0.19007307  1
  O2-  O445  1  0.41627773  0.09963849  0.52211279  1
  O2-  O446  1  0.43181841  0.08712649  0.85216869  1
  O2-  O447  1  0.42534827  0.33910282  0.18022626  1
  O2-  O448  1  0.42740356  0.33446299  0.52340215  1
  O2-  O449  1  0.41039996  0.33843772  0.85204462  1
  O2-  O450  1  0.40082492  0.57433648  0.17250654  1
  O2-  O451  1  0.42598461  0.59863325  0.52543915  1
  O2-  O452  1  0.39898797  0.57393611  0.85498066  1
  O2-  O453  1  0.42350003  0.86356878  0.19236104  1
  O2-  O454  1  0.41482386  0.84186763  0.53011207  1
  O2-  O455  1  0.41570012  0.83141554  0.85439321  1
  O2-  O456  1  0.66686142  0.06840637  0.18648421  1
  O2-  O457  1  0.67661580  0.06528703  0.52172555  1
  O2-  O458  1  0.67348122  0.07972814  0.85914653  1
  O2-  O459  1  0.66161094  0.31932758  0.19681218  1
  O2-  O460  1  0.68393522  0.34432400  0.52757902  1
  O2-  O461  1  0.69501685  0.34589021  0.81998310  1
  O2-  O462  1  0.66508006  0.56305183  0.19650899  1
  O2-  O463  1  0.66735609  0.58227593  0.52138731  1
  O2-  O464  1  0.67194996  0.58283286  0.85498353  1
  O2-  O465  1  0.68997521  0.91827850  0.21511671  1
  O2-  O466  1  0.66195271  0.82085149  0.51737866  1
  O2-  O467  1  0.66144943  0.83259095  0.85850986  1
  O2-  O468  1  0.92491174  0.10572501  0.18820119  1
  O2-  O469  1  0.91629486  0.07179145  0.51681333  1
  O2-  O470  1  0.92738426  0.05092851  0.86516839  1
  O2-  O471  1  0.91727194  0.31134766  0.20477777  1
  O2-  O472  1  0.92111607  0.32706795  0.52523601  1
  O2-  O473  1  0.90788504  0.36149810  0.84766254  1
  O2-  O474  1  0.88203957  0.56112257  0.19673617  1
  O2-  O475  1  0.92005868  0.57623195  0.51809766  1
  O2-  O476  1  0.92787127  0.58484334  0.86071683  1
  O2-  O477  1  0.91261689  0.84442432  0.19508919  1
  O2-  O478  1  0.90741985  0.82725090  0.52655950  1
  O2-  O479  1  0.91928693  0.81609017  0.84493859  1
  O2-  O480  1  0.10172570  0.08981729  0.33746654  1
  O2-  O481  1  0.16202255  0.07734381  0.64784601  1
  O2-  O482  1  0.17195590  0.09554266  0.97049305  1
  O2-  O483  1  0.16332461  0.32144962  0.30187970  1
  O2-  O484  1  0.16804171  0.33682279  0.65167470  1
  O2-  O485  1  0.16069299  0.33238848  0.97871653  1
  O2-  O486  1  0.08218824  0.52502790  0.29392862  1
  O2-  O487  1  0.16822728  0.58767065  0.63882706  1
  O2-  O488  1  0.16689415  0.58098842  0.98674987  1
  O2-  O489  1  0.18301618  0.81715055  0.30331822  1
  O2-  O490  1  0.13131189  0.80846078  0.63696268  1
  O2-  O491  1  0.15365572  0.82598222  0.97335493  1
  O2-  O492  1  0.41196203  0.07221317  0.31006537  1
  O2-  O493  1  0.43755702  0.10981930  0.64839932  1
  O2-  O494  1  0.41588065  0.07871841  0.98095811  1
  O2-  O495  1  0.44218527  0.33619430  0.30736882  1
  O2-  O496  1  0.41603133  0.32113814  0.64863089  1
  O2-  O497  1  0.41701570  0.33791098  0.97999681  1
  O2-  O498  1  0.42307690  0.60003038  0.29743540  1
  O2-  O499  1  0.41721277  0.59586438  0.64718794  1
  O2-  O500  1  0.39919037  0.56772836  0.98176128  1
  O2-  O501  1  0.41101751  0.90350447  0.30861897  1
  O2-  O502  1  0.42621065  0.84084291  0.65550031  1
  O2-  O503  1  0.37088022  0.80449171  0.97018807  1
  O2-  O504  1  0.67514631  0.09666135  0.33148538  1
  O2-  O505  1  0.67784582  0.08546137  0.64710609  1
  O2-  O506  1  0.66536871  0.07933369  0.98320068  1
  O2-  O507  1  0.70266785  0.35701903  0.30560098  1
  O2-  O508  1  0.68780966  0.34148228  0.64789522  1
  O2-  O509  1  0.68327406  0.37966741  0.97388439  1
  O2-  O510  1  0.67036201  0.58621789  0.31920618  1
  O2-  O511  1  0.66544511  0.57814150  0.64576800  1
  O2-  O512  1  0.67271882  0.58913719  0.98029299  1
  O2-  O513  1  0.65900617  0.83782260  0.32489080  1
  O2-  O514  1  0.60010110  0.80378843  0.62970390  1
  O2-  O515  1  0.65858615  0.83122777  0.98055382  1
  O2-  O516  1  0.95104538  0.16948388  0.30256414  1
  O2-  O517  1  0.91310690  0.07157531  0.64183611  1
  O2-  O518  1  0.91318993  0.07743292  0.98304414  1
  O2-  O519  1  0.92222546  0.39177543  0.31471432  1
  O2-  O520  1  0.91731298  0.33157568  0.65348358  1
  O2-  O521  1  0.91171748  0.33769024  0.97644946  1
  O2-  O522  1  0.91708137  0.58277841  0.31765456  1
  O2-  O523  1  0.91250338  0.56362453  0.64690673  1
  O2-  O524  1  0.92233261  0.58511498  0.98543518  1
  O2-  O525  1  0.92902414  0.83578061  0.31527939  1
  O2-  O526  1  0.90586477  0.81478615  0.65049630  1
  O2-  O527  1  0.94285849  0.83506872  0.97142423  1
  O2-  O528  1  0.08131689  0.16777543  0.02045945  1
  O2-  O529  1  0.08653932  0.16071200  0.35420147  1
  O2-  O530  1  0.08341397  0.16620159  0.68421039  1
  O2-  O531  1  0.07369428  0.41209950  0.02179496  1
  O2-  O532  1  0.03539934  0.33984858  0.35152281  1
  O2-  O533  1  0.08372150  0.42067002  0.68863860  1
  O2-  O534  1  0.09182199  0.66909187  0.01476998  1
  O2-  O535  1  0.08321474  0.65999029  0.35304439  1
  O2-  O536  1  0.07409357  0.65246752  0.68822972  1
  O2-  O537  1  0.06565247  0.95688344  0.04329286  1
  O2-  O538  1  0.09813432  0.90719709  0.35493855  1
  O2-  O539  1  0.07065455  0.90724423  0.68207235  1
  O2-  O540  1  0.33857834  0.16932887  0.01804770  1
  O2-  O541  1  0.34178546  0.15969125  0.35199576  1
  O2-  O542  1  0.33063561  0.16259537  0.69473685  1
  O2-  O543  1  0.32882482  0.40920843  0.02622376  1
  O2-  O544  1  0.34008372  0.42114281  0.29559967  1
  O2-  O545  1  0.36110049  0.43309846  0.67572034  1
  O2-  O546  1  0.31627894  0.64487793  0.03757994  1
  O2-  O547  1  0.38598306  0.70900822  0.36678449  1
  O2-  O548  1  0.32475406  0.66812924  0.68983619  1
  O2-  O549  1  0.31717278  0.90964525  0.01980422  1
  O2-  O550  1  0.33410465  0.81811636  0.31736742  1
  O2-  O551  1  0.29725543  0.94358812  0.64435603  1
  O2-  O552  1  0.56610599  0.13976965  0.04070491  1
  O2-  O553  1  0.58491609  0.17019681  0.34945896  1
  O2-  O554  1  0.60237206  0.17968156  0.68597371  1
  O2-  O555  1  0.57822465  0.42453839  0.02486628  1
  O2-  O556  1  0.60751052  0.41724227  0.35364293  1
  O2-  O557  1  0.58738008  0.41429726  0.68923539  1
  O2-  O558  1  0.57094212  0.65871469  -0.02647608  1
  O2-  O559  1  0.58186552  0.67086347  0.35591638  1
  O2-  O560  1  0.58572024  0.66587917  0.69233150  1
  O2-  O561  1  0.57496669  0.91307604  0.02213062  1
  O2-  O562  1  0.53054892  0.86684072  0.36828024  1
  O2-  O563  1  0.58779604  0.92170614  0.69255186  1
  O2-  O564  1  0.83300118  0.17280246  0.01877794  1
  O2-  O565  1  0.83402127  0.19494972  0.35839132  1
  O2-  O566  1  0.84283759  0.16825686  0.68604644  1
  O2-  O567  1  0.83463226  0.41824041  0.02167570  1
  O2-  O568  1  0.86245649  0.41762188  0.34476541  1
  O2-  O569  1  0.84047533  0.40863529  0.68463929  1
  O2-  O570  1  0.84052883  0.67281848  0.02223424  1
  O2-  O571  1  0.83864194  0.66866785  0.35787293  1
  O2-  O572  1  0.83005562  0.64754203  0.68491772  1
  O2-  O573  1  0.82037421  0.91850856  0.04261975  1
  O2-  O574  1  0.83664618  0.90457902  0.36010303  1
  O2-  O575  1  0.82506057  0.89728536  0.68417098  1
