# generated using pymatgen
data_H2O
_symmetry_space_group_name_H-M   'P 1'
_cell_length_a   17.98120440
_cell_length_b   17.98310490
_cell_length_c   21.99079050
_cell_angle_alpha   90.01511191
_cell_angle_beta   90.02039596
_cell_angle_gamma   119.99298010
_symmetry_Int_Tables_number   1
_chemical_formula_structural   H2O
_chemical_formula_sum   'H384 O192'
_cell_volume   6158.65052684
_cell_formula_units_Z   192
loop_
 _symmetry_equiv_pos_site_id
 _symmetry_equiv_pos_as_xyz
  1  'x, y, z'
loop_
 _atom_type_symbol
 _atom_type_oxidation_number
  H+  1.0
  O2-  -2.0
loop_
 _atom_site_type_symbol
 _atom_site_label
 _atom_site_symmetry_multiplicity
 _atom_site_fract_x
 _atom_site_fract_y
 _atom_site_fract_z
 _atom_site_occupancy
  H+  H0  1  0.95137297  0.58609338  0.19402684  1
  H+  H1  1  0.12184137  0.85751572  0.17301329  1
  H+  H2  1  0.37828760  0.70946284  0.01420383  1
  H+  H3  1  0.05801539  0.22159466  0.20363614  1
  H+  H4  1  0.11265399  0.93799813  0.72373445  1
  H+  H5  1  0.28439007  0.89313718  0.15858923  1
  H+  H6  1  0.63620210  0.61959340  0.64248506  1
  H+  H7  1  0.67111999  0.07455260  0.22339350  1
  H+  H8  1  0.62902323  0.86086583  0.65707402  1
  H+  H9  1  0.21920320  0.35223191  0.50616758  1
  H+  H10  1  0.91091985  0.78621013  0.89544859  1
  H+  H11  1  0.35647946  0.36928587  0.49011087  1
  H+  H12  1  0.86115750  0.05349782  0.92568134  1
  H+  H13  1  0.85221998  0.13772417  1.00712455  1
  H+  H14  1  0.59763269  0.61505357  0.00433272  1
  H+  H15  1  0.03121114  0.62980961  0.12439796  1
  H+  H16  1  0.07466848  0.16488970  0.73293603  1
  H+  H17  1  0.40136446  0.11598481  0.16858618  1
  H+  H18  1  0.52861363  0.13426504  0.16014784  1
  H+  H19  1  0.34825828  0.88613015  0.68172383  1
  H+  H20  1  1.02260139  0.38459195  0.82912655  1
  H+  H21  1  0.43093707  0.85276070  0.22593806  1
  H+  H22  1  0.53229671  0.38851431  0.83723209  1
  H+  H23  1  0.62093863  0.10454438  0.51116955  1
  H+  H24  1  0.34290497  0.86093036  0.35180386  1
  H+  H25  1  0.97516669  0.86596438  0.32504092  1
  H+  H26  1  0.72982207  0.62091279  0.81719694  1
  H+  H27  1  0.76954603  0.12849715  0.82952767  1
  H+  H28  1  0.88262435  0.86647912  0.17632164  1
  H+  H29  1  0.28542977  0.63327074  1.00080646  1
  H+  H30  1  0.38634583  0.53411620  0.16685656  1
  H+  H31  1  0.85174815  0.13054648  0.67539405  1
  H+  H32  1  0.12921720  0.65871288  -0.01481587  1
  H+  H33  1  0.63027406  0.90622241  0.49301627  1
  H+  H34  1  0.63178885  0.83121263  0.32712937  1
  H+  H35  1  0.63477455  1.01070762  0.83558105  1
  H+  H36  1  0.14344851  0.52602057  0.83197344  1
  H+  H37  1  0.89899529  0.78435110  0.65773248  1
  H+  H38  1  0.35635001  0.47333213  0.00698432  1
  H+  H39  1  0.20696026  0.09066536  0.83601188  1
  H+  H40  1  0.88177217  0.36277488  0.17138073  1
  H+  H41  1  0.62801032  0.73838506  0.32276968  1
  H+  H42  1  0.12603536  0.89446276  0.66452829  1
  H+  H43  1  0.11122193  0.39013434  0.67227677  1
  H+  H44  1  0.71604858  0.61512053  1.00132338  1
  H+  H45  1  0.47491655  0.85969880  0.01380313  1
  H+  H46  1  0.63445288  0.77035258  0.16473673  1
  H+  H47  1  0.62950238  0.64177631  0.80427262  1
  H+  H48  1  0.23292242  0.10473293  0.32557031  1
  H+  H49  1  0.14704109  0.52947795  0.66380246  1
  H+  H50  1  0.87095499  0.87209144  0.48477958  1
  H+  H51  1  0.63036546  0.53272055  0.18357939  1
  H+  H52  1  0.39580862  0.02431735  0.16993404  1
  H+  H53  1  0.51410017  0.62176606  0.48172411  1
  H+  H54  1  0.12895194  0.86566872  0.83578232  1
  H+  H55  1  0.63996579  0.86158817  0.83260259  1
  H+  H56  1  0.38331037  0.76754725  0.32589197  1
  H+  H57  1  0.85193017  0.21933532  0.67518408  1
  H+  H58  1  0.87875449  0.77656172  0.17927029  1
  H+  H59  1  0.49541803  0.85182316  0.51403192  1
  H+  H60  1  0.46213872  0.86371933  0.33250952  1
  H+  H61  1  0.69985290  0.88048402  0.57023165  1
  H+  H62  1  0.26272556  0.37739314  1.00430966  1
  H+  H63  1  0.90608347  0.53044951  0.51706543  1
  H+  H64  1  0.35622468  0.45810682  0.49778803  1
  H+  H65  1  0.12892691  0.27491100  0.66021698  1
  H+  H66  1  0.28513293  0.65079179  0.16879472  1
  H+  H67  1  0.11549999  1.00133898  0.83347237  1
  H+  H68  1  0.78226780  0.13069136  0.34714905  1
  H+  H69  1  0.02295407  0.89751406  0.01755422  1
  H+  H70  1  0.91920625  0.57520484  0.60685926  1
  H+  H71  1  0.62586630  0.61867746  0.17347159  1
  H+  H72  1  0.19411900  0.18220131  0.14171180  1
  H+  H73  1  0.41094989  0.26345995  0.68431818  1
  H+  H74  1  0.87438728  0.21450512  0.34708971  1
  H+  H75  1  0.28599805  0.12472018  0.49019434  1
  H+  H76  1  0.14126683  0.81527332  0.27107840  1
  H+  H77  1  0.02760491  0.38962776  0.00466146  1
  H+  H78  1  0.81794316  0.67945626  1.07640410  1
  H+  H79  1  0.26827602  0.39022062  0.66956056  1
  H+  H80  1  0.63061453  0.33579341  0.33698356  1
  H+  H81  1  0.12927014  0.36278692  0.32803205  1
  H+  H82  1  0.47393735  0.59882837  0.31963682  1
  H+  H83  1  -0.01580268  0.85761874  0.84778721  1
  H+  H84  1  0.64249445  0.28292160  0.65823920  1
  H+  H85  1  0.86712409  0.61635125  0.33093481  1
  H+  H86  1  0.37536184  0.65422400  0.17007857  1
  H+  H87  1  0.36605788  0.10937476  0.48270060  1
  H+  H88  1  0.86185626  0.88816745  0.67217071  1
  H+  H89  1  0.11486511  0.38824138  1.00392395  1
  H+  H90  1  0.70791128  0.09522970  0.66653130  1
  H+  H91  1  0.39224017  0.74066149  0.68483959  1
  H+  H92  1  0.63659319  0.52337725  0.64527109  1
  H+  H93  1  0.22373827  0.18893399  0.51986993  1
  H+  H94  1  0.89320140  0.51057470  0.99684280  1
  H+  H95  1  0.39065101  0.85275381  0.84958983  1
  H+  H96  1  0.37289271  0.02728954  0.63920083  1
  H+  H97  1  0.47904397  0.61420192  0.65411714  1
  H+  H98  1  -0.02581854  0.36307366  0.66622920  1
  H+  H99  1  0.62095250  0.14064170  0.15847176  1
  H+  H100  1  0.87982198  0.11633090  0.17335336  1
  H+  H101  1  0.84908295  0.48026227  0.84127564  1
  H+  H102  1  0.85867133  0.72347440  0.48718841  1
  H+  H103  1  0.62063482  0.38850323  0.84028879  1
  H+  H104  1  0.27390005  0.40812438  0.15829395  1
  H+  H105  1  0.03624814  0.78490739  0.20531835  1
  H+  H106  1  0.37871426  0.51490104  0.32601904  1
  H+  H107  1  0.86200297  0.39653985  0.33268508  1
  H+  H108  1  0.59140979  0.70170028  0.00036669  1
  H+  H109  1  0.88555715  0.35759327  0.84211960  1
  H+  H110  1  0.38196330  -0.00608412  0.46725928  1
  H+  H111  1  0.67154699  0.33453900  0.93757377  1
  H+  H112  1  0.88486725  0.56836926  0.24511755  1
  H+  H113  1  0.37809310  0.62704116  0.83228762  1
  H+  H114  1  0.10672886  0.14001653  0.67245662  1
  H+  H115  1  0.49555268  0.11417803  0.83931424  1
  H+  H116  1  0.54230225  0.64903301  0.79530690  1
  H+  H117  1  0.53052692  0.98287432  0.37715258  1
  H+  H118  1  0.46671837  0.56405574  0.86264308  1
  H+  H119  1  0.09335376  0.22256132  0.49123680  1
  H+  H120  1  0.21846405  0.35124161  0.83268763  1
  H+  H121  1  0.11665641  0.48058815  0.49549639  1
  H+  H122  1  0.58588452  0.50780201  0.34546146  1
  H+  H123  1  0.90042362  0.10394596  0.33512493  1
  H+  H124  1  0.77419885  0.03135515  0.96216768  1
  H+  H125  1  0.39675550  0.78550936  0.17202280  1
  H+  H126  1  0.27521295  0.86999060  0.45911456  1
  H+  H127  1  0.37497006  0.59593913  0.99961317  1
  H+  H128  1  0.13411736  0.02689539  0.64997414  1
  H+  H129  1  0.97230484  0.60265557  0.66866276  1
  H+  H130  1  0.38467529  1.02575534  -0.00702832  1
  H+  H131  1  0.98432322  0.36500315  0.51287722  1
  H+  H132  1  0.64821790  0.02959140  0.32557224  1
  H+  H133  1  0.25442650  0.11856677  0.17451802  1
  H+  H134  1  0.16701568  -0.01022982  0.15778262  1
  H+  H135  1  0.22307104  0.10825921  0.65594131  1
  H+  H136  1  0.62868872  0.60868416  0.27628509  1
  H+  H137  1  0.10994159  0.47501668  0.33548488  1
  H+  H138  1  0.88856361  0.27693480  0.16854961  1
  H+  H139  1  0.86167714  0.87872809  0.83024304  1
  H+  H140  1  0.98281329  0.87745964  0.65754685  1
  H+  H141  1  0.14050730  0.27183685  -0.01299229  1
  H+  H142  1  0.12827486  0.77912845  -0.01484053  1
  H+  H143  1  0.25212040  0.71228058  0.94709746  1
  H+  H144  1  0.09748473  0.71149171  0.33424955  1
  H+  H145  1  0.11824789  -0.01690053  0.48565937  1
  H+  H146  1  0.95527731  0.10830106  0.50840544  1
  H+  H147  1  0.86931677  0.23515240  0.00880384  1
  H+  H148  1  0.75695958  -0.14988890  0.33908786  1
  H+  H149  1  0.86127437  0.72407616  0.33471481  1
  H+  H150  1  0.14184375  0.52829535  0.16497312  1
  H+  H151  1  0.62649429  0.13098474  0.83586463  1
  H+  H152  1  0.72206389  0.86566371  0.66305276  1
  H+  H153  1  0.79087285  0.89079309  0.48825734  1
  H+  H154  1  0.36780144  0.63146159  0.33483452  1
  H+  H155  1  0.40669663  0.84345498  0.53224932  1
  H+  H156  1  0.83081199  0.28032322  0.30246484  1
  H+  H157  1  0.01279506  0.12808655  0.82727892  1
  H+  H158  1  0.88049684  1.01441234  0.83573406  1
  H+  H159  1  0.52391508  0.87926651  0.82455218  1
  H+  H160  1  0.00546056  0.65628181  0.84896360  1
  H+  H161  1  0.10713208  0.88470397  0.33873033  1
  H+  H162  1  0.82665726  0.66684198  0.39584429  1
  H+  H163  1  0.76570696  0.64042794  0.48404985  1
  H+  H164  1  0.18984265  0.37488679  0.23693295  1
  H+  H165  1  0.11595128  0.97873565  0.33570075  1
  H+  H166  1  0.75777602  0.37435601  0.16306401  1
  H+  H167  1  0.61530538  0.13196237  0.67984610  1
  H+  H168  1  0.61755406  0.44664886  0.32387155  1
  H+  H169  1  0.14590635  0.61895187  0.16613520  1
  H+  H170  1  0.37888550  0.59513884  0.50358787  1
  H+  H171  1  0.37466861  0.71550519  0.49414684  1
  H+  H172  1  0.78914148  0.39951158  0.49410564  1
  H+  H173  1  0.84928002  0.73899842  1.01818175  1
  H+  H174  1  0.36160764  0.14775775  0.67798410  1
  H+  H175  1  0.52511848  0.90345987  0.13334189  1
  H+  H176  1  0.96734334  0.11084700  0.66357430  1
  H+  H177  1  0.63702383  0.27447240  0.99724293  1
  H+  H178  1  0.77317610  0.88028461  0.82732659  1
  H+  H179  1  0.88647525  0.36059476  0.99714334  1
  H+  H180  1  0.87776627  0.87655141  0.00512627  1
  H+  H181  1  0.15567660  0.79141647  0.83065916  1
  H+  H182  1  0.23684833  0.61278068  0.50687003  1
  H+  H183  1  1.03633737  0.03667658  0.15428877  1
  H+  H184  1  0.09982894  0.12447298  0.82404497  1
  H+  H185  1  0.02690877  0.39530720  0.15468018  1
  H+  H186  1  0.13540847  0.60328190  0.31854122  1
  H+  H187  1  0.11864207  0.13060325  -0.00329002  1
  H+  H188  1  0.36702275  0.25410516  0.67350428  1
  H+  H189  1  0.82281026  0.95746096  0.00603725  1
  H+  H190  1  0.88091021  0.26562466  0.84069866  1
  H+  H191  1  0.52764763  0.14529134  0.00729471  1
  H+  H192  1  0.61814630  0.38851534  0.48514216  1
  H+  H193  1  0.76722883  0.52494108  0.89530664  1
  H+  H194  1  0.70130881  0.83297234  -0.00548422  1
  H+  H195  1  0.38062743  0.35185722  0.83411836  1
  H+  H196  1  0.21807700  0.85000270  0.66668995  1
  H+  H197  1  0.84475652  0.63432564  0.17211569  1
  H+  H198  1  0.61546594  0.00552743  0.66614451  1
  H+  H199  1  0.13635243  0.27703998  0.32123508  1
  H+  H200  1  0.45910709  0.44586815  0.22287983  1
  H+  H201  1  0.86958528  0.72042927  0.81947719  1
  H+  H202  1  0.52107938  0.63766055  0.15570233  1
  H+  H203  1  0.39902241  0.39699579  0.63916139  1
  H+  H204  1  0.53895995  0.15222645  0.68899424  1
  H+  H205  1  0.65687913  0.11931928  0.32273416  1
  H+  H206  1  0.20563497  0.84136333  0.32997569  1
  H+  H207  1  0.16290577  0.79550850  0.51722971  1
  H+  H208  1  0.61907419  0.40423243  0.65864309  1
  H+  H209  1  0.36354761  0.40208893  0.15311685  1
  H+  H210  1  0.37597515  0.97497052  0.83301255  1
  H+  H211  1  0.62703974  0.21867365  0.33920661  1
  H+  H212  1  0.08662874  0.21828449  0.18000309  1
  H+  H213  1  0.10684423  0.88881118  1.00398654  1
  H+  H214  1  0.11082195  0.38379125  0.82734302  1
  H+  H215  1  0.87894536  0.01992933  0.66399890  1
  H+  H216  1  0.64472692  0.77579752  0.82561990  1
  H+  H217  1  0.26713337  0.39004721  0.33941450  1
  H+  H218  1  0.87618240  0.24254677  0.50134148  1
  H+  H219  1  1.03637953  0.13989578  0.33113886  1
  H+  H220  1  0.22575870  0.75367920  0.76500816  1
  H+  H221  1  0.87334272  0.39400786  0.50157737  1
  H+  H222  1  0.62984969  0.52203610  0.49818017  1
  H+  H223  1  0.60857907  0.38738895  0.16430614  1
  H+  H224  1  0.28974110  0.62723034  0.82626429  1
  H+  H225  1  0.03764084  0.13501563  0.02409369  1
  H+  H226  1  0.73335844  0.35672889  0.83982414  1
  H+  H227  1  0.14866368  0.11568182  0.32432786  1
  H+  H228  1  0.02009964  0.38729051  0.34043110  1
  H+  H229  1  0.26567359  0.89857430  0.00480304  1
  H+  H230  1  0.72914702  0.37067139  0.65685470  1
  H+  H231  1  0.84836889  0.47786656  0.33436315  1
  H+  H232  1  0.38412642  0.35793596  0.99441924  1
  H+  H233  1  0.40442727  0.10472273  0.32539665  1
  H+  H234  1  -0.00382690  0.61736043  0.52810848  1
  H+  H235  1  0.57224323  0.64877215  0.42153527  1
  H+  H236  1  0.86223292  0.47666231  0.67360260  1
  H+  H237  1  0.76266722  0.96837810  0.53688573  1
  H+  H238  1  0.47072955  0.35111404  0.32776795  1
  H+  H239  1  0.34993910  0.45685011  0.82716144  1
  H+  H240  1  0.72894413  0.35971885  0.32521852  1
  H+  H241  1  0.84369978  0.46498222  0.16532582  1
  H+  H242  1  0.15776520  0.40427720  0.17700892  1
  H+  H243  1  0.13415542  0.01836131  0.99174773  1
  H+  H244  1  0.84853426  0.97226171  0.16111323  1
  H+  H245  1  0.27978788  0.89471932  0.83842507  1
  H+  H246  1  0.35709597  0.48059099  0.67258897  1
  H+  H247  1  0.02477950  0.05036203  0.12512558  1
  H+  H248  1  0.84349360  0.62229184  0.83196174  1
  H+  H249  1  0.87840274  0.64870014  0.66478234  1
  H+  H250  1  0.27218621  0.13098486  -0.00051123  1
  H+  H251  1  0.52422029  0.38148569  0.00826228  1
  H+  H252  1  0.36400255  0.13286171  0.99771220  1
  H+  H253  1  0.11736460  0.63834917  0.66293124  1
  H+  H254  1  0.37296564  0.89088918  0.15706360  1
  H+  H255  1  0.92683446  0.48635378  0.80532843  1
  H+  H256  1  0.76040836  0.64239028  0.17717245  1
  H+  H257  1  0.45241144  0.01325427  0.63320040  1
  H+  H258  1  0.17069252  0.62607936  0.81713635  1
  H+  H259  1  0.53508301  0.41508288  0.65182513  1
  H+  H260  1  0.88411367  0.36138520  0.66455515  1
  H+  H261  1  0.64837733  0.26675375  0.84432679  1
  H+  H262  1  0.77729685  0.14094026  0.15843896  1
  H+  H263  1  0.62724608  0.26733584  0.17246692  1
  H+  H264  1  0.39482793  0.25792304  0.49513108  1
  H+  H265  1  0.63683846  0.00848044  1.00519260  1
  H+  H266  1  0.53734174  0.13007999  0.33711211  1
  H+  H267  1  0.58804725  0.17472449  0.06559408  1
  H+  H268  1  0.39339799  0.62007223  0.66040005  1
  H+  H269  1  0.49394648  0.40215797  0.17792234  1
  H+  H270  1  0.77157762  0.37907299  0.00904076  1
  H+  H271  1  0.36791197  0.20374512  0.33273395  1
  H+  H272  1  0.57380962  0.90559098  0.75979239  1
  H+  H273  1  0.40453350  0.11311535  0.84121061  1
  H+  H274  1  0.96153677  0.10475591  0.17472038  1
  H+  H275  1  0.64046528  0.02852113  0.15692063  1
  H+  H276  1  0.85711618  0.86228196  0.33455281  1
  H+  H277  1  0.61422652  0.38308879  1.00943492  1
  H+  H278  1  0.27806924  0.62943065  0.33475535  1
  H+  H279  1  0.32489452  0.14545776  0.89057819  1
  H+  H280  1  1.00905864  0.62042218  0.83421629  1
  H+  H281  1  0.63598334  0.27355710  0.50169892  1
  H+  H282  1  0.09444154  0.72102342  0.15348127  1
  H+  H283  1  0.61752119  0.73056076  0.65142308  1
  H+  H284  1  0.60351927  0.97717096  0.50058842  1
  H+  H285  1  0.37738110  0.23195335  0.14647174  1
  H+  H286  1  0.14070926  0.65047960  0.51457796  1
  H+  H287  1  0.72234492  0.09897544  0.99518124  1
  H+  H288  1  0.13516357  0.36244383  0.50521903  1
  H+  H289  1  0.19726072  0.62362078  0.91309806  1
  H+  H290  1  0.92416105  0.87040864  0.94580068  1
  H+  H291  1  0.59034213  0.16174680  0.43035928  1
  H+  H292  1  0.87906961  0.10399832  0.83530881  1
  H+  H293  1  0.08227207  0.42127292  0.43588815  1
  H+  H294  1  0.36124890  0.21909165  0.84295948  1
  H+  H295  1  0.15590618  0.06953260  0.92767902  1
  H+  H296  1  0.42637532  0.08332054  0.93321354  1
  H+  H297  1  0.51680385  0.12528814  0.48019900  1
  H+  H298  1  0.65493128  0.32439158  0.23335718  1
  H+  H299  1  0.32205530  0.41207318  0.07583595  1
  H+  H300  1  0.92186552  0.08388287  0.26947379  1
  H+  H301  1  0.84012740  0.17369450  0.43978404  1
  H+  H302  1  0.05643838  0.63521257  0.38349584  1
  H+  H303  1  0.82647852  0.88779480  0.40371307  1
  H+  H304  1  0.91631585  0.83618985  0.26316675  1
  H+  H305  1  0.09215649  0.13475339  0.48909897  1
  H+  H306  1  0.09838136  0.67818216  0.04813173  1
  H+  H307  1  0.66741907  0.33533541  0.55944370  1
  H+  H308  1  0.17728928  0.11198181  0.56584477  1
  H+  H309  1  0.47766957  0.35235442  0.49306511  1
  H+  H310  1  0.64236240  0.07041962  0.57288486  1
  H+  H311  1  0.86662795  0.14077526  0.50547177  1
  H+  H312  1  0.66666898  0.05846763  0.90015309  1
  H+  H313  1  0.16920971  0.21199745  0.08278713  1
  H+  H314  1  0.08412362  0.41936314  0.73338147  1
  H+  H315  1  0.90480150  0.08792591  0.57263891  1
  H+  H316  1  0.66140881  0.58552171  0.57855181  1
  H+  H317  1  0.12882744  0.93142100  0.09829705  1
  H+  H318  1  0.08974943  0.17324318  0.39166089  1
  H+  H319  1  0.17022978  0.33177853  0.92792321  1
  H+  H320  1  0.32573242  0.40826567  0.76222814  1
  H+  H321  1  0.16838191  0.57659449  0.26020310  1
  H+  H322  1  0.41637389  0.58084229  0.23196743  1
  H+  H323  1  0.92590980  0.83811545  0.56421235  1
  H+  H324  1  0.35217217  0.67147246  0.73768613  1
  H+  H325  1  0.48048066  0.84516495  0.61846709  1
  H+  H326  1  0.62409752  0.60979495  0.49392792  1
  H+  H327  1  0.95502900  0.60696052  0.32291425  1
  H+  H328  1  0.32465333  0.41460266  0.39906347  1
  H+  H329  1  0.33736857  0.14706613  0.39330696  1
  H+  H330  1  0.31174731  0.07026853  0.72121292  1
  H+  H331  1  0.82591946  0.16174339  0.76869204  1
  H+  H332  1  0.18106650  0.58408563  0.56918942  1
  H+  H333  1  0.43639589  0.82293519  0.94811123  1
  H+  H334  1  0.38487151  0.26995415  -0.00983425  1
  H+  H335  1  0.33830404  0.66207882  0.43123237  1
  H+  H336  1  0.11384824  0.69277175  0.46282328  1
  H+  H337  1  0.81260760  0.90852759  0.07041329  1
  H+  H338  1  0.91565502  0.33170425  0.93622795  1
  H+  H339  1  0.08625060  0.42167892  0.09401112  1
  H+  H340  1  0.83172874  0.91200536  0.73417643  1
  H+  H341  1  0.39771003  0.02243144  0.53694853  1
  H+  H342  1  0.13077356  0.69227236  0.74730188  1
  H+  H343  1  0.41164161  0.57231089  0.56434277  1
  H+  H344  1  0.34487818  0.16860763  0.09035862  1
  H+  H345  1  0.60495604  0.16920701  0.77612747  1
  H+  H346  1  0.23699492  0.61974840  0.66399475  1
  H+  H347  1  0.59839251  0.67454095  0.71137835  1
  H+  H348  1  0.65345459  0.80946674  0.93114345  1
  H+  H349  1  0.90773074  0.32359200  0.25708514  1
  H+  H350  1  0.82633328  0.40310939  0.07060693  1
  H+  H351  1  0.16064300  0.84304323  0.92857377  1
  H+  H352  1  0.03813275  0.87732593  0.77906615  1
  H+  H353  1  0.56922630  0.93236410  0.40947988  1
  H+  H354  1  0.09105858  0.92212750  0.42814543  1
  H+  H355  1  0.58394583  0.41937638  0.10347622  1
  H+  H356  1  0.66361688  0.81865328  0.22766931  1
  H+  H357  1  0.33135718  0.92406424  0.06049251  1
  H+  H358  1  0.58671819  0.42429797  0.42835388  1
  H+  H359  1  0.42661475  0.36079063  0.58108004  1
  H+  H360  1  0.84024040  0.17419883  0.10077472  1
  H+  H361  1  0.85227870  0.67766773  0.72414633  1
  H+  H362  1  0.86426328  0.56024299  0.91999235  1
  H+  H363  1  0.39607456  0.76645373  0.84586640  1
  H+  H364  1  0.92276973  0.33261709  0.57322855  1
  H+  H365  1  0.15851600  0.33183575  0.59960018  1
  H+  H366  1  0.57465963  0.65629557  0.09315649  1
  H+  H367  1  0.44083363  0.08601812  0.26565693  1
  H+  H368  1  0.82858759  0.41706619  0.73229815  1
  H+  H369  1  0.18741563  0.08762901  0.23060828  1
  H+  H370  1  0.98549231  0.86146804  0.50480680  1
  H+  H371  1  0.12737070  0.26456911  0.83708128  1
  H+  H372  1  0.18376550  0.84994303  0.59858794  1
  H+  H373  1  0.63461727  0.52019503  0.99936482  1
  H+  H374  1  0.10903447  0.72340439  0.65949414  1
  H+  H375  1  0.41371344  0.33250544  0.89672386  1
  H+  H376  1  0.40237240  0.55519884  0.91403868  1
  H+  H377  1  0.16278448  0.88278481  0.50258858  1
  H+  H378  1  0.41984128  0.32405014  0.26628923  1
  H+  H379  1  0.46566261  0.59041251  0.99849074  1
  H+  H380  1  0.76177958  0.87977473  0.16097346  1
  H+  H381  1  0.97866716  0.60326221  0.98517105  1
  H+  H382  1  0.64072064  0.53384348  0.83086228  1
  H+  H383  1  0.32022717  0.88863958  0.75013080  1
  O2-  O384  1  0.21195507  0.23279565  0.11565106  1
  O2-  O385  1  0.05958523  0.16233856  0.47514812  1
  O2-  O386  1  0.07277951  0.15866786  0.81059178  1
  O2-  O387  1  0.08710861  0.42699496  0.14018574  1
  O2-  O388  1  0.08418403  0.41967054  0.48124339  1
  O2-  O389  1  0.08247993  0.41655697  0.81304726  1
  O2-  O390  1  0.09184686  0.67183438  0.12957846  1
  O2-  O391  1  0.11325568  0.68739054  0.50678876  1
  O2-  O392  1  0.17065554  0.71240088  0.78356294  1
  O2-  O393  1  0.15933429  0.93640497  0.13725844  1
  O2-  O394  1  0.09655019  0.92330310  0.47413717  1
  O2-  O395  1  0.06712995  0.90080668  0.81760951  1
  O2-  O396  1  0.35415978  0.17185777  0.13561454  1
  O2-  O397  1  0.34367339  0.14906695  0.47229420  1
  O2-  O398  1  0.33156973  0.15402300  0.84659024  1
  O2-  O399  1  0.33062932  0.42620608  0.13275488  1
  O2-  O400  1  0.32214375  0.39789693  0.48193213  1
  O2-  O401  1  0.32160404  0.39918792  0.80767332  1
  O2-  O402  1  0.34715281  0.68829577  0.16110763  1
  O2-  O403  1  0.33576011  0.65762608  0.47672029  1
  O2-  O404  1  0.35217863  0.65994789  0.81523259  1
  O2-  O405  1  0.34253582  0.92267946  0.14238646  1
  O2-  O406  1  0.32955192  0.88692282  0.43634380  1
  O2-  O407  1  0.33873392  0.91267013  0.82287493  1
  O2-  O408  1  0.58952192  0.17056452  0.14552537  1
  O2-  O409  1  0.57977559  0.16255719  0.47516897  1
  O2-  O410  1  0.60072023  0.16656954  0.82135497  1
  O2-  O411  1  0.58420639  0.42327564  0.14915061  1
  O2-  O412  1  0.58428945  0.41681475  0.47317990  1
  O2-  O413  1  0.59517894  0.42565072  0.83550176  1
  O2-  O414  1  0.58063411  0.66376810  0.13872646  1
  O2-  O415  1  0.57406910  0.65242098  0.46676157  1
  O2-  O416  1  0.60337986  0.67919418  0.78619277  1
  O2-  O417  1  0.58137774  0.93912120  0.11199482  1
  O2-  O418  1  0.58332346  0.91771166  0.48136223  1
  O2-  O419  1  0.58227334  0.91024845  0.80549921  1
  O2-  O420  1  0.83972456  0.17331952  0.14694597  1
  O2-  O421  1  0.84207666  0.17914504  0.48600177  1
  O2-  O422  1  0.83018608  0.16234508  0.81417619  1
  O2-  O423  1  0.81943499  0.40539332  0.14936769  1
  O2-  O424  1  0.85166916  0.43149713  0.48709037  1
  O2-  O425  1  0.86708069  0.44547002  0.81530711  1
  O2-  O426  1  0.81980904  0.67009313  0.15994999  1
  O2-  O427  1  0.82444130  0.66744033  0.46692758  1
  O2-  O428  1  0.83799680  0.66171092  0.80246420  1
  O2-  O429  1  0.82366559  0.91291820  0.14516539  1
  O2-  O430  1  0.84124044  0.89980161  0.46376871  1
  O2-  O431  1  0.83473775  0.91015797  0.81259349  1
  O2-  O432  1  0.19258537  0.08719632  0.18543151  1
  O2-  O433  1  0.18713620  0.12650580  0.52114606  1
  O2-  O434  1  0.14606235  0.06390455  0.84791477  1
  O2-  O435  1  0.20754602  0.40412534  0.19668787  1
  O2-  O436  1  0.15790294  0.32543887  0.52066910  1
  O2-  O437  1  0.15946997  0.32583803  0.85080311  1
  O2-  O438  1  0.17183137  0.58701170  0.18429849  1
  O2-  O439  1  0.17676319  0.58560572  0.52377808  1
  O2-  O440  1  0.18435181  0.58761315  0.84185440  1
  O2-  O441  1  0.09548636  0.79909885  0.19767947  1
  O2-  O442  1  0.19883909  0.85950885  0.51898081  1
  O2-  O443  1  0.16993555  0.84561126  0.85163930  1
  O2-  O444  1  0.42898588  0.08463735  0.18575185  1
  O2-  O445  1  0.40572265  0.04473002  0.49473692  1
  O2-  O446  1  0.43369908  0.08044812  0.85202067  1
  O2-  O447  1  0.43947127  0.39390112  0.19858703  1
  O2-  O448  1  0.41636499  0.31874866  0.50663102  1
  O2-  O449  1  0.41232461  0.32438282  0.85166212  1
  O2-  O450  1  0.42198377  0.59047363  0.18658228  1
  O2-  O451  1  0.40832182  0.56448580  0.51928305  1
  O2-  O452  1  0.40870693  0.55448347  0.86738493  1
  O2-  O453  1  0.42942043  0.85035000  0.18111544  1
  O2-  O454  1  0.43956383  0.81412466  0.53689879  1
  O2-  O455  1  0.42561735  0.82639273  0.86148124  1
  O2-  O456  1  0.67335688  0.08476301  0.17899564  1
  O2-  O457  1  0.64336721  0.06807444  0.52788875  1
  O2-  O458  1  0.66628444  0.06897328  0.85535066  1
  O2-  O459  1  0.65499665  0.32846591  0.18822872  1
  O2-  O460  1  0.66776503  0.33496360  0.51405162  1
  O2-  O461  1  0.67600818  0.32878008  0.85734695  1
  O2-  O462  1  0.65253864  0.59149455  0.19979537  1
  O2-  O463  1  0.65793067  0.58303461  0.51213600  1
  O2-  O464  1  0.66928555  0.59790101  0.83036219  1
  O2-  O465  1  0.66617686  0.82851736  0.18339356  1
  O2-  O466  1  0.71938685  0.90851469  0.52901939  1
  O2-  O467  1  0.67113300  0.83200014  0.84739307  1
  O2-  O468  1  0.90304788  0.07935840  0.19024465  1
  O2-  O469  1  0.89770640  0.08809412  0.52723042  1
  O2-  O470  1  0.90790879  0.07381663  0.85336806  1
  O2-  O471  1  0.91743619  0.33722113  0.18518148  1
  O2-  O472  1  0.92337904  0.33094416  0.52747361  1
  O2-  O473  1  0.91418238  0.32618200  0.85647917  1
  O2-  O474  1  0.89047308  0.56649804  0.19821365  1
  O2-  O475  1  0.93518121  0.58671828  0.53924716  1
  O2-  O476  1  0.82572565  0.54460191  0.88150333  1
  O2-  O477  1  0.91373981  0.83765371  0.19247509  1
  O2-  O478  1  0.92516209  0.83257475  0.51886260  1
  O2-  O479  1  0.91764914  0.82338979  0.86108208  1
  O2-  O480  1  0.17239465  0.07905454  0.30965034  1
  O2-  O481  1  0.16548473  0.08994955  0.63971981  1
  O2-  O482  1  0.16455011  0.07762045  0.97262429  1
  O2-  O483  1  0.16353354  0.33902824  0.30967704  1
  O2-  O484  1  0.15982769  0.33533973  0.64508862  1
  O2-  O485  1  0.17220924  0.33306646  0.97361550  1
  O2-  O486  1  0.16680165  0.57356994  0.30605095  1
  O2-  O487  1  0.17811536  0.58909118  0.64657202  1
  O2-  O488  1  0.21025504  0.65194377  0.95428376  1
  O2-  O489  1  0.14498397  0.81394966  0.31640593  1
  O2-  O490  1  0.16566872  0.83632446  0.64199009  1
  O2-  O491  1  0.15670557  0.84145694  0.97408643  1
  O2-  O492  1  0.44442142  0.08545045  0.31074891  1
  O2-  O493  1  0.39491945  -0.00585654  0.61741949  1
  O2-  O494  1  0.41884569  0.08761713  0.97757385  1
  O2-  O495  1  0.42506522  0.30156100  0.30589320  1
  O2-  O496  1  0.44774915  0.39933890  0.61675921  1
  O2-  O497  1  0.41579659  0.33139994  0.97650630  1
  O2-  O498  1  0.41200904  0.57470577  0.30720514  1
  O2-  O499  1  0.41634317  0.58356379  0.64429554  1
  O2-  O500  1  0.40243807  0.55857231  0.98441154  1
  O2-  O501  1  0.40418782  0.82870093  0.31416911  1
  O2-  O502  1  0.47746208  0.85285498  0.66295672  1
  O2-  O503  1  0.42713041  0.81075221  0.99192989  1
  O2-  O504  1  0.68700468  0.08757298  0.30855753  1
  O2-  O505  1  0.64654927  0.06898656  0.65416524  1
  O2-  O506  1  0.68385088  0.04420653  0.97448306  1
  O2-  O507  1  0.66526863  0.31976457  0.31228515  1
  O2-  O508  1  0.66933568  0.34059335  0.63982971  1
  O2-  O509  1  0.67042075  0.33708441  0.98266430  1
  O2-  O510  1  0.62500461  0.60622991  0.32171050  1
  O2-  O511  1  0.66544122  0.58745545  0.62624099  1
  O2-  O512  1  0.65717412  0.57932678  0.98393108  1
  O2-  O513  1  0.66396449  0.80507074  0.31125871  1
  O2-  O514  1  0.66686477  0.83870109  0.63979581  1
  O2-  O515  1  0.64397246  0.79968560  0.97531994  1
  O2-  O516  1  0.93679595  0.08640200  0.31315295  1
  O2-  O517  1  0.90665880  0.08068603  0.64865134  1
  O2-  O518  1  0.83482171  0.04431120  0.96705490  1
  O2-  O519  1  0.89352981  0.31231731  0.30249898  1
  O2-  O520  1  0.91400881  0.33007048  0.65043462  1
  O2-  O521  1  0.91966019  0.33316177  0.98141094  1
  O2-  O522  1  0.89307968  0.57804269  0.31353057  1
  O2-  O523  1  0.91218782  0.57217761  0.65370189  1
  O2-  O524  1  0.91735168  0.56579391  0.97439665  1
  O2-  O525  1  0.91507253  0.83188434  0.30981936  1
  O2-  O526  1  0.92306332  0.84628366  0.64273743  1
  O2-  O527  1  0.91914223  0.85743579  0.98942597  1
  O2-  O528  1  0.09797097  0.16968758  0.01347376  1
  O2-  O529  1  0.09771003  0.17349334  0.34713213  1
  O2-  O530  1  0.07440900  0.16776677  0.68723793  1
  O2-  O531  1  0.08729618  0.41938563  0.02080219  1
  O2-  O532  1  0.07872755  0.41723382  0.35640965  1
  O2-  O533  1  0.08347412  0.42284835  0.68799637  1
  O2-  O534  1  0.08811010  0.67475138  0.00374306  1
  O2-  O535  1  0.06748980  0.64698825  0.34027534  1
  O2-  O536  1  0.08539183  0.66619061  0.67931732  1
  O2-  O537  1  0.08593183  0.92451263  0.02546462  1
  O2-  O538  1  0.08125726  0.91901595  0.35338645  1
  O2-  O539  1  0.10061927  0.93051227  0.67996830  1
  O2-  O540  1  0.33356641  0.16439393  0.01236539  1
  O2-  O541  1  0.33437432  0.14306153  0.34812282  1
  O2-  O542  1  0.32082478  0.08573750  0.67816784  1
  O2-  O543  1  0.32332794  0.40850844  0.02317734  1
  O2-  O544  1  0.32745595  0.42112554  0.35429896  1
  O2-  O545  1  0.32796199  0.41913561  0.68598290  1
  O2-  O546  1  0.33936606  0.64598524  0.02111926  1
  O2-  O547  1  0.33740973  0.66162605  0.35126298  1
  O2-  O548  1  0.35028608  0.67929637  0.69270697  1
  O2-  O549  1  0.32717258  0.93023971  0.01613481  1
  O2-  O550  1  0.30484962  0.88093855  0.37161738  1
  O2-  O551  1  0.29945982  0.85895064  0.70960877  1
  O2-  O552  1  0.58834685  0.17952900  0.02054359  1
  O2-  O553  1  0.59899892  0.15806964  0.35394836  1
  O2-  O554  1  0.59969375  0.17499618  0.69741569  1
  O2-  O555  1  0.58247999  0.41115047  0.02659629  1
  O2-  O556  1  0.57584778  0.44749804  0.35166737  1
  O2-  O557  1  0.59434905  0.44076647  0.67002487  1
  O2-  O558  1  0.56144819  0.64165050  0.01831940  1
  O2-  O559  1  0.57669886  0.64937830  0.33953631  1
  O2-  O560  1  0.58985164  0.66946405  0.66594058  1
  O2-  O561  1  0.55702201  0.95463596  0.05290926  1
  O2-  O562  1  0.55556402  0.94688938  0.36790954  1
  O2-  O563  1  0.56983077  0.90191253  0.68252163  1
  O2-  O564  1  0.83540133  0.17635004  0.02762490  1
  O2-  O565  1  0.84027439  0.15860506  0.36773888  1
  O2-  O566  1  0.81941654  0.15898673  0.69018023  1
  O2-  O567  1  0.83183755  0.40523866  0.02539812  1
  O2-  O568  1  0.82087947  0.41487406  0.34381995  1
  O2-  O569  1  0.82894353  0.41366517  0.68762930  1
  O2-  O570  1  0.81622351  0.67886437  0.03144158  1
  O2-  O571  1  0.82906595  0.66401626  0.34951900  1
  O2-  O572  1  0.86053540  0.68942722  0.67996837  1
  O2-  O573  1  0.80882555  0.90129710  0.02477584  1
  O2-  O574  1  0.81904489  0.88415312  0.35406262  1
  O2-  O575  1  0.82911642  0.91535626  0.68881576  1
