# generated using pymatgen
data_H2O
_symmetry_space_group_name_H-M   'P 1'
_cell_length_a   17.96249163
_cell_length_b   17.97550243
_cell_length_c   21.97475607
_cell_angle_alpha   90.05360527
_cell_angle_beta   89.96160118
_cell_angle_gamma   120.00843844
_symmetry_Int_Tables_number   1
_chemical_formula_structural   H2O
_chemical_formula_sum   'H384 O192'
_cell_volume   6144.19760450
_cell_formula_units_Z   192
loop_
 _symmetry_equiv_pos_site_id
 _symmetry_equiv_pos_as_xyz
  1  'x, y, z'
loop_
 _atom_type_symbol
 _atom_type_oxidation_number
  H+  1.0
  O2-  -2.0
loop_
 _atom_site_type_symbol
 _atom_site_label
 _atom_site_symmetry_multiplicity
 _atom_site_fract_x
 _atom_site_fract_y
 _atom_site_fract_z
 _atom_site_occupancy
  H+  H0  1  0.72447663  0.11243838  0.17121203  1
  H+  H1  1  0.31791279  0.68324563  0.75534297  1
  H+  H2  1  0.13741010  0.86708348  0.65419777  1
  H+  H3  1  0.63219690  0.10842762  0.17186174  1
  H+  H4  1  0.53093473  0.83917752  0.80561528  1
  H+  H5  1  0.00305340  0.14351449  0.81073564  1
  H+  H6  1  -0.02132336  0.35206014  0.17248479  1
  H+  H7  1  0.13199708  0.35718975  0.83169158  1
  H+  H8  1  0.51220575  0.38076088  0.51422218  1
  H+  H9  1  0.34672528  0.70834910  0.00897790  1
  H+  H10  1  0.38587690  0.11037322  0.51191577  1
  H+  H11  1  0.62669970  0.74613017  0.14704833  1
  H+  H12  1  0.63450166  0.37825510  0.36508541  1
  H+  H13  1  0.22819207  0.34746458  0.98630273  1
  H+  H14  1  0.64506907  0.51947553  0.82594024  1
  H+  H15  1  0.04830881  0.03372152  0.46033070  1
  H+  H16  1  0.49494330  0.87892128  0.49439817  1
  H+  H17  1  0.01358124  0.61512818  0.00933257  1
  H+  H18  1  0.27679223  0.39798368  0.33475344  1
  H+  H19  1  0.41183761  0.28611918  1.01166213  1
  H+  H20  1  0.89945283  0.12233488  0.51584320  1
  H+  H21  1  0.61024943  0.61847604  0.34019256  1
  H+  H22  1  0.85144914  0.24195222  1.00582910  1
  H+  H23  1  0.47808541  0.59343091  0.84354212  1
  H+  H24  1  0.65441027  0.30814275  0.39258014  1
  H+  H25  1  0.61963666  0.38029590  0.81797216  1
  H+  H26  1  0.91547348  0.83306275  0.55971608  1
  H+  H27  1  0.85751517  0.13611272  0.15214157  1
  H+  H28  1  0.12370111  0.11296990  -0.00992894  1
  H+  H29  1  0.11151291  0.96851681  0.67149442  1
  H+  H30  1  0.69232060  0.74179609  0.78237662  1
  H+  H31  1  0.47307079  0.10753093  0.18134018  1
  H+  H32  1  0.10943364  0.88605899  0.82674330  1
  H+  H33  1  0.11561553  0.59995671  0.84301181  1
  H+  H34  1  0.38338392  0.57511057  0.68486911  1
  H+  H35  1  0.35994389  0.97738774  0.67566049  1
  H+  H36  1  0.86071235  0.48892111  0.49198361  1
  H+  H37  1  0.35877159  -0.02427766  0.49734289  1
  H+  H38  1  0.96091222  0.10714296  1.00266141  1
  H+  H39  1  0.22755864  0.12031863  0.32699563  1
  H+  H40  1  0.37352814  0.08808795  1.00402930  1
  H+  H41  1  0.57990478  0.19701366  0.35173623  1
  H+  H42  1  0.08950135  0.46686192  1.00871621  1
  H+  H43  1  0.39536269  0.81373105  0.24435607  1
  H+  H44  1  0.38395455  0.02519180  0.84442644  1
  H+  H45  1  0.37778703  0.36197817  0.16407324  1
  H+  H46  1  0.35543788  0.09618498  0.35401997  1
  H+  H47  1  0.36868548  0.22651963  0.50867651  1
  H+  H48  1  0.08474496  0.13077221  0.51640468  1
  H+  H49  1  0.21987981  0.61270379  0.32699811  1
  H+  H50  1  0.45191698  0.84192835  0.99511430  1
  H+  H51  1  0.35891182  0.35980186  0.67141978  1
  H+  H52  1  0.52855202  0.62190389  0.66458314  1
  H+  H53  1  0.33512988  0.15653255  0.44992378  1
  H+  H54  1  0.08505660  0.16667048  0.06204787  1
  H+  H55  1  0.74189010  0.41919464  0.16410942  1
  H+  H56  1  0.86415615  0.89070512  0.48740865  1
  H+  H57  1  0.22348194  0.61801902  0.17925298  1
  H+  H58  1  0.36259476  0.71939158  0.16327073  1
  H+  H59  1  0.61453360  0.21870522  0.65928756  1
  H+  H60  1  1.00447545  0.93329892  0.30360305  1
  H+  H61  1  0.48111745  0.35742114  0.82530048  1
  H+  H62  1  0.88756255  0.77186810  0.82819336  1
  H+  H63  1  0.65612988  1.01057668  0.01691417  1
  H+  H64  1  0.35380125  0.46872356  0.00484428  1
  H+  H65  1  0.62072771  0.62416458  0.66154558  1
  H+  H66  1  0.14457613  0.62338971  0.50400082  1
  H+  H67  1  0.36223027  -0.03850982  0.34638919  1
  H+  H68  1  0.38885006  0.11565701  0.84513135  1
  H+  H69  1  0.69119604  0.38155208  0.16531674  1
  H+  H70  1  0.82432546  0.17159587  0.09722781  1
  H+  H71  1  0.36075888  0.37676702  0.82221380  1
  H+  H72  1  0.58532913  0.66835049  0.05163625  1
  H+  H73  1  0.68028052  0.58432773  0.70789288  1
  H+  H74  1  0.48637026  0.61587875  0.32635561  1
  H+  H75  1  0.87598469  0.45327455  0.65530291  1
  H+  H76  1  0.10093965  0.14776205  0.32217994  1
  H+  H77  1  0.63339578  1.02330864  0.83623337  1
  H+  H78  1  0.23693864  0.62837161  0.50782989  1
  H+  H79  1  0.16502111  0.07904986  0.89491288  1
  H+  H80  1  0.24132363  0.36629581  0.16053006  1
  H+  H81  1  0.53392268  0.41585648  -0.02584320  1
  H+  H82  1  0.20959613  0.10622972  -0.00881286  1
  H+  H83  1  0.40198174  0.87041889  0.50097289  1
  H+  H84  1  0.65737167  0.09058611  0.93057445  1
  H+  H85  1  0.76068013  0.39166399  0.48854174  1
  H+  H86  1  0.85731376  0.96913398  0.66817685  1
  H+  H87  1  0.61428079  0.21272193  0.17833623  1
  H+  H88  1  0.14122065  0.02306387  0.83423082  1
  H+  H89  1  0.86327078  0.85017282  1.00999978  1
  H+  H90  1  0.72435961  0.85513340  0.65379681  1
  H+  H91  1  0.62909061  0.12137193  0.99206221  1
  H+  H92  1  0.88729363  0.76520885  0.65241571  1
  H+  H93  1  0.38703508  0.51037925  0.83741066  1
  H+  H94  1  0.78922928  0.65047558  0.15059217  1
  H+  H95  1  0.20923763  0.33733764  0.49042619  1
  H+  H96  1  0.10806437  0.48127139  0.33751503  1
  H+  H97  1  0.01611093  0.12168527  0.67010699  1
  H+  H98  1  0.78551411  0.63856254  0.99278614  1
  H+  H99  1  0.38765725  0.32193907  0.23131729  1
  H+  H100  1  0.22606641  0.86472318  0.17910099  1
  H+  H101  1  0.59001726  0.92408849  0.38926671  1
  H+  H102  1  0.36612849  0.61551882  0.34450483  1
  H+  H103  1  0.26869937  0.12821534  0.17038223  1
  H+  H104  1  0.60782985  0.63211032  0.99278166  1
  H+  H105  1  0.62085926  0.71442910  0.33904152  1
  H+  H106  1  0.36325914  0.21443431  0.67561098  1
  H+  H107  1  0.78112044  0.62204486  0.66400959  1
  H+  H108  1  0.47683484  0.34847889  0.66017333  1
  H+  H109  1  0.77572207  0.39273761  0.34837846  1
  H+  H110  1  0.36793630  0.75120893  0.34333012  1
  H+  H111  1  0.63711693  0.13795858  0.33147750  1
  H+  H112  1  0.77094597  0.14818660  0.80784805  1
  H+  H113  1  0.55158557  0.85879137  -0.04420778  1
  H+  H114  1  0.34212637  0.73666100  0.81705561  1
  H+  H115  1  0.10586480  0.23239980  0.81347894  1
  H+  H116  1  0.35747091  0.21849112  0.16657672  1
  H+  H117  1  0.12924414  0.01685565  0.17702979  1
  H+  H118  1  0.83054915  0.40844828  0.75713661  1
  H+  H119  1  0.36483486  -0.02686926  0.16758393  1
  H+  H120  1  0.63795957  0.76447032  0.64677655  1
  H+  H121  1  0.36922016  -0.02822126  1.01118506  1
  H+  H122  1  0.87761233  1.04331575  0.32149106  1
  H+  H123  1  0.78008560  0.63349100  0.50549620  1
  H+  H124  1  0.22772279  0.86420152  0.99194747  1
  H+  H125  1  0.38338787  0.10588960  0.18641740  1
  H+  H126  1  0.26656451  0.87771489  0.34602417  1
  H+  H127  1  0.40071663  0.38973577  0.33085732  1
  H+  H128  1  0.76698495  0.15005457  0.00412078  1
  H+  H129  1  0.23611755  0.11411113  0.52183180  1
  H+  H130  1  0.13203256  0.78111688  0.84530798  1
  H+  H131  1  0.10733450  0.93452769  0.08208374  1
  H+  H132  1  0.55938920  0.88325347  0.92663344  1
  H+  H133  1  0.63323805  0.27204407  0.50019875  1
  H+  H134  1  0.13885462  0.62705502  0.17782138  1
  H+  H135  1  0.40790656  0.40314352  -0.02554354  1
  H+  H136  1  0.60768883  0.22933955  1.00435872  1
  H+  H137  1  0.84297453  0.93667742  0.39414811  1
  H+  H138  1  0.99368076  0.38764244  1.00843653  1
  H+  H139  1  0.78141562  0.89285252  0.16284641  1
  H+  H140  1  0.65588682  0.61485813  0.82011315  1
  H+  H141  1  0.27428641  0.13044379  0.83037364  1
  H+  H142  1  0.74953463  0.59341334  0.34959386  1
  H+  H143  1  0.36606197  0.51622543  0.51940627  1
  H+  H144  1  0.86319802  0.23716015  0.78903153  1
  H+  H145  1  0.87955155  0.10688403  0.65641835  1
  H+  H146  1  0.63594491  0.66473264  0.14856292  1
  H+  H147  1  0.63163356  0.91064134  0.48999671  1
  H+  H148  1  0.02800351  0.64761639  0.16248860  1
  H+  H149  1  0.52067700  0.13945494  0.01402291  1
  H+  H150  1  0.11802494  0.25163232  0.48370185  1
  H+  H151  1  0.62551036  0.35254510  -0.03225992  1
  H+  H152  1  0.72880845  0.34846154  0.82623311  1
  H+  H153  1  0.46765875  0.87680655  0.85359351  1
  H+  H154  1  0.51177131  0.86272037  0.34641071  1
  H+  H155  1  0.22878381  0.37506302  0.67957119  1
  H+  H156  1  0.13758327  0.77598508  0.17610064  1
  H+  H157  1  0.38335070  0.40268231  0.48515571  1
  H+  H158  1  1.01570338  0.37544625  0.79851487  1
  H+  H159  1  0.08149180  0.90466362  0.72802250  1
  H+  H160  1  0.37944941  0.74054514  0.49558897  1
  H+  H161  1  0.50424974  0.40130585  0.19912342  1
  H+  H162  1  0.13758926  0.03747803  0.32447230  1
  H+  H163  1  0.60937366  0.21713484  0.81146744  1
  H+  H164  1  0.64301840  0.87199363  0.19536546  1
  H+  H165  1  0.40244497  0.24338969  0.02430144  1
  H+  H166  1  0.10504776  0.11963750  0.67466594  1
  H+  H167  1  0.90025899  0.53405362  0.16476872  1
  H+  H168  1  0.14715117  0.63703633  0.65609793  1
  H+  H169  1  0.61961209  0.38006261  0.66646394  1
  H+  H170  1  0.73453743  0.86399446  0.33073367  1
  H+  H171  1  0.88956025  0.59519350  0.65039468  1
  H+  H172  1  0.89138494  0.80872292  0.35493290  1
  H+  H173  1  0.34903133  0.31525680  0.53400389  1
  H+  H174  1  0.36969356  0.85347192  1.00151314  1
  H+  H175  1  0.86182060  0.14767727  0.32591947  1
  H+  H176  1  0.78473759  0.62773482  0.81460346  1
  H+  H177  1  0.78185894  0.89762782  0.82536778  1
  H+  H178  1  0.11136976  0.89743102  0.34413634  1
  H+  H179  1  0.88886320  0.39540291  0.15222279  1
  H+  H180  1  0.62980974  0.99787119  0.49971706  1
  H+  H181  1  0.02763944  0.14205288  0.15760827  1
  H+  H182  1  0.88975516  0.02697325  0.16479945  1
  H+  H183  1  0.46809718  0.60341073  0.99222878  1
  H+  H184  1  0.48079919  0.09061380  0.34134867  1
  H+  H185  1  0.83234455  0.24115876  0.66020488  1
  H+  H186  1  0.47314892  0.85995608  0.20098043  1
  H+  H187  1  0.11099022  0.38212833  0.48613904  1
  H+  H188  1  0.39064914  0.87665769  0.67128491  1
  H+  H189  1  0.22974509  0.86925026  0.65817065  1
  H+  H190  1  0.25273791  0.65074362  0.65232182  1
  H+  H191  1  0.11281853  0.22297072  0.00021707  1
  H+  H192  1  0.35505355  0.62340596  0.00767956  1
  H+  H193  1  0.62899765  0.11483002  0.62757180  1
  H+  H194  1  0.64078385  0.55065395  0.19100024  1
  H+  H195  1  0.62399810  0.88339613  0.83507975  1
  H+  H196  1  0.58605958  0.92164340  0.26569200  1
  H+  H197  1  0.86355183  0.38763138  0.33980102  1
  H+  H198  1  0.35187314  0.89106213  0.83032622  1
  H+  H199  1  1.01077264  0.87844089  0.16562966  1
  H+  H200  1  0.13959383  0.77078637  0.50576117  1
  H+  H201  1  0.41378840  0.31277877  0.60041485  1
  H+  H202  1  0.96881766  0.13150075  0.31256256  1
  H+  H203  1  0.24275639  0.03602499  0.04771117  1
  H+  H204  1  0.36911390  0.50619703  0.17974947  1
  H+  H205  1  0.87992986  0.12381019  0.80947875  1
  H+  H206  1  0.33011578  0.40400695  0.76365998  1
  H+  H207  1  0.87920008  0.11620017  1.00518694  1
  H+  H208  1  0.11280954  0.13432147  0.15975413  1
  H+  H209  1  0.87210711  0.37275442  0.80260976  1
  H+  H210  1  0.07541288  0.94239119  0.39321744  1
  H+  H211  1  0.22168672  0.10114001  0.67126456  1
  H+  H212  1  -0.02165491  0.37060975  0.32364838  1
  H+  H213  1  0.89259231  0.62006646  0.16630495  1
  H+  H214  1  0.36952488  0.59592705  0.17920214  1
  H+  H215  1  0.97382597  0.85562799  0.65593265  1
  H+  H216  1  0.64969571  0.78747884  0.49661503  1
  H+  H217  1  0.10719747  0.23874748  0.31796056  1
  H+  H218  1  0.92153348  0.58737689  0.26368950  1
  H+  H219  1  0.11607598  0.73551073  0.66361548  1
  H+  H220  1  0.65513279  0.79411714  0.85554090  1
  H+  H221  1  0.90714182  0.77040141  0.98286077  1
  H+  H222  1  0.89045164  0.77489572  0.50048980  1
  H+  H223  1  0.20857002  0.61413149  0.83163321  1
  H+  H224  1  0.62282663  0.47198271  0.67036728  1
  H+  H225  1  0.62529937  0.52670687  0.28670498  1
  H+  H226  1  0.61233870  0.98062920  0.20670580  1
  H+  H227  1  0.21830761  0.59730800  0.99522023  1
  H+  H228  1  0.47530374  0.10525682  0.65512754  1
  H+  H229  1  0.64571439  0.39163235  0.19664623  1
  H+  H230  1  0.37007841  0.84110132  0.34291019  1
  H+  H231  1  0.11330043  0.64087305  0.34321818  1
  H+  H232  1  0.33541521  0.91345696  0.07221593  1
  H+  H233  1  0.58725217  0.42037968  0.03472784  1
  H+  H234  1  0.60152214  0.41628539  0.20885329  1
  H+  H235  1  0.63858238  0.52475748  0.52622038  1
  H+  H236  1  0.85184516  0.37216979  0.98965042  1
  H+  H237  1  0.86752288  0.76277668  0.36576897  1
  H+  H238  1  0.77947209  0.89834040  0.48770709  1
  H+  H239  1  0.98182922  0.60337826  0.64876201  1
  H+  H240  1  0.88850991  0.50386140  0.83032352  1
  H+  H241  1  0.69233669  0.23315177  0.26412980  1
  H+  H242  1  0.89463365  0.52606027  0.32248338  1
  H+  H243  1  -0.01489221  0.37036830  0.52631747  1
  H+  H244  1  0.15344099  0.27645042  0.16613988  1
  H+  H245  1  0.26321719  0.89194077  0.83074994  1
  H+  H246  1  0.02578844  0.64088197  0.49363603  1
  H+  H247  1  0.86730328  0.88603053  0.16218356  1
  H+  H248  1  0.87137874  0.50816624  -0.01913407  1
  H+  H249  1  0.62756655  0.36054571  0.50929469  1
  H+  H250  1  0.48180651  0.41079990  0.28951133  1
  H+  H251  1  0.14202588  0.37582422  0.31559281  1
  H+  H252  1  0.88151888  0.27053189  0.17401730  1
  H+  H253  1  0.52822369  0.39500903  0.36648520  1
  H+  H254  1  0.61446021  0.14201528  0.50581124  1
  H+  H255  1  0.63365533  0.65263238  0.49643040  1
  H+  H256  1  0.86018460  0.88063137  0.66707254  1
  H+  H257  1  0.10718300  0.37153337  0.15227301  1
  H+  H258  1  0.37451644  0.76577698  0.66154878  1
  H+  H259  1  0.92110995  0.34002009  0.74332851  1
  H+  H260  1  0.87724229  0.73847183  0.14480359  1
  H+  H261  1  0.36769484  0.45316643  0.67188225  1
  H+  H262  1  0.88167068  0.93383112  0.32741470  1
  H+  H263  1  0.13190304  0.77598244  0.33235602  1
  H+  H264  1  0.89780259  1.03263550  0.50682654  1
  H+  H265  1  0.99861413  0.63562842  0.81434355  1
  H+  H266  1  0.73074412  0.13122361  0.63173391  1
  H+  H267  1  0.88695826  1.03844707  0.82057448  1
  H+  H268  1  0.88448610  0.86076889  0.82984587  1
  H+  H269  1  0.36305809  0.66620578  0.64620133  1
  H+  H270  1  0.84683908  0.60876525  0.34595156  1
  H+  H271  1  0.78654979  0.14799175  0.52015923  1
  H+  H272  1  0.77084109  0.16301425  0.32766905  1
  H+  H273  1  0.51840252  0.13079142  0.81730000  1
  H+  H274  1  0.36231261  0.88263253  0.16804819  1
  H+  H275  1  0.10036890  0.46430624  0.82340713  1
  H+  H276  1  0.12301201  -0.01357671  1.01787619  1
  H+  H277  1  0.48076403  0.87048000  0.66747410  1
  H+  H278  1  0.10541197  0.88391327  0.17085250  1
  H+  H279  1  0.73348247  0.34405451  0.64821878  1
  H+  H280  1  0.69706155  0.91209798  -0.00668708  1
  H+  H281  1  0.65205766  0.53131479  0.97518917  1
  H+  H282  1  0.87566845  0.23509181  0.51949631  1
  H+  H283  1  0.60926744  0.87458891  0.66862917  1
  H+  H284  1  0.90280059  0.80063178  0.21857561  1
  H+  H285  1  0.88610834  0.61062987  0.50468229  1
  H+  H286  1  0.36751435  0.48754347  0.33804864  1
  H+  H287  1  0.87166781  0.24683034  0.33120660  1
  H+  H288  1  0.66471249  0.31784462  0.88427359  1
  H+  H289  1  0.57651797  0.42095099  0.45751661  1
  H+  H290  1  0.39085885  0.26766781  0.83334610  1
  H+  H291  1  0.54772619  0.36581971  0.10982555  1
  H+  H292  1  0.58029889  0.15342125  0.43835069  1
  H+  H293  1  0.16735827  0.31848519  0.92759426  1
  H+  H294  1  0.41743590  0.46383226  0.12676887  1
  H+  H295  1  0.66730557  0.30373284  0.27169223  1
  H+  H296  1  0.71702258  0.35791302  0.97729302  1
  H+  H297  1  0.34397287  0.66780254  0.44344726  1
  H+  H298  1  0.02324885  0.63909236  0.34147360  1
  H+  H299  1  0.47463295  0.10714955  0.50794692  1
  H+  H300  1  0.60024913  0.67074249  0.43403346  1
  H+  H301  1  0.02177116  0.72389280  0.78479467  1
  H+  H302  1  0.26714791  0.04976782  0.38735570  1
  H+  H303  1  0.89472034  0.34300387  0.93450167  1
  H+  H304  1  0.83414052  0.91549952  0.76194899  1
  H+  H305  1  0.17938930  0.34999093  0.25683412  1
  H+  H306  1  0.63891514  0.84812711  0.33067509  1
  H+  H307  1  0.58407280  0.15434033  0.71651058  1
  H+  H308  1  0.36805898  0.60702137  0.52470786  1
  H+  H309  1  0.90813550  0.44477356  0.09034860  1
  H+  H310  1  0.08163717  0.41936585  0.39608826  1
  H+  H311  1  0.91837693  0.33836533  0.26272280  1
  H+  H312  1  0.24034344  0.86705820  0.50481224  1
  H+  H313  1  0.17381547  0.83501237  0.56903116  1
  H+  H314  1  0.00553652  0.93277891  0.48083651  1
  H+  H315  1  0.82479343  0.64457698  0.44059082  1
  H+  H316  1  0.41589039  0.07985955  0.94058648  1
  H+  H317  1  0.14933364  0.87905712  0.99717598  1
  H+  H318  1  0.16688970  0.07428135  0.60971611  1
  H+  H319  1  0.06286231  0.39706810  0.09838094  1
  H+  H320  1  0.69476461  0.62289764  0.23697583  1
  H+  H321  1  0.40679086  0.57256823  0.93425090  1
  H+  H322  1  0.92754996  0.83384423  0.92805364  1
  H+  H323  1  0.12151840  0.47634972  0.49329450  1
  H+  H324  1  0.92340400  0.35117922  0.58458185  1
  H+  H325  1  0.68337828  0.59389048  0.91904064  1
  H+  H326  1  0.61363676  0.93329818  0.06396703  1
  H+  H327  1  0.14760346  0.43244130  0.74413280  1
  H+  H328  1  0.16363254  0.08475115  0.23285270  1
  H+  H329  1  0.08231483  0.66643216  0.10126963  1
  H+  H330  1  0.07439803  0.16491663  0.74968280  1
  H+  H331  1  0.84830785  0.65547776  0.71907531  1
  H+  H332  1  0.62661385  0.10750735  0.82949609  1
  H+  H333  1  0.13717009  0.04097140  0.51174192  1
  H+  H334  1  0.16464069  0.83531881  0.27293262  1
  H+  H335  1  0.67875280  0.82846682  0.23748976  1
  H+  H336  1  0.28083422  0.56799376  0.38327111  1
  H+  H337  1  0.32614245  0.91145555  0.43789251  1
  H+  H338  1  0.80355934  0.16695175  0.71051948  1
  H+  H339  1  0.75370136  0.86279420  0.99219428  1
  H+  H340  1  0.39916231  0.56437768  0.61261000  1
  H+  H341  1  0.94876658  0.91401787  0.24338307  1
  H+  H342  1  0.08505537  0.67391270  0.43400535  1
  H+  H343  1  0.87012905  0.62256488  0.81915282  1
  H+  H344  1  0.33532884  0.15791815  0.77094978  1
  H+  H345  1  0.79773849  0.41028814  0.04714171  1
  H+  H346  1  0.41710401  0.58151801  0.26743762  1
  H+  H347  1  0.61690195  0.48849641  0.36120656  1
  H+  H348  1  0.41125780  0.07227495  0.59873995  1
  H+  H349  1  0.16043285  0.57415086  0.93466962  1
  H+  H350  1  0.17677165  0.60533881  0.59250015  1
  H+  H351  1  0.35980403  0.12417197  0.67506470  1
  H+  H352  1  0.91737279  0.56424496  0.89222434  1
  H+  H353  1  0.22062137  0.35454417  0.82957501  1
  H+  H354  1  0.84416907  0.66486282  0.05283565  1
  H+  H355  1  0.83027824  0.88152293  0.06811337  1
  H+  H356  1  0.91142517  0.08961013  0.22200140  1
  H+  H357  1  0.01995248  0.88521591  0.81834262  1
  H+  H358  1  0.67519420  0.11493253  0.26535482  1
  H+  H359  1  0.53626865  0.31944996  0.10838223  1
  H+  H360  1  0.89035603  0.60522469  0.97910116  1
  H+  H361  1  0.33676415  0.40425583  0.06060801  1
  H+  H362  1  0.59054350  0.91024011  0.72957547  1
  H+  H363  1  0.59024665  0.40986086  0.75853926  1
  H+  H364  1  0.67139644  0.32516059  0.59132272  1
  H+  H365  1  0.58372005  0.17570796  0.10867850  1
  H+  H366  1  0.32495732  0.92018617  0.73712687  1
  H+  H367  1  0.69887327  0.86687425  0.91318332  1
  H+  H368  1  0.16253400  0.59284726  0.26593977  1
  H+  H369  1  0.61239053  0.67725032  0.74465976  1
  H+  H370  1  0.67331771  0.84224126  0.55744049  1
  H+  H371  1  0.67821196  0.58853016  0.58136323  1
  H+  H372  1  0.16527203  0.84179392  0.90633827  1
  H+  H373  1  0.91871405  0.57298506  0.56025319  1
  H+  H374  1  0.32878796  0.65760292  0.10433290  1
  H+  H375  1  0.34081395  0.42591398  0.43058710  1
  H+  H376  1  0.83186729  0.42328009  0.42823030  1
  H+  H377  1  0.42009131  0.06712503  0.27940032  1
  H+  H378  1  0.39771837  0.83077660  0.90529978  1
  H+  H379  1  0.91398805  0.07799470  0.59908778  1
  H+  H380  1  0.07627613  0.67485161  0.72195523  1
  H+  H381  1  0.10292908  0.61772025  1.01309243  1
  H+  H382  1  0.43535149  0.37564753  0.91096939  1
  H+  H383  1  0.31121040  0.12100301  0.08253020  1
  O2-  O384  1  0.08898818  0.17038620  0.14418319  1
  O2-  O385  1  0.06267766  0.13203287  0.47560514  1
  O2-  O386  1  0.06879524  0.17086907  0.79758122  1
  O2-  O387  1  0.06562906  0.39084006  0.14382860  1
  O2-  O388  1  0.08501623  0.41884612  0.47557056  1
  O2-  O389  1  0.08316509  0.40906922  0.80297570  1
  O2-  O390  1  0.08829320  0.67759280  0.14703463  1
  O2-  O391  1  0.08718375  0.67540438  0.48026549  1
  O2-  O392  1  0.04802519  0.68876534  0.79323920  1
  O2-  O393  1  0.07656030  0.91477726  0.15496112  1
  O2-  O394  1  0.05558998  0.98048831  0.46007791  1
  O2-  O395  1  0.08090282  0.91275427  0.80345540  1
  O2-  O396  1  0.33062622  0.15539942  0.15745862  1
  O2-  O397  1  0.33917747  0.16043891  0.49475002  1
  O2-  O398  1  0.33719761  0.16191356  0.81640262  1
  O2-  O399  1  0.35896256  0.41697334  0.13430247  1
  O2-  O400  1  0.34312915  0.42325825  0.47612875  1
  O2-  O401  1  0.32929612  0.40687001  0.80912993  1
  O2-  O402  1  0.32945608  0.65861836  0.14985189  1
  O2-  O403  1  0.34067982  0.67620368  0.48767935  1
  O2-  O404  1  0.30281840  0.68040018  0.79867319  1
  O2-  O405  1  0.33413600  0.91347836  0.15023023  1
  O2-  O406  1  0.32518593  0.91316645  0.48399554  1
  O2-  O407  1  0.32356730  0.92235472  0.81381618  1
  O2-  O408  1  0.57705726  0.16117105  0.15293725  1
  O2-  O409  1  0.58242081  0.16687017  0.48414905  1
  O2-  O410  1  0.57585863  0.15577583  0.79693096  1
  O2-  O411  1  0.56328540  0.44389431  0.21619001  1
  O2-  O412  1  0.57463131  0.41382078  0.50324262  1
  O2-  O413  1  0.59069642  0.41279605  0.80436042  1
  O2-  O414  1  0.60363770  0.68857823  0.12835703  1
  O2-  O415  1  0.60862377  0.68524332  0.47812996  1
  O2-  O416  1  0.63511510  0.69226404  0.78800671  1
  O2-  O417  1  0.58151900  0.91915134  0.22077089  1
  O2-  O418  1  0.60360827  0.94366052  0.47572697  1
  O2-  O419  1  0.57835205  0.89625932  0.81557964  1
  O2-  O420  1  0.82400947  0.16566518  0.14304193  1
  O2-  O421  1  0.84622957  0.17416804  0.50505868  1
  O2-  O422  1  0.82283636  0.16968184  0.78230725  1
  O2-  O423  1  0.87625601  0.43556415  0.12816026  1
  O2-  O424  1  0.82387718  0.42585539  0.47451159  1
  O2-  O425  1  0.83515075  0.40477203  0.80168445  1
  O2-  O426  1  0.84740874  0.67498923  0.13261919  1
  O2-  O427  1  0.83790110  0.65973668  0.48558366  1
  O2-  O428  1  0.84635222  0.65745687  0.80094992  1
  O2-  O429  1  0.84139190  0.92126450  0.14707820  1
  O2-  O430  1  0.84039830  0.92691981  0.47243839  1
  O2-  O431  1  0.84084071  0.92139205  0.80715076  1
  O2-  O432  1  0.16311965  0.08006685  0.18739525  1
  O2-  O433  1  0.17726769  0.08692344  0.53993021  1
  O2-  O434  1  0.17702950  0.08181280  0.85045477  1
  O2-  O435  1  0.18383195  0.33816621  0.17931467  1
  O2-  O436  1  0.14758338  0.31264889  0.49803307  1
  O2-  O437  1  0.15956232  0.32266260  0.84378181  1
  O2-  O438  1  0.16629005  0.59721092  0.19827617  1
  O2-  O439  1  0.17532310  0.59555127  0.52220669  1
  O2-  O440  1  0.15216174  0.57593699  0.85266135  1
  O2-  O441  1  0.16646736  0.83475381  0.19562360  1
  O2-  O442  1  0.17506260  0.83252628  0.52192165  1
  O2-  O443  1  0.16456700  0.84124955  0.85889269  1
  O2-  O444  1  0.41407473  0.07462835  0.19922594  1
  O2-  O445  1  0.41373256  0.07410864  0.52265781  1
  O2-  O446  1  0.42010183  0.08521786  0.85979821  1
  O2-  O447  1  0.40218955  0.32395418  0.18802600  1
  O2-  O448  1  0.40194066  0.31255593  0.53140669  1
  O2-  O449  1  0.42103619  0.33131029  0.84088322  1
  O2-  O450  1  0.39383589  0.56339739  0.19959006  1
  O2-  O451  1  0.37749654  0.56449044  0.54712204  1
  O2-  O452  1  0.41816595  0.56965970  0.85509127  1
  O2-  O453  1  0.40886550  0.82492791  0.20026719  1
  O2-  O454  1  0.43383540  0.83960118  0.50616045  1
  O2-  O455  1  0.40537195  0.84166870  0.86026129  1
  O2-  O456  1  0.66580470  0.08400198  0.19098211  1
  O2-  O457  1  0.67198617  0.10250285  0.54313428  1
  O2-  O458  1  0.66069139  0.08353633  0.84915232  1
  O2-  O459  1  0.68128685  0.27386535  0.24026172  1
  O2-  O460  1  0.66645893  0.33477805  0.51246716  1
  O2-  O461  1  0.66665166  0.31926567  0.83829620  1
  O2-  O462  1  0.68780589  0.61157506  0.19292189  1
  O2-  O463  1  0.67672379  0.58661305  0.53645549  1
  O2-  O464  1  0.68104274  0.58144830  0.83804999  1
  O2-  O465  1  0.67639672  0.84154733  0.19354812  1
  O2-  O466  1  0.67641930  0.84851783  0.51226123  1
  O2-  O467  1  0.68555346  0.85650518  0.86060321  1
  O2-  O468  1  0.91680283  0.08929440  0.17695288  1
  O2-  O469  1  0.92642732  0.08759844  0.52985389  1
  O2-  O470  1  0.91528850  0.10104545  0.82822326  1
  O2-  O471  1  0.91714788  0.33036234  0.18984675  1
  O2-  O472  1  0.92499350  0.34032919  0.54049710  1
  O2-  O473  1  0.92094763  0.33052203  0.78770902  1
  O2-  O474  1  0.92123227  0.59032822  0.18580034  1
  O2-  O475  1  0.91661271  0.57644819  0.51435756  1
  O2-  O476  1  0.91746593  0.56500840  0.84574791  1
  O2-  O477  1  0.91717377  0.83156891  0.18013133  1
  O2-  O478  1  0.91524117  0.83537034  0.51443938  1
  O2-  O479  1  0.91730308  0.83183627  0.84307123  1
  O2-  O480  1  0.16988547  0.09812250  0.30915725  1
  O2-  O481  1  0.16127011  0.06904637  0.65599631  1
  O2-  O482  1  0.15158908  0.07934635  0.97338639  1
  O2-  O483  1  0.17682641  0.34966084  0.30243976  1
  O2-  O484  1  0.17307098  0.37563171  0.67887281  1
  O2-  O485  1  0.16738418  0.31534749  0.97241085  1
  O2-  O486  1  0.15991429  0.58826806  0.31353316  1
  O2-  O487  1  0.18319961  0.61253382  0.63904235  1
  O2-  O488  1  0.15827542  0.57173856  0.97969373  1
  O2-  O489  1  0.16430150  0.83726384  0.31880104  1
  O2-  O490  1  0.17102591  0.83866685  0.63833269  1
  O2-  O491  1  0.17015111  0.84465291  0.97463487  1
  O2-  O492  1  0.41736442  0.06034543  0.32451933  1
  O2-  O493  1  0.41282303  0.07364477  0.64456828  1
  O2-  O494  1  0.41700431  0.07451874  0.98585774  1
  O2-  O495  1  0.43904425  0.36727556  0.31694776  1
  O2-  O496  1  0.41537613  0.31416594  0.64792583  1
  O2-  O497  1  0.45739483  0.41193690  0.94813016  1
  O2-  O498  1  0.42365094  0.58781212  0.31383385  1
  O2-  O499  1  0.41794504  0.56260993  0.65704810  1
  O2-  O500  1  0.40521944  0.57483889  0.97962117  1
  O2-  O501  1  0.39911611  0.80954762  0.32688225  1
  O2-  O502  1  0.41861008  0.84500564  0.65392842  1
  O2-  O503  1  0.39238211  0.81664640  0.98173465  1
  O2-  O504  1  0.69138705  0.14819450  0.30428296  1
  O2-  O505  1  0.66629042  0.09170940  0.61024710  1
  O2-  O506  1  0.66028352  0.09253269  0.97577332  1
  O2-  O507  1  0.66487546  0.34305453  0.35620532  1
  O2-  O508  1  0.67186112  0.32031520  0.63652561  1
  O2-  O509  1  0.65447276  0.31847067  0.96001382  1
  O2-  O510  1  0.65022186  0.56149652  0.32328119  1
  O2-  O511  1  0.67724282  0.57462515  0.66407455  1
  O2-  O512  1  0.68268574  0.59374954  0.96421160  1
  O2-  O513  1  0.67420132  0.82281254  0.31688066  1
  O2-  O514  1  0.66482263  0.82674188  0.63661789  1
  O2-  O515  1  0.70781014  0.87129178  0.96954124  1
  O2-  O516  1  0.90444275  0.10169018  0.30224375  1
  O2-  O517  1  0.90742373  0.07364095  0.64586696  1
  O2-  O518  1  0.89803940  0.07432429  0.99712312  1
  O2-  O519  1  0.91686098  0.34042962  0.30923154  1
  O2-  O520  1  0.88848446  0.35006854  0.66238920  1
  O2-  O521  1  0.88967467  0.34194810  0.97865387  1
  O2-  O522  1  0.92422853  0.58703002  0.30932106  1
  O2-  O523  1  0.92156805  0.56615540  0.63463102  1
  O2-  O524  1  0.91444206  0.56836946  0.96520789  1
  O2-  O525  1  0.96134951  0.94360953  0.28317294  1
  O2-  O526  1  0.91340081  0.82681611  0.64048274  1
  O2-  O527  1  0.93514394  0.83245114  0.97236972  1
  O2-  O528  1  0.08019145  0.16187260  0.01704845  1
  O2-  O529  1  0.06686378  0.17682119  0.32520169  1
  O2-  O530  1  0.07590297  0.15263628  0.68613012  1
  O2-  O531  1  0.05154218  0.40928908  0.02626090  1
  O2-  O532  1  0.08037183  0.41973607  0.35035453  1
  O2-  O533  1  0.19684077  0.45348307  0.71369576  1
  O2-  O534  1  0.06918568  0.64220061  0.03128907  1
  O2-  O535  1  0.08252966  0.67056354  0.35974598  1
  O2-  O536  1  0.08716388  0.67388436  0.67721162  1
  O2-  O537  1  0.13944232  0.95029051  0.04239964  1
  O2-  O538  1  0.08635227  0.93530363  0.34951085  1
  O2-  O539  1  0.08123891  0.90475113  0.68207775  1
  O2-  O540  1  0.29513744  0.09376409  0.04131116  1
  O2-  O541  1  0.31058305  0.10677687  0.37367801  1
  O2-  O542  1  0.33073739  0.15426937  0.69251171  1
  O2-  O543  1  0.33181508  0.40684716  0.01471247  1
  O2-  O544  1  0.33538891  0.42687726  0.35392749  1
  O2-  O545  1  0.33114719  0.39315752  0.68660080  1
  O2-  O546  1  0.32130520  0.64940962  0.02561188  1
  O2-  O547  1  0.32069240  0.62499645  0.36722087  1
  O2-  O548  1  0.33422012  0.69098008  0.66914915  1
  O2-  O549  1  0.33609860  0.91098703  0.02659484  1
  O2-  O550  1  0.32579632  0.90135262  0.36382690  1
  O2-  O551  1  0.32696546  0.91656610  0.69146598  1
  O2-  O552  1  0.58177817  0.17360133  0.02778109  1
  O2-  O553  1  0.57092678  0.14160423  0.36579939  1
  O2-  O554  1  0.58360856  0.15593920  0.67094856  1
  O2-  O555  1  0.59261360  0.42463943  -0.00939834  1
  O2-  O556  1  0.58742587  0.42594177  0.38374402  1
  O2-  O557  1  0.58808046  0.40809293  0.68225769  1
  O2-  O558  1  0.56979597  0.65291909  0.00799872  1
  O2-  O559  1  0.58303245  0.65459600  0.35377033  1
  O2-  O560  1  0.59144547  0.65865948  0.67223632  1
  O2-  O561  1  0.66504798  0.96803784  0.04007445  1
  O2-  O562  1  0.57550723  0.89740005  0.34833297  1
  O2-  O563  1  0.57984076  0.90474311  0.68544650  1
  O2-  O564  1  0.82521863  0.18214369  0.02244289  1
  O2-  O565  1  0.83454074  0.18316113  0.34359096  1
  O2-  O566  1  0.80495423  0.17634072  0.66454911  1
  O2-  O567  1  0.80467408  0.41274771  0.00301268  1
  O2-  O568  1  0.83860356  0.42190448  0.35798640  1
  O2-  O569  1  0.83844367  0.39409577  0.67168339  1
  O2-  O570  1  0.84593401  0.66213786  0.00753352  1
  O2-  O571  1  0.80409275  0.61136926  0.37275173  1
  O2-  O572  1  0.84595049  0.65416926  0.67366495  1
  O2-  O573  1  0.81165331  0.84575862  0.03091122  1
  O2-  O574  1  0.83597243  0.94051072  0.34919787  1
  O2-  O575  1  0.82770189  0.90809498  0.68321776  1
