# generated using pymatgen
data_H2O
_symmetry_space_group_name_H-M   'P 1'
_cell_length_a   17.99292544
_cell_length_b   17.98934198
_cell_length_c   22.00391047
_cell_angle_alpha   90.01901889
_cell_angle_beta   90.03327830
_cell_angle_gamma   119.96810815
_symmetry_Int_Tables_number   1
_chemical_formula_structural   H2O
_chemical_formula_sum   'H384 O192'
_cell_volume   6170.02396129
_cell_formula_units_Z   192
loop_
 _symmetry_equiv_pos_site_id
 _symmetry_equiv_pos_as_xyz
  1  'x, y, z'
loop_
 _atom_type_symbol
 _atom_type_oxidation_number
  H+  1.0
  O2-  -2.0
loop_
 _atom_site_type_symbol
 _atom_site_label
 _atom_site_symmetry_multiplicity
 _atom_site_fract_x
 _atom_site_fract_y
 _atom_site_fract_z
 _atom_site_occupancy
  H+  H0  1  0.13082793  0.36152646  0.48933805  1
  H+  H1  1  0.58507846  0.19463808  0.31929734  1
  H+  H2  1  0.13953257  0.60492739  0.32458583  1
  H+  H3  1  0.64761530  0.60532453  0.34568360  1
  H+  H4  1  0.52032442  0.63242857  0.15994929  1
  H+  H5  1  0.77084536  0.88045963  0.17161514  1
  H+  H6  1  0.51978799  0.38744183  0.67966810  1
  H+  H7  1  0.85614780  0.97612824  0.67210239  1
  H+  H8  1  0.72345263  0.12251750  0.81531739  1
  H+  H9  1  0.52711817  0.41194900  0.83964062  1
  H+  H10  1  0.61626885  0.15198999  0.82268023  1
  H+  H11  1  0.97044777  0.11461013  0.66224241  1
  H+  H12  1  0.88344870  1.03028988  0.82469626  1
  H+  H13  1  0.40127035  0.28783813  0.97986351  1
  H+  H14  1  0.65397829  0.54893068  0.16808423  1
  H+  H15  1  0.17473519  0.82582713  1.00128641  1
  H+  H16  1  0.60489604  0.87462935  0.66639659  1
  H+  H17  1  0.11631074  0.64023373  0.82696675  1
  H+  H18  1  0.36106634  0.38708499  0.00060700  1
  H+  H19  1  0.12530580  0.01087324  0.17183090  1
  H+  H20  1  0.48655202  0.86496676  0.15404382  1
  H+  H21  1  0.77057287  0.64475740  0.50742336  1
  H+  H22  1  0.11202811  0.47820882  0.51509310  1
  H+  H23  1  0.36068981  0.43637738  0.72336669  1
  H+  H24  1  0.70504015  0.09876477  0.33016918  1
  H+  H25  1  0.34325203  0.21484242  0.20502411  1
  H+  H26  1  0.12647678  0.11280160  0.50300209  1
  H+  H27  1  0.09559804  -0.02228509  1.01011747  1
  H+  H28  1  0.46302508  0.86322313  0.34788083  1
  H+  H29  1  0.65852942  1.02290727  0.00515412  1
  H+  H30  1  0.11510091  0.22630602  0.16423865  1
  H+  H31  1  0.53539118  0.12776884  0.49045753  1
  H+  H32  1  0.88345916  0.61203343  0.33928330  1
  H+  H33  1  0.85353150  0.89240107  0.82808599  1
  H+  H34  1  0.37109772  0.90056841  0.18162664  1
  H+  H35  1  0.97587638  0.86917414  0.50961780  1
  H+  H36  1  0.39608062  0.92307719  0.97977902  1
  H+  H37  1  0.85535783  0.44764566  0.00411626  1
  H+  H38  1  0.38880852  0.36522990  0.34645877  1
  H+  H39  1  0.64466934  0.11324520  1.00306552  1
  H+  H40  1  0.86453905  0.73693247  1.01261817  1
  H+  H41  1  0.13867702  0.37372165  0.17250546  1
  H+  H42  1  -0.02412683  0.10780580  0.17884972  1
  H+  H43  1  -0.02400711  0.87285910  0.66055606  1
  H+  H44  1  0.94209366  0.57709990  0.97570683  1
  H+  H45  1  0.01425664  0.13482032  0.49873251  1
  H+  H46  1  0.65046888  0.51635714  0.82537451  1
  H+  H47  1  0.27015240  0.62625591  0.33928470  1
  H+  H48  1  0.84970540  0.20515271  0.34121600  1
  H+  H49  1  0.89079320  0.27920142  0.68260530  1
  H+  H50  1  0.08232668  0.95128364  0.82557791  1
  H+  H51  1  0.46549242  0.86671765  0.98678438  1
  H+  H52  1  0.48882478  0.87129828  0.51328127  1
  H+  H53  1  0.14950719  0.06546969  0.27744747  1
  H+  H54  1  0.81473696  0.91579526  0.07851159  1
  H+  H55  1  0.70410131  0.33244612  0.34675708  1
  H+  H56  1  0.40188665  0.33509680  0.25823874  1
  H+  H57  1  0.60119793  0.71196092  0.00203205  1
  H+  H58  1  0.36756716  0.12538708  0.49942084  1
  H+  H59  1  0.14587031  0.60370012  0.51817025  1
  H+  H60  1  0.63067485  0.76478969  0.33629777  1
  H+  H61  1  0.88701581  0.36268923  0.52860039  1
  H+  H62  1  0.38802582  1.01693862  0.82271719  1
  H+  H63  1  0.27056331  0.95737458  0.05134593  1
  H+  H64  1  0.47650012  0.66235271  0.29676824  1
  H+  H65  1  0.32746502  0.15145929  0.55122380  1
  H+  H66  1  0.36155965  0.90752779  -0.04484613  1
  H+  H67  1  0.26778500  0.11662427  0.33594351  1
  H+  H68  1  0.07690623  0.43851746  0.45024931  1
  H+  H69  1  0.13233405  0.11225948  0.17245119  1
  H+  H70  1  0.85346234  0.35956996  0.01076774  1
  H+  H71  1  0.61651266  0.97705433  0.50601285  1
  H+  H72  1  0.38151355  0.49511695  0.34022217  1
  H+  H73  1  0.38957681  0.01131224  0.49608132  1
  H+  H74  1  0.74444502  0.11933453  0.00619236  1
  H+  H75  1  0.10279026  0.97149076  0.67185731  1
  H+  H76  1  0.75409627  0.44913836  0.39969297  1
  H+  H77  1  0.88156453  0.11301267  0.67257642  1
  H+  H78  1  0.64269962  0.29304898  0.83363440  1
  H+  H79  1  0.93024141  0.04702041  0.94770780  1
  H+  H80  1  0.39406178  0.62189873  0.84349376  1
  H+  H81  1  0.63385055  0.76736042  0.17830647  1
  H+  H82  1  0.42591762  0.76672074  0.98799596  1
  H+  H83  1  0.21489855  0.10918962  0.50296724  1
  H+  H84  1  0.66662497  0.07180615  0.62159831  1
  H+  H85  1  0.64660655  0.63232300  0.17053059  1
  H+  H86  1  0.85033530  0.97962041  0.02097811  1
  H+  H87  1  0.13819328  0.50536308  0.15993177  1
  H+  H88  1  0.88065829  0.76856859  0.33354669  1
  H+  H89  1  0.87739361  0.51678830  0.51864754  1
  H+  H90  1  0.12460271  0.26895683  0.47884922  1
  H+  H91  1  0.14097772  0.87387143  0.50977630  1
  H+  H92  1  0.62967793  0.22543604  0.00180685  1
  H+  H93  1  0.36597484  0.88228881  0.82539596  1
  H+  H94  1  0.17395940  0.66370490  -0.01606283  1
  H+  H95  1  0.96827213  0.35460189  0.99015278  1
  H+  H96  1  0.37526853  0.63206438  0.16185512  1
  H+  H97  1  0.24843345  0.62995041  0.16698502  1
  H+  H98  1  0.63708302  0.77140641  0.65851787  1
  H+  H99  1  0.88122612  0.51082690  0.17704524  1
  H+  H100  1  0.40647692  0.81563205  0.60505194  1
  H+  H101  1  0.74398786  0.35747868  0.18270729  1
  H+  H102  1  0.38195546  0.72593543  0.15751591  1
  H+  H103  1  0.61379500  0.88357177  0.82314080  1
  H+  H104  1  0.42002221  0.02749183  0.96661121  1
  H+  H105  1  0.30970907  0.13304389  -0.09572966  1
  H+  H106  1  0.31021327  0.40205423  0.81171552  1
  H+  H107  1  0.35381880  0.67016044  0.06709957  1
  H+  H108  1  0.08778858  0.86655354  0.82168705  1
  H+  H109  1  0.36315299  0.88304772  0.49905349  1
  H+  H110  1  0.52445766  0.37841855  0.35235722  1
  H+  H111  1  0.36427381  0.63198105  1.00417082  1
  H+  H112  1  0.77859723  0.63450316  0.35584355  1
  H+  H113  1  0.39069206  0.27274226  0.50657635  1
  H+  H114  1  0.25996955  0.60295451  0.68653617  1
  H+  H115  1  0.87220736  0.09692873  0.32944647  1
  H+  H116  1  0.36688850  0.14103578  0.66193082  1
  H+  H117  1  0.83408379  0.40174341  0.10288754  1
  H+  H118  1  0.63806936  0.68779315  0.84318824  1
  H+  H119  1  0.61411694  0.63168326  0.00604395  1
  H+  H120  1  0.89437076  0.77725932  0.17684156  1
  H+  H121  1  0.33242551  0.41057804  0.09636160  1
  H+  H122  1  0.85122625  0.62870483  0.69483183  1
  H+  H123  1  0.09758629  0.86943369  0.34371066  1
  H+  H124  1  0.96107915  0.87314254  0.99927993  1
  H+  H125  1  0.35056086  0.11384787  0.81736641  1
  H+  H126  1  0.64055919  1.00969030  0.17256531  1
  H+  H127  1  0.35221954  0.13020241  0.21115561  1
  H+  H128  1  0.86963269  0.86814300  1.00125289  1
  H+  H129  1  0.08029809  0.38947550  0.79775209  1
  H+  H130  1  0.61156781  0.63538056  0.50534902  1
  H+  H131  1  0.47064291  0.60060864  0.99377546  1
  H+  H132  1  0.46849431  0.83541688  0.82865121  1
  H+  H133  1  0.72211372  0.61128351  0.66977832  1
  H+  H134  1  0.61543611  0.87453911  0.16578447  1
  H+  H135  1  0.26674643  0.04597470  -0.06311571  1
  H+  H136  1  0.85859194  0.64357927  0.51026320  1
  H+  H137  1  0.73086461  0.35275966  0.99467294  1
  H+  H138  1  0.85712814  0.13703473  0.79137100  1
  H+  H139  1  0.10270214  0.97558961  0.49215194  1
  H+  H140  1  0.11663130  0.53196988  0.62908973  1
  H+  H141  1  0.12266336  0.52871753  0.83867493  1
  H+  H142  1  0.10800742  0.73027146  0.67650941  1
  H+  H143  1  0.88577934  0.26107633  0.99052636  1
  H+  H144  1  0.40976710  0.03917431  0.21299176  1
  H+  H145  1  0.38373070  0.62637149  0.32852952  1
  H+  H146  1  0.49646351  0.13750253  0.65314617  1
  H+  H147  1  0.25878454  0.38457830  0.31561242  1
  H+  H148  1  0.63071092  0.00811940  0.67776587  1
  H+  H149  1  0.02267984  0.88939381  0.16772426  1
  H+  H150  1  0.88993059  0.86404385  0.17787642  1
  H+  H151  1  0.90366286  0.51568017  0.91677007  1
  H+  H152  1  0.03987791  0.71620185  0.00443838  1
  H+  H153  1  0.86275778  0.12716688  0.01150412  1
  H+  H154  1  0.88957174  0.40506867  0.69022344  1
  H+  H155  1  0.97529404  0.36281764  0.52168925  1
  H+  H156  1  0.85982900  0.97092486  0.16895965  1
  H+  H157  1  0.01194381  0.63588950  0.68002984  1
  H+  H158  1  0.07429475  0.68097754  0.09290582  1
  H+  H159  1  0.85216569  0.87774335  0.34140828  1
  H+  H160  1  0.48337686  0.19635798  0.60836417  1
  H+  H161  1  0.22984665  0.87667617  0.19098710  1
  H+  H162  1  0.88148164  0.87590224  0.65957263  1
  H+  H163  1  0.04999057  0.43532390  0.18130101  1
  H+  H164  1  0.72147809  0.10499095  0.52918456  1
  H+  H165  1  0.74678321  0.93499034  0.84191661  1
  H+  H166  1  0.61774356  0.88830149  0.49962375  1
  H+  H167  1  0.91628424  0.35150554  0.33595108  1
  H+  H168  1  0.22411816  0.36707925  0.16255898  1
  H+  H169  1  0.40532454  0.83712321  0.11344380  1
  H+  H170  1  0.46212793  0.84164978  0.66489048  1
  H+  H171  1  0.63891967  0.77203811  0.91495707  1
  H+  H172  1  0.20272203  0.10703325  0.98345343  1
  H+  H173  1  0.10313527  0.71042084  0.34242832  1
  H+  H174  1  0.53048110  0.38979740  0.49966449  1
  H+  H175  1  0.22606363  0.86642162  0.84167171  1
  H+  H176  1  0.20677176  0.85119750  0.33100435  1
  H+  H177  1  0.01059600  0.11882135  0.34521059  1
  H+  H178  1  0.61937609  0.88367380  -0.00070305  1
  H+  H179  1  0.33736046  0.70175662  0.67590970  1
  H+  H180  1  0.38290365  0.51287066  0.17209107  1
  H+  H181  1  0.35663205  0.95505866  0.66609802  1
  H+  H182  1  0.86466490  0.89468820  0.49608120  1
  H+  H183  1  0.76578103  0.11717736  0.16378297  1
  H+  H184  1  0.93527268  0.59568201  0.47849064  1
  H+  H185  1  0.52937454  0.62477581  0.35511371  1
  H+  H186  1  0.56396140  0.78752526  0.80420965  1
  H+  H187  1  0.43960194  0.74057565  0.50333217  1
  H+  H188  1  0.34004807  0.03274017  0.32225673  1
  H+  H189  1  0.65580013  0.53459286  -0.02022705  1
  H+  H190  1  0.06620085  0.15140533  0.43522525  1
  H+  H191  1  0.48656215  0.12748909  0.18703289  1
  H+  H192  1  0.44636712  0.32108706  0.82998872  1
  H+  H193  1  0.78774773  0.41306989  0.83483005  1
  H+  H194  1  0.87526890  0.11486112  0.51337391  1
  H+  H195  1  0.85935667  0.98099987  0.49540911  1
  H+  H196  1  0.12683128  0.00532995  0.33537643  1
  H+  H197  1  0.21618116  0.60906703  0.84321950  1
  H+  H198  1  0.10628558  0.14334976  0.00847326  1
  H+  H199  1  0.61011685  0.64069931  0.66955553  1
  H+  H200  1  0.77862850  0.65133484  0.16448551  1
  H+  H201  1  0.52174230  0.63527269  0.49938936  1
  H+  H202  1  0.63779318  0.35699306  0.51232158  1
  H+  H203  1  0.16312009  0.63728995  0.15936905  1
  H+  H204  1  0.26559378  0.38075486  0.47583480  1
  H+  H205  1  0.64458653  0.35849335  -0.01332734  1
  H+  H206  1  0.52389737  0.64403687  0.66201732  1
  H+  H207  1  0.54268941  0.13679181  -0.00348132  1
  H+  H208  1  0.33845960  0.13431784  0.38492380  1
  H+  H209  1  0.86171965  0.63933427  0.16573535  1
  H+  H210  1  0.09866776  0.11801118  0.34980104  1
  H+  H211  1  0.34545621  0.89572947  0.35523824  1
  H+  H212  1  0.01140531  0.87607079  0.34355987  1
  H+  H213  1  0.35448260  0.71711074  0.82964580  1
  H+  H214  1  0.38046031  0.61073750  0.65358556  1
  H+  H215  1  0.15189723  0.79054663  0.16518221  1
  H+  H216  1  0.63929766  0.77500643  0.50824384  1
  H+  H217  1  0.59707450  0.39668270  0.13729052  1
  H+  H218  1  0.95757549  0.32342595  0.17514394  1
  H+  H219  1  0.64016122  0.52764945  0.51436393  1
  H+  H220  1  0.64557811  1.04104708  0.84281472  1
  H+  H221  1  0.71225209  0.82615083  -0.03409070  1
  H+  H222  1  0.23498477  0.37131134  0.68214413  1
  H+  H223  1  0.35003611  0.37773305  0.16127863  1
  H+  H224  1  0.86409134  0.37350904  0.16377131  1
  H+  H225  1  0.11506408  0.89251784  0.16549559  1
  H+  H226  1  0.27795446  0.89034025  0.49774041  1
  H+  H227  1  0.61045634  0.12431684  0.68062907  1
  H+  H228  1  -0.00017698  0.39637698  0.81118361  1
  H+  H229  1  0.69415560  0.45701551  0.11977241  1
  H+  H230  1  0.10478908  0.33813726  0.40246921  1
  H+  H231  1  0.53858398  0.39813075  0.98983584  1
  H+  H232  1  0.35925833  0.47480227  1.00285656  1
  H+  H233  1  0.81685710  0.71624704  0.84446117  1
  H+  H234  1  0.62747490  0.26519746  0.66501336  1
  H+  H235  1  0.72870922  0.86530871  0.50520932  1
  H+  H236  1  0.01650931  0.62026807  0.34441063  1
  H+  H237  1  0.64505543  0.42253678  0.82943091  1
  H+  H238  1  0.21647413  0.85477784  0.66525601  1
  H+  H239  1  0.22536881  0.10680568  0.19109685  1
  H+  H240  1  0.96530416  0.60029793  0.18502840  1
  H+  H241  1  0.88434915  0.78011113  0.51545643  1
  H+  H242  1  0.38588761  0.35944092  0.50102163  1
  H+  H243  1  1.03483584  0.33123961  0.35088424  1
  H+  H244  1  0.54249678  0.66903399  0.85386207  1
  H+  H245  1  0.87473994  0.00972006  0.32731564  1
  H+  H246  1  0.83471748  0.47784850  0.35891601  1
  H+  H247  1  0.15905070  0.44627531  0.68186172  1
  H+  H248  1  0.13989964  0.28716524  0.68065690  1
  H+  H249  1  0.91677434  0.84715552  0.59445811  1
  H+  H250  1  0.68817199  0.90738161  0.89965269  1
  H+  H251  1  0.11233784  0.09084187  0.83616639  1
  H+  H252  1  0.89884350  0.52652841  0.67570131  1
  H+  H253  1  0.21466204  0.10298995  0.65239954  1
  H+  H254  1  0.36908473  0.59817340  0.49708885  1
  H+  H255  1  0.35360545  0.71567395  0.35567435  1
  H+  H256  1  0.85561718  0.24131451  0.50117755  1
  H+  H257  1  0.10570709  0.13559616  0.66383759  1
  H+  H258  1  0.50481320  0.11573431  0.27523317  1
  H+  H259  1  0.52542025  0.14845336  0.81815882  1
  H+  H260  1  0.65937909  0.82290991  0.24067853  1
  H+  H261  1  0.98332928  0.65828110  0.82304798  1
  H+  H262  1  0.41204872  0.54407253  0.83655655  1
  H+  H263  1  0.83556090  0.15620574  0.07407840  1
  H+  H264  1  0.33207782  0.19380580  0.81140421  1
  H+  H265  1  0.66446527  0.36819037  0.20094246  1
  H+  H266  1  0.60479662  0.36431227  0.34717726  1
  H+  H267  1  0.12200975  0.73380267  0.82387918  1
  H+  H268  1  0.18536369  0.33755168  0.76618840  1
  H+  H269  1  0.45032145  0.34861968  0.19623448  1
  H+  H270  1  0.40081308  0.10425223  0.96495438  1
  H+  H271  1  0.76410962  0.12759646  0.69878531  1
  H+  H272  1  0.76728717  0.37806504  0.51733063  1
  H+  H273  1  0.86863917  0.40164867  0.83646996  1
  H+  H274  1  0.10756609  0.85682828  0.99152322  1
  H+  H275  1  0.40543246  0.41810327  0.81816637  1
  H+  H276  1  0.91402691  0.07675526  0.23769738  1
  H+  H277  1  0.94510449  0.84278627  0.83926808  1
  H+  H278  1  0.10297501  0.39373506  0.01452414  1
  H+  H279  1  0.62003194  0.21716382  0.50341383  1
  H+  H280  1  0.26290960  0.68883080  1.01326311  1
  H+  H281  1  0.22691164  0.36779105  0.99897409  1
  H+  H282  1  0.61357985  0.23005472  0.15793740  1
  H+  H283  1  0.12804747  0.85833189  0.66494166  1
  H+  H284  1  0.11862350  0.21583499  0.81522771  1
  H+  H285  1  0.38059928  0.27122578  0.65647883  1
  H+  H286  1  0.98142423  0.11486457  0.99941608  1
  H+  H287  1  0.59944882  0.87626721  0.34779579  1
  H+  H288  1  0.61902560  0.00652658  0.33032914  1
  H+  H289  1  0.71551783  0.85591047  0.33286415  1
  H+  H290  1  0.86053991  0.44281665  0.74634708  1
  H+  H291  1  0.59164352  0.41640316  0.44243144  1
  H+  H292  1  0.06803929  0.42282908  0.06938002  1
  H+  H293  1  0.19137294  0.34827834  0.25272676  1
  H+  H294  1  0.63246165  0.52435281  0.66293982  1
  H+  H295  1  0.36803747  0.39067111  0.66357432  1
  H+  H296  1  0.08428460  0.67114706  0.74144524  1
  H+  H297  1  0.35403523  0.86573583  0.67080194  1
  H+  H298  1  0.84190124  0.67512016  0.41268572  1
  H+  H299  1  0.67021917  0.31161729  0.27896598  1
  H+  H300  1  0.90516787  0.31686537  0.89005125  1
  H+  H301  1  0.27688160  0.13563020  0.06808412  1
  H+  H302  1  0.02004858  0.13772883  0.81898629  1
  H+  H303  1  0.82969635  0.92051915  0.76448730  1
  H+  H304  1  0.74138670  0.62429180  -0.00711391  1
  H+  H305  1  0.38094516  0.27048219  0.34088804  1
  H+  H306  1  0.66663117  0.58591783  0.57513064  1
  H+  H307  1  0.15705763  0.83223652  0.89691045  1
  H+  H308  1  0.87378308  0.27155510  0.82402637  1
  H+  H309  1  0.76818221  0.88327174  0.67051094  1
  H+  H310  1  0.31348975  0.90431093  0.03129747  1
  H+  H311  1  0.29448553  0.18145836  0.05804732  1
  H+  H312  1  0.43726939  0.35484765  0.92504370  1
  H+  H313  1  0.89911244  0.56940711  0.27978555  1
  H+  H314  1  0.38776831  0.52647637  0.64839090  1
  H+  H315  1  0.09209569  0.64543932  0.43319343  1
  H+  H316  1  0.13474580  0.07118614  0.93091642  1
  H+  H317  1  0.10845447  0.23382050  0.01315919  1
  H+  H318  1  -0.05358299  0.67229622  0.03214327  1
  H+  H319  1  0.56670617  0.87867610  0.72925496  1
  H+  H320  1  0.57688644  0.17057548  0.09865851  1
  H+  H321  1  0.40296697  0.58153958  0.56061298  1
  H+  H322  1  0.14881125  0.81870869  0.27159462  1
  H+  H323  1  0.82685166  0.41198255  0.45966562  1
  H+  H324  1  0.86680811  0.24398718  0.17913673  1
  H+  H325  1  0.83842245  0.67752840  0.07198750  1
  H+  H326  1  0.35321451  0.46891048  0.49177353  1
  H+  H327  1  0.58926924  0.66359173  0.41284701  1
  H+  H328  1  0.15230214  0.07357878  0.59492867  1
  H+  H329  1  0.65690703  0.32238485  0.57416542  1
  H+  H330  1  0.08438395  0.16732540  0.10515514  1
  H+  H331  1  0.06611939  0.90756932  0.73093430  1
  H+  H332  1  0.76603752  0.20176852  0.46862596  1
  H+  H333  1  0.33064528  0.93514507  0.13462100  1
  H+  H334  1  0.41549177  0.57979406  0.93263594  1
  H+  H335  1  0.91063000  0.82769522  0.27273378  1
  H+  H336  1  0.86015163  0.12424138  0.16484645  1
  H+  H337  1  0.16894765  0.70859085  0.08008882  1
  H+  H338  1  0.88505904  0.60462082  0.83158250  1
  H+  H339  1  0.58223367  0.16599667  0.73459274  1
  H+  H340  1  0.42769061  0.82310158  0.89318867  1
  H+  H341  1  0.07640621  0.15641260  0.72622337  1
  H+  H342  1  0.80798254  0.64841899  0.75041703  1
  H+  H343  1  0.15121600  0.35138538  0.32426088  1
  H+  H344  1  0.69469271  0.61697150  0.89764247  1
  H+  H345  1  0.15859574  0.34029217  0.94557945  1
  H+  H346  1  0.60767713  0.43570517  0.04308271  1
  H+  H347  1  0.58581200  0.10250714  0.31185941  1
  H+  H348  1  0.11440958  0.48142270  0.72401359  1
  H+  H349  1  0.64805423  0.51703459  0.34550981  1
  H+  H350  1  0.31749637  0.14371454  0.72144434  1
  H+  H351  1  0.41802391  0.33308809  0.59838235  1
  H+  H352  1  0.17913793  0.59381210  0.26359655  1
  H+  H353  1  0.89645838  0.83454179  0.90188436  1
  H+  H354  1  0.89819315  0.10225932  0.87397735  1
  H+  H355  1  0.17641368  0.36227164  0.83491262  1
  H+  H356  1  0.42970146  0.08137953  0.55057460  1
  H+  H357  1  0.67108008  0.83487018  0.60027074  1
  H+  H358  1  0.42673040  0.08247969  0.87838911  1
  H+  H359  1  0.34031321  0.43239406  0.39869849  1
  H+  H360  1  0.66557693  0.06736816  0.23195241  1
  H+  H361  1  0.58853733  0.42751225  0.73503480  1
  H+  H362  1  0.70844100  0.93352007  0.03105827  1
  H+  H363  1  0.62380774  0.35365495  0.66463943  1
  H+  H364  1  0.16746221  0.84021788  0.56780358  1
  H+  H365  1  0.60664205  0.91078830  0.10138680  1
  H+  H366  1  0.67410506  0.34134052  0.89681764  1
  H+  H367  1  0.05879335  0.64715926  0.50052158  1
  H+  H368  1  0.32598696  0.65271635  0.77311675  1
  H+  H369  1  0.19495570  0.08063302  0.83705314  1
  H+  H370  1  0.90334003  0.08578706  0.57312767  1
  H+  H371  1  0.81467617  0.15233437  0.40133356  1
  H+  H372  1  0.63365296  0.10432352  0.52621393  1
  H+  H373  1  0.07288787  0.91950999  0.07027700  1
  H+  H374  1  0.57880343  0.66562251  0.09992174  1
  H+  H375  1  0.07146803  0.90888433  0.43638966  1
  H+  H376  1  0.92085078  0.59084445  0.61684064  1
  H+  H377  1  0.82682846  0.91343068  0.40010777  1
  H+  H378  1  0.33160519  0.90578725  0.76545280  1
  H+  H379  1  0.92488689  0.33319155  0.62288211  1
  H+  H380  1  0.39851779  0.83489804  0.29324409  1
  H+  H381  1  0.41231343  0.57366479  0.23245601  1
  H+  H382  1  0.57970210  0.91434259  0.40784131  1
  H+  H383  1  0.91980836  0.31067990  0.27303594  1
  O2-  O384  1  0.08805463  0.16530038  0.15063053  1
  O2-  O385  1  0.07281415  0.16066559  0.48138210  1
  O2-  O386  1  0.07965578  0.15399630  0.80623360  1
  O2-  O387  1  0.09616999  0.44103598  0.15493799  1
  O2-  O388  1  0.07759066  0.42176222  0.49235594  1
  O2-  O389  1  0.06040022  0.43067371  0.79606885  1
  O2-  O390  1  0.12954206  0.70139485  0.11463638  1
  O2-  O391  1  0.10413714  0.64562080  0.47756048  1
  O2-  O392  1  0.09073552  0.67414402  0.80744788  1
  O2-  O393  1  0.08371624  0.92292713  0.15099965  1
  O2-  O394  1  0.07111372  0.91313840  0.48184801  1
  O2-  O395  1  0.05412105  0.89313029  0.80689239  1
  O2-  O396  1  0.31454765  0.15201939  0.19688660  1
  O2-  O397  1  0.33513810  0.15773046  0.50722905  1
  O2-  O398  1  0.30488165  0.13139368  0.81009199  1
  O2-  O399  1  0.32622776  0.41111196  0.14177886  1
  O2-  O400  1  0.32979990  0.41174306  0.47155609  1
  O2-  O401  1  0.37106383  0.44304822  0.80163878  1
  O2-  O402  1  0.34868022  0.66501623  0.14418527  1
  O2-  O403  1  0.39412299  0.75427912  0.49583780  1
  O2-  O404  1  0.32670406  0.65489423  0.81853725  1
  O2-  O405  1  0.34218541  0.93496980  0.17850228  1
  O2-  O406  1  0.33838899  0.91665313  0.48237412  1
  O2-  O407  1  0.33605622  0.91332178  0.81053379  1
  O2-  O408  1  0.56371979  0.17907994  0.14070593  1
  O2-  O409  1  0.59921493  0.15724606  0.48938695  1
  O2-  O410  1  0.58718876  0.18425691  0.80830137  1
  O2-  O411  1  0.63771424  0.45245903  0.12013777  1
  O2-  O412  1  0.59211847  0.41990876  0.48772804  1
  O2-  O413  1  0.61626609  0.45454436  0.81381648  1
  O2-  O414  1  0.58030531  0.66937600  0.14523204  1
  O2-  O415  1  0.58323201  0.66692096  0.48779930  1
  O2-  O416  1  0.60385035  0.71574984  0.85218627  1
  O2-  O417  1  0.58862838  0.90532312  0.14455556  1
  O2-  O418  1  0.58633340  0.91878427  0.48633105  1
  O2-  O419  1  0.56071067  0.84031991  0.80048550  1
  O2-  O420  1  0.82819469  0.15228504  0.14802596  1
  O2-  O421  1  0.81017069  0.18729024  0.47904507  1
  O2-  O422  1  0.82508238  0.16672398  0.77814707  1
  O2-  O423  1  0.83617614  0.40601610  0.14908451  1
  O2-  O424  1  0.83024326  0.41131075  0.50454776  1
  O2-  O425  1  0.85091599  0.44497989  0.82901517  1
  O2-  O426  1  0.84067709  0.67688556  0.14989157  1
  O2-  O427  1  0.83257311  0.67719087  0.49440986  1
  O2-  O428  1  0.78354436  0.65324401  0.83455734  1
  O2-  O429  1  0.82975335  0.91054811  0.15325268  1
  O2-  O430  1  0.83210583  0.92144176  0.47896756  1
  O2-  O431  1  0.83363470  0.93057048  0.80941177  1
  O2-  O432  1  0.15585452  0.07468256  0.18962966  1
  O2-  O433  1  0.15494661  0.07966704  0.51753603  1
  O2-  O434  1  0.13716517  0.05690272  0.85522989  1
  O2-  O435  1  0.16619366  0.33887713  0.18295528  1
  O2-  O436  1  0.15647539  0.33136643  0.46738350  1
  O2-  O437  1  0.19532876  0.32899858  0.81121071  1
  O2-  O438  1  0.18658552  0.60385044  0.17932370  1
  O2-  O439  1  0.16110626  0.56998795  0.54837240  1
  O2-  O440  1  0.15582685  0.58707810  0.85609437  1
  O2-  O441  1  0.16583101  0.84134065  0.19111264  1
  O2-  O442  1  0.17820959  0.85157086  0.52399913  1
  O2-  O443  1  0.16402681  0.83705596  0.85193231  1
  O2-  O444  1  0.44617451  0.10130596  0.22286847  1
  O2-  O445  1  0.42316992  0.07672948  0.50601497  1
  O2-  O446  1  0.41414194  0.08000001  0.83411948  1
  O2-  O447  1  0.39279350  0.32739330  0.21242521  1
  O2-  O448  1  0.41957743  0.33431386  0.51868992  1
  O2-  O449  1  0.46269645  0.37439561  0.85154681  1
  O2-  O450  1  0.41592788  0.57331964  0.18721506  1
  O2-  O451  1  0.40462424  0.57654310  0.51431977  1
  O2-  O452  1  0.43192519  0.59920321  0.85863420  1
  O2-  O453  1  0.42161945  0.83758725  0.15582125  1
  O2-  O454  1  0.42723683  0.83623886  0.52878641  1
  O2-  O455  1  0.41421535  0.82414540  0.84924768  1
  O2-  O456  1  0.67298698  0.07003070  0.18721464  1
  O2-  O457  1  0.66191867  0.07180226  0.54412475  1
  O2-  O458  1  0.67173266  0.10322163  0.84090489  1
  O2-  O459  1  0.68509452  0.32745673  0.20258518  1
  O2-  O460  1  0.66514014  0.32441080  0.52800792  1
  O2-  O461  1  0.67391787  0.35133107  0.85224768  1
  O2-  O462  1  0.68186111  0.60714187  0.18480775  1
  O2-  O463  1  0.66675167  0.58815834  0.52892029  1
  O2-  O464  1  0.69386671  0.62400520  0.85193223  1
  O2-  O465  1  0.66514767  0.82717908  0.19526232  1
  O2-  O466  1  0.66879771  0.83622124  0.52174596  1
  O2-  O467  1  0.70179437  0.94262591  0.86270823  1
  O2-  O468  1  0.91495067  0.07709660  0.19172490  1
  O2-  O469  1  0.90464319  0.08478942  0.52750267  1
  O2-  O470  1  0.91221151  0.09504178  0.83234092  1
  O2-  O471  1  0.90258738  0.30591012  0.19479988  1
  O2-  O472  1  0.91541905  0.32817662  0.53749269  1
  O2-  O473  1  0.90490520  0.32706234  0.84549049  1
  O2-  O474  1  0.90439069  0.56937235  0.19518625  1
  O2-  O475  1  0.91022078  0.58160727  0.51907800  1
  O2-  O476  1  0.93191032  0.66359073  0.82863823  1
  O2-  O477  1  0.92446377  0.83803597  0.19276620  1
  O2-  O478  1  0.91556168  0.84268764  0.52752758  1
  O2-  O479  1  0.88826033  0.82726216  0.85704499  1
  O2-  O480  1  0.15868107  0.06726666  0.32149726  1
  O2-  O481  1  0.15309420  0.07375469  0.64064425  1
  O2-  O482  1  0.14055548  0.07965913  0.97637133  1
  O2-  O483  1  0.19892874  0.34476332  0.29851410  1
  O2-  O484  1  0.17388310  0.34695990  0.69602357  1
  O2-  O485  1  0.16322492  0.33784707  0.98956020  1
  O2-  O486  1  0.17513488  0.58196035  0.30760520  1
  O2-  O487  1  0.09707502  0.55545096  0.59534940  1
  O2-  O488  1  0.21682964  0.70433120  1.01224808  1
  O2-  O489  1  0.14584612  0.81479232  0.31668522  1
  O2-  O490  1  0.15546379  0.82462609  0.65169160  1
  O2-  O491  1  0.12706640  0.81758025  0.97507470  1
  O2-  O492  1  0.34785129  -0.01404924  0.30606969  1
  O2-  O493  1  0.45056002  0.13932945  0.62663588  1
  O2-  O494  1  0.44564880  0.08877234  0.95667622  1
  O2-  O495  1  0.41588479  0.33235418  0.33047644  1
  O2-  O496  1  0.41483342  0.33210725  0.64385303  1
  O2-  O497  1  0.42846601  0.34892235  0.97040251  1
  O2-  O498  1  0.42697182  0.60757673  0.30855830  1
  O2-  O499  1  0.41266681  0.58626909  0.63235335  1
  O2-  O500  1  0.41041103  0.57300767  0.97830568  1
  O2-  O501  1  0.40051590  0.83580020  0.33750241  1
  O2-  O502  1  0.40102161  0.81256510  0.65033349  1
  O2-  O503  1  0.46804350  0.82036208  0.96582550  1
  O2-  O504  1  0.64651945  0.06583616  0.31177238  1
  O2-  O505  1  0.66564843  0.07064443  0.66721386  1
  O2-  O506  1  0.68081435  0.08446649  0.99140546  1
  O2-  O507  1  0.65102840  0.29913801  0.32223404  1
  O2-  O508  1  0.64668965  0.32036934  0.64388817  1
  O2-  O509  1  0.67190455  0.32390470  0.97550121  1
  O2-  O510  1  0.68246058  0.57854704  0.33537073  1
  O2-  O511  1  0.66408840  0.58506582  0.64890315  1
  O2-  O512  1  0.68313152  0.59781029  0.97345768  1
  O2-  O513  1  0.65412433  0.82364504  0.31901950  1
  O2-  O514  1  0.67057012  0.83469857  0.64566581  1
  O2-  O515  1  0.65321515  0.80775682  0.95365931  1
  O2-  O516  1  0.90566204  0.07107811  0.31298664  1
  O2-  O517  1  0.90775790  0.08322732  0.65112711  1
  O2-  O518  1  0.92185799  0.07651374  0.98198190  1
  O2-  O519  1  0.92720108  0.30825412  0.31802124  1
  O2-  O520  1  0.92759534  0.33798200  0.66764819  1
  O2-  O521  1  0.90913118  0.31866751  0.97214905  1
  O2-  O522  1  0.90264417  0.57092784  0.32476838  1
  O2-  O523  1  0.92429363  0.59096674  0.66121041  1
  O2-  O524  1  0.89262005  0.52458300  0.95896157  1
  O2-  O525  1  0.90785326  0.82908761  0.31798618  1
  O2-  O526  1  0.91544377  0.84789048  0.64225051  1
  O2-  O527  1  0.90146493  0.84232242  0.98268955  1
  O2-  O528  1  0.07735284  0.17269853  0.02763870  1
  O2-  O529  1  0.06854405  0.14820204  0.36400068  1
  O2-  O530  1  0.07666255  0.16562063  0.68153730  1
  O2-  O531  1  0.06334777  0.41459170  0.02501333  1
  O2-  O532  1  0.09581237  0.36074952  0.36308633  1
  O2-  O533  1  0.15379204  0.49762672  0.68888436  1
  O2-  O534  1  -0.00171781  0.66627096  0.02886420  1
  O2-  O535  1  0.07774483  0.64970248  0.35669972  1
  O2-  O536  1  0.07778208  0.66929656  0.69374508  1
  O2-  O537  1  0.06742123  0.91739494  0.02509526  1
  O2-  O538  1  0.07200787  0.90442023  0.35893081  1
  O2-  O539  1  0.06948797  0.90995898  0.68514051  1
  O2-  O540  1  0.30433589  0.10735464  -0.05530785  1
  O2-  O541  1  0.33148676  0.14601783  0.34267875  1
  O2-  O542  1  0.32336289  0.15583610  0.67754214  1
  O2-  O543  1  0.32902914  0.41345359  0.01862694  1
  O2-  O544  1  0.34677723  0.43447925  0.35262143  1
  O2-  O545  1  0.34314720  0.42569006  0.67964283  1
  O2-  O546  1  0.35164044  0.67565862  0.02194301  1
  O2-  O547  1  0.32997731  0.65294232  0.35737558  1
  O2-  O548  1  0.32112253  0.64506980  0.69427714  1
  O2-  O549  1  0.27327603  0.90576542  0.06079723  1
  O2-  O550  1  0.30708263  0.92101570  0.35406452  1
  O2-  O551  1  0.32548509  0.89915869  0.68581534  1
  O2-  O552  1  0.59965111  0.16381700  0.01683699  1
  O2-  O553  1  0.54733110  0.13056557  0.31268689  1
  O2-  O554  1  0.57990454  0.15681835  0.68935843  1
  O2-  O555  1  0.60113198  0.42591682  -0.00141430  1
  O2-  O556  1  0.58567740  0.40301051  0.36432363  1
  O2-  O557  1  0.58159119  0.41823375  0.69044265  1
  O2-  O558  1  0.57682918  0.65447319  0.02109373  1
  O2-  O559  1  0.58980645  0.66062363  0.36698698  1
  O2-  O560  1  0.58211289  0.67487997  0.67986201  1
  O2-  O561  1  0.65257779  0.93239941  0.02706055  1
  O2-  O562  1  0.57215588  0.90955446  0.36260831  1
  O2-  O563  1  0.56957899  0.89716564  0.68596887  1
  O2-  O564  1  0.83467885  0.15820191  0.02776732  1
  O2-  O565  1  0.81232403  0.14563181  0.35651584  1
  O2-  O566  1  0.82701135  0.16313261  0.71121313  1
  O2-  O567  1  0.82612172  0.39156179  0.02845248  1
  O2-  O568  1  0.79039682  0.42763177  0.38355643  1
  O2-  O569  1  0.86364151  0.44114248  0.70137606  1
  O2-  O570  1  0.84424994  0.67731887  0.02672962  1
  O2-  O571  1  0.84195177  0.67046766  0.36755715  1
  O2-  O572  1  0.81369620  0.65198499  0.70582180  1
  O2-  O573  1  0.80589597  0.92106225  0.03360274  1
  O2-  O574  1  0.82159121  0.90880584  0.35485038  1
  O2-  O575  1  0.83015526  0.91504081  0.68585388  1
