# generated using pymatgen
data_H2O
_symmetry_space_group_name_H-M   'P 1'
_cell_length_a   17.99105249
_cell_length_b   17.99181807
_cell_length_c   21.99482836
_cell_angle_alpha   90.00719588
_cell_angle_beta   89.99048535
_cell_angle_gamma   120.02755206
_symmetry_Int_Tables_number   1
_chemical_formula_structural   H2O
_chemical_formula_sum   'H384 O192'
_cell_volume   6163.99364795
_cell_formula_units_Z   192
loop_
 _symmetry_equiv_pos_site_id
 _symmetry_equiv_pos_as_xyz
  1  'x, y, z'
loop_
 _atom_type_symbol
 _atom_type_oxidation_number
  H+  1.0
  O2-  -2.0
loop_
 _atom_site_type_symbol
 _atom_site_label
 _atom_site_symmetry_multiplicity
 _atom_site_fract_x
 _atom_site_fract_y
 _atom_site_fract_z
 _atom_site_occupancy
  H+  H0  1  0.04298280  0.90517807  0.83997638  1
  H+  H1  1  0.70147070  0.83758801  0.99480857  1
  H+  H2  1  0.78207315  0.14501873  0.33348245  1
  H+  H3  1  0.15959271  0.78086582  0.97616666  1
  H+  H4  1  0.11138101  0.38523152  0.83509818  1
  H+  H5  1  0.40159618  0.65236495  0.92666416  1
  H+  H6  1  0.61327122  -0.00286495  0.83593446  1
  H+  H7  1  0.27498966  0.13833746  0.88289465  1
  H+  H8  1  0.09694868  0.45215332  -0.01420884  1
  H+  H9  1  0.62025460  0.86700923  0.49835913  1
  H+  H10  1  0.09737549  0.92993719  0.10346727  1
  H+  H11  1  0.15004647  0.78047660  0.82408267  1
  H+  H12  1  0.62579200  0.39684502  0.01165109  1
  H+  H13  1  0.34451960  -0.07152588  0.73305678  1
  H+  H14  1  0.12577547  0.89384968  0.33309118  1
  H+  H15  1  0.63222162  0.28199644  0.98710339  1
  H+  H16  1  0.72191073  0.36215876  0.66231093  1
  H+  H17  1  0.47662410  0.59648015  0.17899252  1
  H+  H18  1  0.32208282  0.11226448  0.17673325  1
  H+  H19  1  0.63081194  0.85468647  0.66483196  1
  H+  H20  1  0.14470521  0.77624689  0.16544752  1
  H+  H21  1  0.87343218  0.77637146  0.00043299  1
  H+  H22  1  0.37315993  0.35884970  0.16170141  1
  H+  H23  1  0.98942004  0.64207795  0.50476033  1
  H+  H24  1  0.63021763  0.73481677  0.34072658  1
  H+  H25  1  0.13327288  0.25215399  0.50479182  1
  H+  H26  1  0.58831944  0.93146240  0.77625921  1
  H+  H27  1  0.25163290  0.71140292  0.71248156  1
  H+  H28  1  0.39201799  0.36553512  0.85972494  1
  H+  H29  1  0.75152444  0.10674984  0.17273970  1
  H+  H30  1  0.27728127  0.89666018  0.49466315  1
  H+  H31  1  0.12247873  0.35065762  0.33468571  1
  H+  H32  1  0.19243471  0.09801396  0.26945548  1
  H+  H33  1  0.79827783  0.62241629  0.83844953  1
  H+  H34  1  1.01170219  0.88407545  1.02381717  1
  H+  H35  1  0.60573635  0.38540357  0.67677864  1
  H+  H36  1  0.01110924  0.12259973  0.49527438  1
  H+  H37  1  0.39293600  0.86969047  0.99006813  1
  H+  H38  1  1.05447655  0.62875989  0.98707267  1
  H+  H39  1  0.86702757  0.63530175  0.16062039  1
  H+  H40  1  0.12907078  0.89895659  0.83445346  1
  H+  H41  1  0.85736881  0.73656906  0.50413607  1
  H+  H42  1  0.37057369  0.89339939  0.14824345  1
  H+  H43  1  -0.02805223  0.35833525  0.84718821  1
  H+  H44  1  0.01222317  0.37243973  0.34466742  1
  H+  H45  1  0.91872872  0.83905229  0.94377903  1
  H+  H46  1  0.38936200  0.02435661  0.65904901  1
  H+  H47  1  0.98309731  0.86991535  0.32660638  1
  H+  H48  1  0.39409597  0.79397387  0.83969771  1
  H+  H49  1  0.59233223  0.17163916  0.04303429  1
  H+  H50  1  0.65060806  0.80134844  0.85659360  1
  H+  H51  1  0.60291791  0.50910404  0.84722735  1
  H+  H52  1  0.85411993  0.35991105  0.49273643  1
  H+  H53  1  0.70288215  0.11520049  0.83744629  1
  H+  H54  1  0.87908744  0.01881207  0.99145483  1
  H+  H55  1  0.72280311  0.60113572  0.17525783  1
  H+  H56  1  0.11811977  0.09468828  0.97725078  1
  H+  H57  1  0.27911167  0.88623570  0.15291252  1
  H+  H58  1  0.60832889  0.22654316  0.83079822  1
  H+  H59  1  1.03617376  0.14197992  0.16863557  1
  H+  H60  1  1.05006141  0.63893006  0.81864586  1
  H+  H61  1  0.13513416  0.34200949  0.50553850  1
  H+  H62  1  0.86299774  0.46652277  0.66718595  1
  H+  H63  1  0.24122942  0.12187206  0.33257092  1
  H+  H64  1  0.84997800  0.74861363  0.18422471  1
  H+  H65  1  0.60703087  0.60677293  1.00444414  1
  H+  H66  1  0.11074020  0.38054932  0.67506446  1
  H+  H67  1  0.26169483  0.65461595  0.85165068  1
  H+  H68  1  0.39402445  0.60880677  0.58117625  1
  H+  H69  1  0.73589497  0.87086855  0.32874270  1
  H+  H70  1  0.12716561  0.26096626  0.33210233  1
  H+  H71  1  0.86929737  0.14395628  0.33126436  1
  H+  H72  1  0.48177513  0.60185973  0.66627621  1
  H+  H73  1  0.63521346  0.37251729  0.50723148  1
  H+  H74  1  0.40223228  0.22057801  0.35910176  1
  H+  H75  1  0.36063350  0.46175838  0.91343291  1
  H+  H76  1  0.37248422  0.73040642  0.34734032  1
  H+  H77  1  0.38177968  0.10477811  0.86217829  1
  H+  H78  1  0.95913899  0.87832810  0.54258829  1
  H+  H79  1  0.89828793  0.53067818  0.32945498  1
  H+  H80  1  1.02096548  0.62953190  0.66304229  1
  H+  H81  1  0.64258140  0.11272294  0.13548820  1
  H+  H82  1  0.89426213  0.11580589  0.16865598  1
  H+  H83  1  0.28845963  0.64561295  0.11848783  1
  H+  H84  1  0.37261004  0.29775245  0.31412171  1
  H+  H85  1  0.39148337  1.01732400  0.32656651  1
  H+  H86  1  0.89638187  0.51488195  0.83047631  1
  H+  H87  1  0.43609221  0.54572911  1.00677538  1
  H+  H88  1  0.12092802  0.64311692  0.14169877  1
  H+  H89  1  0.49480943  0.37863833  1.00363883  1
  H+  H90  1  0.64266723  0.18161754  0.47875476  1
  H+  H91  1  0.65949021  1.01898278  0.17825904  1
  H+  H92  1  0.89630961  0.62911222  0.51066063  1
  H+  H93  1  0.37256393  0.64637205  0.85481818  1
  H+  H94  1  0.87878090  0.99614260  0.50202717  1
  H+  H95  1  0.89888261  1.02938290  0.17251029  1
  H+  H96  1  0.90042242  0.37052305  0.32987819  1
  H+  H97  1  0.49591716  0.87709601  0.34101386  1
  H+  H98  1  0.53107692  0.88197590  0.15452443  1
  H+  H99  1  0.10410623  0.96044841  0.00878860  1
  H+  H100  1  0.47026079  0.65029624  0.86664747  1
  H+  H101  1  0.54344298  0.63759723  0.48666779  1
  H+  H102  1  0.52497266  0.89040259  0.67784456  1
  H+  H103  1  0.60985743  0.39208923  0.82902645  1
  H+  H104  1  0.42252130  0.32974283  0.55591010  1
  H+  H105  1  0.97329241  0.75854891  0.75769969  1
  H+  H106  1  0.86054563  0.38217173  0.82632478  1
  H+  H107  1  0.87986446  0.24997136  0.51985923  1
  H+  H108  1  0.61304896  0.63061051  0.16158929  1
  H+  H109  1  0.06520808  0.14635018  0.83759724  1
  H+  H110  1  0.02946584  0.85475558  0.47706224  1
  H+  H111  1  0.47052126  0.10982321  0.84331600  1
  H+  H112  1  0.52360018  0.40163218  0.33271065  1
  H+  H113  1  0.74369348  0.64107834  0.01312524  1
  H+  H114  1  0.36609963  1.02220002  0.16760446  1
  H+  H115  1  0.51589658  0.15707743  0.00091225  1
  H+  H116  1  0.62304224  0.98194075  0.34530489  1
  H+  H117  1  0.65075899  0.62107724  0.32925784  1
  H+  H118  1  0.87160866  0.46425770  1.00468257  1
  H+  H119  1  0.36939899  0.48882309  0.84482125  1
  H+  H120  1  0.31548142  0.62293919  0.51989433  1
  H+  H121  1  0.10728433  0.62592296  0.66092024  1
  H+  H122  1  0.36694468  0.12882359  0.49871745  1
  H+  H123  1  0.82202993  0.12717482  0.84498239  1
  H+  H124  1  0.15881793  0.88139581  0.50242405  1
  H+  H125  1  0.31139123  0.39716315  0.40163047  1
  H+  H126  1  0.34506941  0.39349095  0.33191580  1
  H+  H127  1  0.14786621  0.27846409  0.84872930  1
  H+  H128  1  0.11821042  0.63718878  0.34517460  1
  H+  H129  1  0.77240407  0.89261749  0.15792244  1
  H+  H130  1  0.14057961  0.77031125  0.65786325  1
  H+  H131  1  0.65077050  0.88382630  0.83134205  1
  H+  H132  1  0.63062119  0.27576516  0.66584181  1
  H+  H133  1  0.90681833  0.60820852  0.83443389  1
  H+  H134  1  0.03023056  0.64048210  0.33995355  1
  H+  H135  1  0.82511008  0.63292444  0.00400443  1
  H+  H136  1  0.14033353  0.02077831  0.87833736  1
  H+  H137  1  0.42206721  0.40284423  0.99490888  1
  H+  H138  1  0.37215584  0.90201149  0.82098424  1
  H+  H139  1  0.12218961  0.50122654  0.88172026  1
  H+  H140  1  0.13942105  0.27524316  0.17396287  1
  H+  H141  1  0.72450774  0.36977248  0.83794637  1
  H+  H142  1  0.27111538  0.39007918  0.15558052  1
  H+  H143  1  0.78541413  0.39733768  0.33784018  1
  H+  H144  1  0.78379141  0.64140783  0.34509782  1
  H+  H145  1  0.15119134  0.52923138  0.15158258  1
  H+  H146  1  0.06180464  0.53361015  0.51270397  1
  H+  H147  1  0.39737012  0.50777014  0.48439810  1
  H+  H148  1  0.12197809  0.39210780  0.15603970  1
  H+  H149  1  0.91906389  0.79865515  0.84188188  1
  H+  H150  1  0.63910739  0.85607183  0.17136527  1
  H+  H151  1  0.77847189  0.11369954  0.50937407  1
  H+  H152  1  0.90145309  0.10613685  0.66724506  1
  H+  H153  1  0.65605942  0.77568546  0.50963964  1
  H+  H154  1  0.64318015  0.37016264  0.17535414  1
  H+  H155  1  0.77067661  0.61789564  0.65844045  1
  H+  H156  1  0.85812492  0.37566607  0.67230096  1
  H+  H157  1  -0.01742192  0.37105991  0.15321590  1
  H+  H158  1  0.13764437  0.90088447  0.68656611  1
  H+  H159  1  0.87381038  0.12488989  0.50780175  1
  H+  H160  1  0.05929623  0.91609258  0.17095700  1
  H+  H161  1  0.12181810  0.65994247  0.49146090  1
  H+  H162  1  0.12672086  0.36084396  -0.00482554  1
  H+  H163  1  0.61416912  0.24798279  0.49341624  1
  H+  H164  1  0.21137804  0.59802586  0.65059379  1
  H+  H165  1  0.36821184  -0.01008491  0.82395884  1
  H+  H166  1  0.22853571  0.38414151  0.99791534  1
  H+  H167  1  0.02118268  0.37921784  0.67748071  1
  H+  H168  1  0.63221741  0.64028105  0.49580219  1
  H+  H169  1  0.48891657  0.88146680  0.83866291  1
  H+  H170  1  0.35620694  0.46559828  0.66896117  1
  H+  H171  1  0.86631492  0.20888909  0.15563195  1
  H+  H172  1  0.60536595  0.13320623  0.83308057  1
  H+  H173  1  0.96815685  0.33935543  0.51408371  1
  H+  H174  1  0.61416475  0.48046312  0.49160383  1
  H+  H175  1  0.34263871  0.73757477  0.68787735  1
  H+  H176  1  0.16134000  0.79442636  0.50176997  1
  H+  H177  1  0.93534502  0.08247734  0.56382345  1
  H+  H178  1  0.73974632  0.87160756  0.51281404  1
  H+  H179  1  0.38931605  0.10402554  0.32984463  1
  H+  H180  1  0.23559911  0.60920272  0.34197783  1
  H+  H181  1  0.48975824  0.11528961  0.50468413  1
  H+  H182  1  0.31356998  0.52240146  0.59203025  1
  H+  H183  1  0.64231913  0.28264042  0.32470525  1
  H+  H184  1  0.51454085  0.37997563  0.16273766  1
  H+  H185  1  0.38674959  0.36707039  0.63811321  1
  H+  H186  1  0.36867631  0.13583449  0.64177724  1
  H+  H187  1  0.14609327  0.77531026  0.32445330  1
  H+  H188  1  0.28374065  0.14735787  0.07942311  1
  H+  H189  1  0.62139245  0.98347807  0.00053788  1
  H+  H190  1  0.27655714  0.88036612  0.34234999  1
  H+  H191  1  0.12790629  0.98448925  0.33594822  1
  H+  H192  1  0.78056871  0.13274369  0.01138149  1
  H+  H193  1  0.87129178  0.73175676  0.34767116  1
  H+  H194  1  0.24494571  0.63435098  0.48734577  1
  H+  H195  1  0.85497474  0.88573775  0.15713220  1
  H+  H196  1  0.64540174  0.86734927  0.32778053  1
  H+  H197  1  0.85817757  0.22739271  0.83343343  1
  H+  H198  1  0.27054814  0.38960865  0.64086249  1
  H+  H199  1  0.39471099  0.85854778  0.50844178  1
  H+  H200  1  0.90111284  0.87482638  0.84751020  1
  H+  H201  1  0.77616735  0.40015294  0.16210965  1
  H+  H202  1  0.28253030  0.89090158  0.67409725  1
  H+  H203  1  0.64601416  0.12161215  0.98395778  1
  H+  H204  1  0.12730853  0.14222436  0.68058260  1
  H+  H205  1  0.36338587  0.22410440  0.86797920  1
  H+  H206  1  0.47307624  0.36392499  0.65637739  1
  H+  H207  1  0.39284658  0.87018151  0.66370928  1
  H+  H208  1  0.52634193  0.86170200  0.49691372  1
  H+  H209  1  0.63002124  0.51541781  0.17866373  1
  H+  H210  1  0.62055653  0.84743417  -0.00436282  1
  H+  H211  1  0.17448259  0.04219609  0.17148529  1
  H+  H212  1  0.67173354  0.08845854  0.59742573  1
  H+  H213  1  0.88105381  0.97585280  0.82517768  1
  H+  H214  1  0.64764397  0.61760804  0.67234692  1
  H+  H215  1  0.10538623  0.12513684  0.49170191  1
  H+  H216  1  0.38576809  0.74146262  0.97831076  1
  H+  H217  1  0.57415551  0.70220027  0.00997718  1
  H+  H218  1  0.61904856  0.48350790  1.01759159  1
  H+  H219  1  0.89156073  0.26627309  0.66690232  1
  H+  H220  1  0.97680951  0.11074960  0.32539476  1
  H+  H221  1  0.23266007  0.37455552  0.86100680  1
  H+  H222  1  0.40463849  0.61643965  0.33062794  1
  H+  H223  1  0.50111020  0.61970617  0.63559279  1
  H+  H224  1  0.71960664  0.18163180  0.62245629  1
  H+  H225  1  0.88553893  0.59493325  0.64930304  1
  H+  H226  1  0.64046456  0.37053214  0.32704181  1
  H+  H227  1  0.37520711  0.76249585  0.51115661  1
  H+  H228  1  0.24418711  0.12137201  0.01305907  1
  H+  H229  1  0.64128363  0.11307045  0.32275015  1
  H+  H230  1  1.03294221  0.64411933  0.14685143  1
  H+  H231  1  0.77645387  0.60853436  0.80770697  1
  H+  H232  1  0.15838663  0.31922720  0.59692531  1
  H+  H233  1  0.47732369  0.11609541  0.66314496  1
  H+  H234  1  0.26108916  0.12591867  0.64330725  1
  H+  H235  1  0.62491572  0.06765641  0.50254713  1
  H+  H236  1  0.62758960  0.52003060  0.66519301  1
  H+  H237  1  0.93532514  0.11999720  0.83728283  1
  H+  H238  1  0.90883487  0.32396887  0.10677631  1
  H+  H239  1  0.14167477  0.27231066  0.66179405  1
  H+  H240  1  0.61413861  0.97748257  0.67499912  1
  H+  H241  1  0.12650554  0.50562759  0.65659974  1
  H+  H242  1  0.39219700  0.77140222  0.13870417  1
  H+  H243  1  0.17087005  0.63627583  0.95260650  1
  H+  H244  1  0.47968284  0.35887768  0.49562171  1
  H+  H245  1  0.12923277  0.14923593  0.16871042  1
  H+  H246  1  0.87391465  0.87565911  0.52044280  1
  H+  H247  1  0.15483176  0.02426432  0.66893872  1
  H+  H248  1  0.36591465  0.47510281  0.16234454  1
  H+  H249  1  0.89510701  0.27799718  0.32608004  1
  H+  H250  1  0.83758334  0.67992261  0.44254108  1
  H+  H251  1  0.88983798  0.84854107  0.63027406  1
  H+  H252  1  0.37113157  0.12455684  1.01796344  1
  H+  H253  1  0.88106189  0.25474599  0.00244746  1
  H+  H254  1  0.36470058  0.22857404  0.63981524  1
  H+  H255  1  0.93140164  0.61118589  0.98386856  1
  H+  H256  1  0.18500858  0.84173177  0.91912841  1
  H+  H257  1  0.78680206  0.89226328  0.82028211  1
  H+  H258  1  0.51590597  0.38264832  0.83329960  1
  H+  H259  1  0.73225380  0.61324980  0.51275974  1
  H+  H260  1  0.63903637  0.73929646  0.69291359  1
  H+  H261  1  0.60811077  0.14295706  0.68099650  1
  H+  H262  1  0.85216662  0.88721606  0.00517650  1
  H+  H263  1  0.26815542  0.36617222  0.49231619  1
  H+  H264  1  0.10897290  0.45704044  0.35772031  1
  H+  H265  1  0.61384775  0.06936878  1.07268127  1
  H+  H266  1  0.30186756  0.64810983  -0.03172845  1
  H+  H267  1  0.86716499  0.89395711  0.34712648  1
  H+  H268  1  0.28474771  0.89203988  -0.00811872  1
  H+  H269  1  0.10703781  0.44932696  0.49477622  1
  H+  H270  1  0.89492638  0.53219758  0.17148583  1
  H+  H271  1  0.23777910  0.87269321  0.82510848  1
  H+  H272  1  0.63032121  0.98493275  0.51376202  1
  H+  H273  1  0.49391112  0.61894266  0.33154870  1
  H+  H274  1  0.52779743  0.13920553  0.33201917  1
  H+  H275  1  0.37012426  0.88507455  0.34866534  1
  H+  H276  1  0.11174197  0.20640053  0.00249642  1
  H+  H277  1  0.13265583  1.01119241  0.50686930  1
  H+  H278  1  0.89881849  0.61979366  0.33142351  1
  H+  H279  1  0.78544064  0.13153238  0.67499412  1
  H+  H280  1  0.11777798  0.13837319  0.34247236  1
  H+  H281  1  0.61666494  0.48520014  0.33684576  1
  H+  H282  1  0.32581554  0.44540476  0.07182396  1
  H+  H283  1  0.35838286  0.36713735  0.48493837  1
  H+  H284  1  0.86550304  0.39870609  0.15527976  1
  H+  H285  1  0.88735176  0.11193501  0.99428308  1
  H+  H286  1  0.57347802  0.62554445  0.84984979  1
  H+  H287  1  0.01833267  0.12352533  -0.00383601  1
  H+  H288  1  0.83713703  0.15781763  0.73723460  1
  H+  H289  1  0.01076380  0.36578809  0.00381835  1
  H+  H290  1  0.08107855  0.16040371  0.40306303  1
  H+  H291  1  0.82567350  0.66190165  0.10443597  1
  H+  H292  1  0.42322512  0.56508500  0.24091922  1
  H+  H293  1  0.03705028  0.13850592  0.68126585  1
  H+  H294  1  0.83900620  0.92669065  0.44358187  1
  H+  H295  1  0.33869456  0.92021052  0.42753948  1
  H+  H296  1  0.87959979  0.34579603  1.00124884  1
  H+  H297  1  0.39388611  0.07471099  0.23042998  1
  H+  H298  1  0.65930988  0.33855432  0.56876644  1
  H+  H299  1  0.66495067  0.08454084  0.92479747  1
  H+  H300  1  0.58145145  0.41486328  0.10757099  1
  H+  H301  1  0.92542745  0.57448838  0.59279234  1
  H+  H302  1  0.43020873  0.07910796  0.56527598  1
  H+  H303  1  0.41253134  0.59189339  0.45330068  1
  H+  H304  1  0.29087210  0.37479480  0.75555099  1
  H+  H305  1  0.55477947  0.64837501  0.07120864  1
  H+  H306  1  0.35711386  0.67463662  0.06502396  1
  H+  H307  1  0.84972379  0.66893496  0.70345691  1
  H+  H308  1  0.66656360  0.58028330  0.56961743  1
  H+  H309  1  0.09002094  0.91297250  0.42390510  1
  H+  H310  1  0.57693923  0.16879591  0.74251486  1
  H+  H311  1  0.07285106  0.38676166  0.43774522  1
  H+  H312  1  0.57138900  0.41263360  0.73551514  1
  H+  H313  1  0.83376762  0.41126422  0.76413816  1
  H+  H314  1  0.22229021  0.09868289  0.50929067  1
  H+  H315  1  0.61288876  0.71952789  0.16203036  1
  H+  H316  1  0.16553417  0.55491107  0.29228756  1
  H+  H317  1  0.60725072  0.67678838  0.40114808  1
  H+  H318  1  0.11270487  0.66889745  0.04480258  1
  H+  H319  1  0.67532339  0.58577879  0.26985008  1
  H+  H320  1  0.09549786  0.66908762  0.75522337  1
  H+  H321  1  0.72673321  0.36568450  0.99280188  1
  H+  H322  1  0.84048568  0.41585026  0.39801627  1
  H+  H323  1  0.56571092  0.67610183  0.79408365  1
  H+  H324  1  0.68024820  0.34705636  0.23278520  1
  H+  H325  1  0.52951833  0.89758255  0.00402916  1
  H+  H326  1  0.33907085  0.92130436  0.05417242  1
  H+  H327  1  0.39637918  0.79794992  0.20606518  1
  H+  H328  1  0.66226518  0.82360990  0.60706706  1
  H+  H329  1  0.15251070  0.86900607  0.17098837  1
  H+  H330  1  0.68211074  0.60280485  0.84976748  1
  H+  H331  1  0.41757020  0.82814796  0.60842635  1
  H+  H332  1  0.23372052  0.36376400  0.33878833  1
  H+  H333  1  0.20407281  0.60838368  0.19670635  1
  H+  H334  1  0.93211998  0.08004105  0.90277436  1
  H+  H335  1  0.83304946  0.41719465  0.06809693  1
  H+  H336  1  0.40652593  0.35136672  0.25456911  1
  H+  H337  1  0.09913775  0.69123380  0.42977677  1
  H+  H338  1  0.42991079  0.85169262  0.92895133  1
  H+  H339  1  0.86591159  0.98192891  0.34162550  1
  H+  H340  1  0.30691879  0.34421513  0.74907399  1
  H+  H341  1  0.77316746  0.37359379  0.49198256  1
  H+  H342  1  0.91021258  0.32512295  0.90563880  1
  H+  H343  1  0.33886284  0.67022309  0.40614635  1
  H+  H344  1  0.63930322  0.57887255  0.94490459  1
  H+  H345  1  0.17662515  0.83962551  0.60444957  1
  H+  H346  1  0.11517266  0.94061929  0.74521466  1
  H+  H347  1  0.90689318  0.82932620  0.27635493  1
  H+  H348  1  0.58545983  0.42411551  0.42964008  1
  H+  H349  1  0.43412779  0.34531976  0.91543025  1
  H+  H350  1  0.16858657  0.33687884  0.93159197  1
  H+  H351  1  0.32661674  0.13884695  0.75215210  1
  H+  H352  1  0.08406928  0.41917018  0.77726565  1
  H+  H353  1  0.13459101  0.56232353  0.56288632  1
  H+  H354  1  0.30192372  0.67212574  0.78289836  1
  H+  H355  1  0.82253310  0.91896473  0.06226468  1
  H+  H356  1  0.28261006  0.10190682  0.75875140  1
  H+  H357  1  0.66838749  0.34536941  0.89879987  1
  H+  H358  1  0.91252015  0.79177551  0.73614438  1
  H+  H359  1  0.38452245  0.04457171  1.00321874  1
  H+  H360  1  0.34214262  0.15884024  0.41069314  1
  H+  H361  1  0.67593751  0.07979679  0.26719479  1
  H+  H362  1  0.83796328  0.15506322  0.07738888  1
  H+  H363  1  0.58586504  0.17673339  0.39118503  1
  H+  H364  1  0.36552566  0.21732114  0.49591944  1
  H+  H365  1  0.37954360  0.98723271  0.49136767  1
  H+  H366  1  0.79322710  0.77729191  0.21961135  1
  H+  H367  1  0.11004194  0.18712622  0.77446913  1
  H+  H368  1  0.44177026  0.86511634  0.28204859  1
  H+  H369  1  0.67126309  0.83223434  0.23274645  1
  H+  H370  1  0.93858483  0.56979846  0.92242228  1
  H+  H371  1  0.18009882  0.83460874  0.26470049  1
  H+  H372  1  0.59549673  0.91694535  0.40457524  1
  H+  H373  1  0.93057883  0.59389258  0.22975496  1
  H+  H374  1  0.16251377  0.07191452  0.60215991  1
  H+  H375  1  0.36123441  0.26583258  0.17551738  1
  H+  H376  1  0.59414372  0.91687466  0.09804074  1
  H+  H377  1  0.90943342  0.02155872  0.66386270  1
  H+  H378  1  0.09381933  0.41878963  0.09385921  1
  H+  H379  1  0.85559473  0.91025040  0.73258221  1
  H+  H380  1  0.69242430  0.72367461  0.74232523  1
  H+  H381  1  0.92061779  0.08270652  0.26430590  1
  H+  H382  1  0.91563137  0.32176202  0.60539297  1
  H+  H383  1  0.16650877  0.33875378  0.23081319  1
  O2-  O384  1  0.09790728  0.17863141  0.15685057  1
  O2-  O385  1  0.07740995  0.15658330  0.47639946  1
  O2-  O386  1  0.11761591  0.19380451  0.81944669  1
  O2-  O387  1  0.09626778  0.42623050  0.13871129  1
  O2-  O388  1  0.07718367  0.38815459  0.48382335  1
  O2-  O389  1  0.08091268  0.41603177  0.82245888  1
  O2-  O390  1  0.09181956  0.67525833  0.12900977  1
  O2-  O391  1  0.10472713  0.70047336  0.47526448  1
  O2-  O392  1  0.10657776  0.67557211  0.79975637  1
  O2-  O393  1  0.11383071  0.93823591  0.14962845  1
  O2-  O394  1  0.08623941  0.90436220  0.46981141  1
  O2-  O395  1  0.10400740  0.93724015  0.82658575  1
  O2-  O396  1  0.28987704  0.14721390  0.16486535  1
  O2-  O397  1  0.33335223  0.15496981  0.48324365  1
  O2-  O398  1  0.33275554  0.16083220  0.86553235  1
  O2-  O399  1  0.33012285  0.41895816  0.13740866  1
  O2-  O400  1  0.32622996  0.39651107  0.47174776  1
  O2-  O401  1  0.34254515  0.43894698  0.87145933  1
  O2-  O402  1  0.35023408  0.68053255  0.10887931  1
  O2-  O403  1  0.30704361  0.65639565  0.48656157  1
  O2-  O404  1  0.31481231  0.67550465  0.82755980  1
  O2-  O405  1  0.33843069  0.92262509  0.13658833  1
  O2-  O406  1  0.34178861  0.92458702  0.47606310  1
  O2-  O407  1  0.34043563  0.92907116  0.80290271  1
  O2-  O408  1  0.61074201  0.11189102  0.09819544  1
  O2-  O409  1  0.59194475  0.18768225  0.47475770  1
  O2-  O410  1  0.57814530  0.16766364  0.81385793  1
  O2-  O411  1  0.57660734  0.41372407  0.15313890  1
  O2-  O412  1  0.58331499  0.42032072  0.47509459  1
  O2-  O413  1  0.57521096  0.41860910  0.81462159  1
  O2-  O414  1  0.58116953  0.65922851  0.14670209  1
  O2-  O415  1  0.60613263  0.67406673  0.47879175  1
  O2-  O416  1  0.55139098  0.66467501  0.83789997  1
  O2-  O417  1  0.59268022  0.91017571  0.14340628  1
  O2-  O418  1  0.58619070  0.89470432  0.48179052  1
  O2-  O419  1  0.58724771  0.93084175  0.82117101  1
  O2-  O420  1  0.83961318  0.14985421  0.14048837  1
  O2-  O421  1  0.83875539  0.15482731  0.50110563  1
  O2-  O422  1  0.82697795  0.16843826  0.81438480  1
  O2-  O423  1  0.83725866  0.43242303  0.14428311  1
  O2-  O424  1  0.82726659  0.38894400  0.47111847  1
  O2-  O425  1  0.83534253  0.41632727  0.80972046  1
  O2-  O426  1  0.82869682  0.65913424  0.14941762  1
  O2-  O427  1  0.83453857  0.67753835  0.48796945  1
  O2-  O428  1  0.91563874  0.74970855  0.76356487  1
  O2-  O429  1  0.83229185  0.92172268  0.14121807  1
  O2-  O430  1  0.83928087  0.92821041  0.48869649  1
  O2-  O431  1  0.84931732  0.91595986  0.80932264  1
  O2-  O432  1  0.20236495  0.10123361  0.19098141  1
  O2-  O433  1  0.16238648  0.06919770  0.52503325  1
  O2-  O434  1  0.16091009  0.07803690  0.89876258  1
  O2-  O435  1  0.16841983  0.33908512  0.18598614  1
  O2-  O436  1  0.16761903  0.31376546  0.52045976  1
  O2-  O437  1  0.16977699  0.33861495  0.86932192  1
  O2-  O438  1  0.18295025  0.59432751  0.15520078  1
  O2-  O439  1  0.12422640  0.56278550  0.51744264  1
  O2-  O440  1  0.12750455  0.52107377  0.92468849  1
  O2-  O441  1  0.17731835  0.83356909  0.18586734  1
  O2-  O442  1  0.19380459  0.85601014  0.51798573  1
  O2-  O443  1  0.17670755  0.84050361  0.84010733  1
  O2-  O444  1  0.37632020  0.07610453  0.18802198  1
  O2-  O445  1  0.42941330  0.07814372  0.51921400  1
  O2-  O446  1  0.41155217  0.07044589  0.85807311  1
  O2-  O447  1  0.39949176  0.32811382  0.18309923  1
  O2-  O448  1  0.41877396  0.32324032  0.51065108  1
  O2-  O449  1  0.42574592  0.33765620  0.86911267  1
  O2-  O450  1  0.41835783  0.55860172  0.19575385  1
  O2-  O451  1  0.43237953  0.57160662  0.48712447  1
  O2-  O452  1  0.40853710  0.63053970  0.88360931  1
  O2-  O453  1  0.41631672  0.82463494  0.16642017  1
  O2-  O454  1  0.41626234  0.82220656  0.52509378  1
  O2-  O455  1  0.42616623  0.85428759  0.85288093  1
  O2-  O456  1  0.69048001  0.07931635  0.19230549  1
  O2-  O457  1  0.65472708  0.04689374  0.52819686  1
  O2-  O458  1  0.64638628  0.08257831  0.85641859  1
  O2-  O459  1  0.68217138  0.34882853  0.18766273  1
  O2-  O460  1  0.66033477  0.33771794  0.52332238  1
  O2-  O461  1  0.66463641  0.34277353  0.85313364  1
  O2-  O462  1  0.66378256  0.57720600  0.19215995  1
  O2-  O463  1  0.66984893  0.57991876  0.52423705  1
  O2-  O464  1  0.62409501  0.56844387  0.86605619  1
  O2-  O465  1  0.67083302  0.82734683  0.18742528  1
  O2-  O466  1  0.67781636  0.83472480  0.52634348  1
  O2-  O467  1  0.68358418  0.85238200  0.83160433  1
  O2-  O468  1  0.92862433  0.08895541  0.18832066  1
  O2-  O469  1  0.92981678  0.08096559  0.51931722  1
  O2-  O470  1  0.94539159  0.07804192  0.85803512  1
  O2-  O471  1  0.91883625  0.33892855  0.14974345  1
  O2-  O472  1  0.90972421  0.31394395  0.53163805  1
  O2-  O473  1  0.91050335  0.32785429  0.86017008  1
  O2-  O474  1  0.92871845  0.59436824  0.18451752  1
  O2-  O475  1  0.93165894  0.60242347  0.52036796  1
  O2-  O476  1  0.93371835  0.57528895  0.84741616  1
  O2-  O477  1  0.85255300  0.79879146  0.20691253  1
  O2-  O478  1  0.89714563  0.84083791  0.54328395  1
  O2-  O479  1  0.93469320  0.84992085  0.86681802  1
  O2-  O480  1  0.18319341  0.09221868  0.31448699  1
  O2-  O481  1  0.17909677  0.08351150  0.64634807  1
  O2-  O482  1  0.14729651  0.05957669  0.96392719  1
  O2-  O483  1  0.15699650  0.32366625  0.31766519  1
  O2-  O484  1  0.16462945  0.33004119  0.64206689  1
  O2-  O485  1  0.16908257  0.33983480  0.98161177  1
  O2-  O486  1  0.17187788  0.57430890  0.33430330  1
  O2-  O487  1  0.15211847  0.56337702  0.63538393  1
  O2-  O488  1  0.19812683  0.61066327  0.92565592  1
  O2-  O489  1  0.18009925  0.83647789  0.31043402  1
  O2-  O490  1  0.17535033  0.83343878  0.64901986  1
  O2-  O491  1  0.18854620  0.84170100  0.96424244  1
  O2-  O492  1  0.41943153  0.07659084  0.31026491  1
  O2-  O493  1  0.42077309  0.08421975  0.64083139  1
  O2-  O494  1  0.41448335  0.10593932  1.01341678  1
  O2-  O495  1  0.40741638  0.35719930  0.30089220  1
  O2-  O496  1  0.41683065  0.33332126  0.63382301  1
  O2-  O497  1  0.43729713  0.35898320  0.98501740  1
  O2-  O498  1  0.43302999  0.58422634  0.31848677  1
  O2-  O499  1  0.33198897  0.58345467  0.58633495  1
  O2-  O500  1  0.39067980  0.48813984  0.99113947  1
  O2-  O501  1  0.43363399  0.84838453  0.32480171  1
  O2-  O502  1  0.41833989  0.83292846  0.65344317  1
  O2-  O503  1  0.42635041  0.84141462  0.97412432  1
  O2-  O504  1  0.66843181  0.07824368  0.31291835  1
  O2-  O505  1  0.68773085  0.12218330  0.63650998  1
  O2-  O506  1  0.67310295  0.08778998  0.97203100  1
  O2-  O507  1  0.67498740  0.34451173  0.31344066  1
  O2-  O508  1  0.66066240  0.33504553  0.64844370  1
  O2-  O509  1  0.66857078  0.34615121  0.97604660  1
  O2-  O510  1  0.67914900  0.58789297  0.31538036  1
  O2-  O511  1  0.66186070  0.57930075  0.64835487  1
  O2-  O512  1  0.64702397  0.58573595  0.98981249  1
  O2-  O513  1  0.67572182  0.83793425  0.31182123  1
  O2-  O514  1  0.64946060  0.81438893  0.65113572  1
  O2-  O515  1  0.63956205  0.80600509  0.98459606  1
  O2-  O516  1  0.91688176  0.07990460  0.31017586  1
  O2-  O517  1  0.93868025  0.08336058  0.65303155  1
  O2-  O518  1  0.91433926  0.07943978  0.97602684  1
  O2-  O519  1  0.93260269  0.34169194  0.31677078  1
  O2-  O520  1  0.91714058  0.32624323  0.65159000  1
  O2-  O521  1  0.91142743  0.31705950  0.98602278  1
  O2-  O522  1  0.93017362  0.59188768  0.31428234  1
  O2-  O523  1  0.92113671  0.56737250  0.63851009  1
  O2-  O524  1  0.94489509  0.56877282  0.96806655  1
  O2-  O525  1  0.91991963  0.83757906  0.32073354  1
  O2-  O526  1  0.90114938  0.86075287  0.67458831  1
  O2-  O527  1  0.91001505  0.83739960  0.98880001  1
  O2-  O528  1  0.08017242  0.14396644  0.00530121  1
  O2-  O529  1  0.08481919  0.16564167  0.35670902  1
  O2-  O530  1  0.09866829  0.17343408  0.69550056  1
  O2-  O531  1  0.07513127  0.40108225  0.01304597  1
  O2-  O532  1  0.07549031  0.39459738  0.36446541  1
  O2-  O533  1  0.08248757  0.41193534  0.69184003  1
  O2-  O534  1  0.11509941  0.66587986  -0.00010455  1
  O2-  O535  1  0.09198157  0.67293364  0.35492010  1
  O2-  O536  1  0.08365056  0.66230969  0.67558513  1
  O2-  O537  1  0.07236752  0.91317935  0.03782041  1
  O2-  O538  1  0.09569547  0.92322187  0.34992732  1
  O2-  O539  1  0.11673807  0.93977972  0.69987026  1
  O2-  O540  1  0.29751003  0.15691869  0.03587386  1
  O2-  O541  1  0.35008829  0.16525322  0.36465408  1
  O2-  O542  1  0.33327319  0.16435217  0.63289606  1
  O2-  O543  1  0.31367242  0.46318860  0.02885880  1
  O2-  O544  1  0.30278029  0.40260967  0.35603373  1
  O2-  O545  1  0.33416586  0.42863047  0.63329951  1
  O2-  O546  1  0.36348808  0.67629348  -0.02085818  1
  O2-  O547  1  0.34088553  0.66989152  0.36105862  1
  O2-  O548  1  0.29078956  0.68897397  0.70792480  1
  O2-  O549  1  0.34505023  0.92085179  0.00939566  1
  O2-  O550  1  0.33535956  0.91191533  0.36240006  1
  O2-  O551  1  0.34416752  0.92508403  0.68603822  1
  O2-  O552  1  0.58099233  0.18453806  0.00133150  1
  O2-  O553  1  0.58842498  0.17304861  0.34643178  1
  O2-  O554  1  0.57535399  0.16995223  0.69551066  1
  O2-  O555  1  0.59486669  0.42358971  0.03251048  1
  O2-  O556  1  0.58109054  0.42363815  0.35075549  1
  O2-  O557  1  0.57176854  0.41282744  0.68989298  1
  O2-  O558  1  0.54363863  0.64167303  0.02625068  1
  O2-  O559  1  0.60300286  0.67425673  0.35565414  1
  O2-  O560  1  0.63717731  0.69333757  0.72157928  1
  O2-  O561  1  0.58948741  0.92537927  0.02023359  1
  O2-  O562  1  0.59177732  0.91991643  0.35935785  1
  O2-  O563  1  0.58567286  0.92023001  0.69271353  1
  O2-  O564  1  0.84018161  0.16177398  0.02722151  1
  O2-  O565  1  0.84358229  0.17901135  0.34395905  1
  O2-  O566  1  0.84385127  0.15739060  0.69225622  1
  O2-  O567  1  0.83418924  0.40718699  0.02299163  1
  O2-  O568  1  0.84567745  0.42704270  0.35285268  1
  O2-  O569  1  0.82876571  0.40763232  0.68582334  1
  O2-  O570  1  0.80656815  0.66786847  0.02582187  1
  O2-  O571  1  0.84297347  0.67142145  0.36290731  1
  O2-  O572  1  0.83410253  0.64495311  0.66229004  1
  O2-  O573  1  0.81899520  0.91594253  0.01693390  1
  O2-  O574  1  0.83452332  0.92243773  0.35983700  1
  O2-  O575  1  0.85736569  0.90989659  0.68663933  1
