# generated using pymatgen
data_H2O
_symmetry_space_group_name_H-M   'P 1'
_cell_length_a   17.97931986
_cell_length_b   17.98645226
_cell_length_c   21.96762489
_cell_angle_alpha   89.97137823
_cell_angle_beta   90.01922927
_cell_angle_gamma   120.00991555
_symmetry_Int_Tables_number   1
_chemical_formula_structural   H2O
_chemical_formula_sum   'H384 O192'
_cell_volume   6151.61356622
_cell_formula_units_Z   192
loop_
 _symmetry_equiv_pos_site_id
 _symmetry_equiv_pos_as_xyz
  1  'x, y, z'
loop_
 _atom_type_symbol
 _atom_type_oxidation_number
  H+  1.0
  O2-  -2.0
loop_
 _atom_site_type_symbol
 _atom_site_label
 _atom_site_symmetry_multiplicity
 _atom_site_fract_x
 _atom_site_fract_y
 _atom_site_fract_z
 _atom_site_occupancy
  H+  H0  1  0.63432865  0.12189481  0.32547678  1
  H+  H1  1  0.93189009  0.01199080  0.86253133  1
  H+  H2  1  0.39475842  0.39193938  0.65240997  1
  H+  H3  1  0.85368968  0.70690911  0.39372973  1
  H+  H4  1  -0.02348333  0.84611481  0.68526954  1
  H+  H5  1  0.95050652  0.19829978  0.79143351  1
  H+  H6  1  0.34208487  0.36094336  0.49330794  1
  H+  H7  1  0.48454659  0.33540219  0.48349089  1
  H+  H8  1  -0.04201129  0.61845784  -0.00750568  1
  H+  H9  1  0.96691365  0.39282058  0.17246681  1
  H+  H10  1  0.86846589  0.12756135  0.82035097  1
  H+  H11  1  0.34373097  0.91162461  0.06440790  1
  H+  H12  1  0.38562139  0.52122877  0.85153178  1
  H+  H13  1  0.22776254  0.13492404  0.64410495  1
  H+  H14  1  0.63730978  0.36806396  0.65453879  1
  H+  H15  1  0.15878352  0.42724358  0.48256705  1
  H+  H16  1  0.50476316  0.73949211  0.53929100  1
  H+  H17  1  0.44366712  0.55241240  0.67062854  1
  H+  H18  1  0.83297439  0.36644871  0.50683585  1
  H+  H19  1  0.39572217  0.88218427  0.32457786  1
  H+  H20  1  0.10634705  0.64213028  0.66719616  1
  H+  H21  1  0.74589286  0.86587907  0.39863374  1
  H+  H22  1  0.57406186  0.67583797  0.66958109  1
  H+  H23  1  0.65302819  0.87986990  0.01782824  1
  H+  H24  1  0.72749645  0.86046972  0.81285183  1
  H+  H25  1  0.27071857  0.07712750  0.80563653  1
  H+  H26  1  0.27478391  0.36571659  0.32016961  1
  H+  H27  1  1.03434817  0.39637290  0.83998980  1
  H+  H28  1  0.12542534  0.40041375  0.84570453  1
  H+  H29  1  0.14527853  0.61897561  0.32384369  1
  H+  H30  1  0.67908231  0.09166630  0.92520125  1
  H+  H31  1  0.11508074  0.10085787  0.49467769  1
  H+  H32  1  0.19023348  0.14013819  0.31889999  1
  H+  H33  1  0.97202583  0.11582273  0.37830838  1
  H+  H34  1  0.39317477  0.13317927  0.64328453  1
  H+  H35  1  0.52426517  0.12763689  0.81901153  1
  H+  H36  1  0.64461191  0.15693449  0.48372429  1
  H+  H37  1  0.72805371  0.84159901  0.66695215  1
  H+  H38  1  0.98963179  0.25740050  0.10135073  1
  H+  H39  1  0.29093888  0.13760285  0.15688866  1
  H+  H40  1  0.97564839  0.10785837  0.83534950  1
  H+  H41  1  0.25835801  0.86122505  0.47856482  1
  H+  H42  1  0.37186624  0.24721785  0.66726380  1
  H+  H43  1  0.09423693  0.24919119  0.81946027  1
  H+  H44  1  0.61950719  0.99748186  0.15974342  1
  H+  H45  1  0.28198427  0.39262602  0.01734334  1
  H+  H46  1  0.37715797  0.10025379  0.99084619  1
  H+  H47  1  0.27534566  0.40675963  0.66413620  1
  H+  H48  1  0.39718247  0.10117833  0.82775600  1
  H+  H49  1  0.23214066  0.36502906  0.84085872  1
  H+  H50  1  0.41062871  0.29245254  0.99336551  1
  H+  H51  1  0.36051243  0.87277483  0.65102122  1
  H+  H52  1  0.89164420  0.28312349  0.98164950  1
  H+  H53  1  0.48308794  0.17912708  0.47085535  1
  H+  H54  1  0.48230206  0.86908230  0.17217399  1
  H+  H55  1  0.62429250  0.84968887  0.35669325  1
  H+  H56  1  0.14299138  0.37258673  1.00140348  1
  H+  H57  1  0.11200365  0.85590990  0.84092207  1
  H+  H58  1  0.32597925  0.13481694  0.42316933  1
  H+  H59  1  0.72059308  0.60975598  0.83925852  1
  H+  H60  1  0.38829464  0.01264142  0.84267448  1
  H+  H61  1  0.17202963  0.60663650  0.89215167  1
  H+  H62  1  0.47575647  0.12042999  0.64218411  1
  H+  H63  1  1.01299917  0.91499327  0.84343875  1
  H+  H64  1  0.84242141  0.51003296  0.47642621  1
  H+  H65  1  0.84369137  0.04760772  0.32659648  1
  H+  H66  1  0.90022018  0.27595536  0.83061808  1
  H+  H67  1  0.37853943  0.13442556  0.15645743  1
  H+  H68  1  0.61380232  0.75435312  0.82265594  1
  H+  H69  1  0.87405364  0.70836647  0.15053126  1
  H+  H70  1  0.74127500  0.12256350  0.98405866  1
  H+  H71  1  0.73548676  0.12704313  0.17946200  1
  H+  H72  1  0.16161777  0.64158398  0.17245462  1
  H+  H73  1  0.86040232  0.38629295  0.66403482  1
  H+  H74  1  0.63783722  0.37272688  0.16070405  1
  H+  H75  1  0.48384078  0.86698140  0.99133044  1
  H+  H76  1  0.77226067  0.65633112  0.96854106  1
  H+  H77  1  0.37044069  0.63082826  0.49842099  1
  H+  H78  1  0.98194490  0.62074125  0.50835405  1
  H+  H79  1  0.88358893  0.86337989  0.56666223  1
  H+  H80  1  0.11679833  0.73637957  0.49164776  1
  H+  H81  1  0.92223687  0.16536622  0.12553371  1
  H+  H82  1  0.88245760  0.17669462  0.35659096  1
  H+  H83  1  0.61099790  0.84393604  0.82512201  1
  H+  H84  1  0.72470185  0.35422834  0.82996042  1
  H+  H85  1  0.87835158  0.52082681  0.66003524  1
  H+  H86  1  0.61989837  0.98864918  -0.00417093  1
  H+  H87  1  0.85266082  0.62269754  0.82334185  1
  H+  H88  1  0.27751249  0.89859065  0.33217676  1
  H+  H89  1  0.47634030  0.57894676  0.34053750  1
  H+  H90  1  0.60534020  0.62526297  0.82299563  1
  H+  H91  1  0.63875112  0.60648231  0.18051932  1
  H+  H92  1  0.03827740  0.13045003  0.15673903  1
  H+  H93  1  0.15113544  0.78226020  0.16876625  1
  H+  H94  1  0.39795992  0.01166651  0.15636420  1
  H+  H95  1  0.15294874  0.11425883  0.16894159  1
  H+  H96  1  0.22080040  0.62771226  0.65829668  1
  H+  H97  1  0.99898864  0.47125779  0.43629883  1
  H+  H98  1  0.15349398  0.39035109  0.66222005  1
  H+  H99  1  0.35070389  0.67205679  0.43813683  1
  H+  H100  1  0.62071755  0.47938522  0.16903507  1
  H+  H101  1  0.06061863  0.92409995  0.31518254  1
  H+  H102  1  0.40416751  0.12788961  0.29872883  1
  H+  H103  1  0.77479912  0.13649000  0.66698954  1
  H+  H104  1  0.81543651  0.61214387  0.41793644  1
  H+  H105  1  0.62107485  0.65344330  1.01435006  1
  H+  H106  1  0.82533577  0.84848111  0.66660196  1
  H+  H107  1  0.84633754  0.36978793  0.15101390  1
  H+  H108  1  0.95261086  0.84923631  0.42905937  1
  H+  H109  1  0.28402070  0.64924497  0.34502349  1
  H+  H110  1  0.47590932  0.60541873  0.84938722  1
  H+  H111  1  0.00677549  0.90485743  0.01107336  1
  H+  H112  1  0.36391359  0.36135056  0.33321339  1
  H+  H113  1  0.90983490  0.57141680  0.89089487  1
  H+  H114  1  0.06640407  0.19617075  0.75578879  1
  H+  H115  1  0.67058101  0.84536697  0.21868766  1
  H+  H116  1  0.58842905  0.68541281  0.51417788  1
  H+  H117  1  0.14164524  0.84391499  0.56816072  1
  H+  H118  1  0.90348342  0.13978464  0.63631307  1
  H+  H119  1  0.12360536  0.73217983  0.33631358  1
  H+  H120  1  0.11995868  0.87651101  -0.01293963  1
  H+  H121  1  0.15002474  0.53228416  0.31768027  1
  H+  H122  1  0.72323562  0.36320436  0.65027419  1
  H+  H123  1  0.59257172  0.59818304  0.66510125  1
  H+  H124  1  0.63109536  0.14418091  -0.00639920  1
  H+  H125  1  0.86901126  0.49049114  0.32762831  1
  H+  H126  1  0.53835029  0.41610744  0.00602990  1
  H+  H127  1  0.25647635  0.60799226  0.98935730  1
  H+  H128  1  0.81965057  0.95425431  0.80452021  1
  H+  H129  1  0.35929957  0.97017727  -0.00208491  1
  H+  H130  1  0.48349824  0.91228180  0.67696294  1
  H+  H131  1  0.34562999  0.73646091  0.66885812  1
  H+  H132  1  0.10234372  0.64110699  0.82256646  1
  H+  H133  1  0.77515193  0.89118043  0.05996207  1
  H+  H134  1  0.62162645  0.91286841  0.14342994  1
  H+  H135  1  0.53165014  0.38868268  0.82414191  1
  H+  H136  1  1.03665290  0.39661190  0.66959622  1
  H+  H137  1  0.46411279  0.86247814  0.84129067  1
  H+  H138  1  0.38265451  0.64164669  0.01179706  1
  H+  H139  1  0.72211252  0.11096727  0.82608191  1
  H+  H140  1  0.66918458  0.32373531  0.91827142  1
  H+  H141  1  0.39913903  0.77378605  0.17472682  1
  H+  H142  1  0.86336283  0.39007295  0.99506385  1
  H+  H143  1  0.61793868  0.98148026  0.34252530  1
  H+  H144  1  0.37750603  0.88103236  0.00154552  1
  H+  H145  1  0.63443949  0.51958343  0.84140867  1
  H+  H146  1  0.89147859  0.38220118  0.32926725  1
  H+  H147  1  0.10288312  1.00676844  0.49008390  1
  H+  H148  1  0.35209720  0.45425920  0.49625183  1
  H+  H149  1  -0.02199489  0.37526003  -0.01558935  1
  H+  H150  1  0.87143533  0.88378830  0.84777807  1
  H+  H151  1  0.08319394  0.88151920  0.48335473  1
  H+  H152  1  0.89509209  0.62516843  0.52052140  1
  H+  H153  1  0.42715984  0.58163409  0.94450828  1
  H+  H154  1  0.11593174  0.76869403  0.83674480  1
  H+  H155  1  0.37339960  0.63490735  0.16826976  1
  H+  H156  1  0.66559764  0.07476191  0.56817675  1
  H+  H157  1  0.14106331  0.83134176  0.93197449  1
  H+  H158  1  0.58009809  0.82633445  0.51387545  1
  H+  H159  1  0.73125309  0.35914055  0.98096066  1
  H+  H160  1  0.25951149  0.88549358  0.83712688  1
  H+  H161  1  0.12575555  0.25140809  0.66774653  1
  H+  H162  1  0.85633748  0.46607875  0.81860059  1
  H+  H163  1  0.19280958  0.09063361  0.22660674  1
  H+  H164  1  0.51743405  0.88981703  0.49395159  1
  H+  H165  1  0.85421582  0.47533107  -0.00060235  1
  H+  H166  1  0.96725942  0.60478247  0.83048468  1
  H+  H167  1  0.12958250  0.22632407  0.16238451  1
  H+  H168  1  0.61823372  0.23624814  0.32966069  1
  H+  H169  1  0.26984434  0.12349207  0.32774513  1
  H+  H170  1  0.15063637  1.00330711  0.32998330  1
  H+  H171  1  0.30666463  0.16720278  0.00681469  1
  H+  H172  1  0.63364008  0.27721073  0.15623463  1
  H+  H173  1  1.03724207  0.65003425  0.16574212  1
  H+  H174  1  0.60441634  -0.03036392  0.82793449  1
  H+  H175  1  0.83639048  0.92386726  0.49074226  1
  H+  H176  1  0.12542519  0.98012171  0.16083433  1
  H+  H177  1  0.88959175  0.27782638  0.66013255  1
  H+  H178  1  0.33835882  0.98360396  0.50820596  1
  H+  H179  1  0.44080373  0.06941609  0.21416511  1
  H+  H180  1  0.40268964  0.25324405  0.34252569  1
  H+  H181  1  0.39816351  0.52727654  1.00704481  1
  H+  H182  1  0.10179106  0.84802516  0.66334806  1
  H+  H183  1  0.85109344  0.21379238  0.50080563  1
  H+  H184  1  0.37043732  0.37930268  0.17133419  1
  H+  H185  1  0.14972395  0.34235565  0.16505447  1
  H+  H186  1  0.23950209  0.10450922  0.47733957  1
  H+  H187  1  0.96020054  0.35041882  0.49885511  1
  H+  H188  1  0.77144232  0.62447458  0.53796739  1
  H+  H189  1  0.88106873  0.83698440  0.20360314  1
  H+  H190  1  0.23757880  0.00997307  0.89862104  1
  H+  H191  1  0.74394764  0.36873234  0.14913300  1
  H+  H192  1  0.24624475  0.64146012  0.50812953  1
  H+  H193  1  0.05686178  0.91219724  0.78099433  1
  H+  H194  1  0.72855135  0.60770068  0.17796202  1
  H+  H195  1  0.47541237  0.59888469  0.18187605  1
  H+  H196  1  0.39352288  0.28474895  0.84227357  1
  H+  H197  1  0.22644156  0.36313065  0.50971114  1
  H+  H198  1  0.63553495  0.11452040  0.82887779  1
  H+  H199  1  0.72637580  0.12833761  0.32850845  1
  H+  H200  1  0.89813048  0.60144282  0.16859244  1
  H+  H201  1  0.46648102  0.58027701  0.52371519  1
  H+  H202  1  0.86624527  0.25386025  0.34609465  1
  H+  H203  1  0.73561071  0.36619119  0.31531484  1
  H+  H204  1  0.85335142  0.74319716  0.65774466  1
  H+  H205  1  0.87204934  0.61223731  -0.02903575  1
  H+  H206  1  0.74627822  0.43347902  0.47095324  1
  H+  H207  1  0.26368793  0.64488622  0.81588004  1
  H+  H208  1  0.98331530  0.12406174  0.99351925  1
  H+  H209  1  0.62422192  0.03426533  0.66170523  1
  H+  H210  1  0.36896084  0.73955086  0.34763256  1
  H+  H211  1  0.61078174  0.21950843  0.81682335  1
  H+  H212  1  0.40366035  0.26991972  0.18098740  1
  H+  H213  1  0.35640839  0.99358260  0.34646422  1
  H+  H214  1  0.39670032  0.77338983  0.99812874  1
  H+  H215  1  0.15643764  0.87418034  0.16613992  1
  H+  H216  1  0.53545375  0.39817392  0.67742949  1
  H+  H217  1  0.98559190  0.62708384  0.32774684  1
  H+  H218  1  0.15584735  -0.00377301  0.86019253  1
  H+  H219  1  0.07081568  0.16394000  0.39547795  1
  H+  H220  1  0.66439534  0.34429482  0.55490961  1
  H+  H221  1  0.61061185  0.70812940  0.17913329  1
  H+  H222  1  0.64084428  0.12636779  0.64977289  1
  H+  H223  1  0.85071890  0.71868491  0.53785724  1
  H+  H224  1  1.03827827  0.39582421  0.33057949  1
  H+  H225  1  0.00389221  0.47784428  0.47021837  1
  H+  H226  1  0.87515296  0.87475253  1.02024114  1
  H+  H227  1  0.63662334  0.35745142  0.83338813  1
  H+  H228  1  0.83338508  0.86411851  0.40932239  1
  H+  H229  1  0.55675764  0.92031582  0.76852395  1
  H+  H230  1  -0.01346873  0.17164771  0.54962793  1
  H+  H231  1  0.46288099  0.14227360  0.44900777  1
  H+  H232  1  0.12181340  0.29871131  0.52201365  1
  H+  H233  1  0.39648232  0.37381407  0.99465718  1
  H+  H234  1  0.20611229  0.92234690  0.53003945  1
  H+  H235  1  0.72957621  0.61456607  0.34209673  1
  H+  H236  1  0.12129474  0.48135002  -0.00049232  1
  H+  H237  1  0.74314754  0.11721993  0.50013844  1
  H+  H238  1  0.00616285  0.84611606  0.17448616  1
  H+  H239  1  0.87690159  0.79521028  0.98497882  1
  H+  H240  1  0.85061847  0.63106467  0.66726821  1
  H+  H241  1  0.87902007  0.01557782  0.10945838  1
  H+  H242  1  1.01369005  0.63682628  0.67046553  1
  H+  H243  1  0.35367166  0.72852682  0.81988544  1
  H+  H244  1  0.63187202  0.58835898  0.55762405  1
  H+  H245  1  0.12615814  0.15672221  0.00398512  1
  H+  H246  1  -0.00722500  0.14079438  0.64096812  1
  H+  H247  1  0.39311159  0.54804540  0.57474382  1
  H+  H248  1  0.13151718  0.27439434  0.31443430  1
  H+  H249  1  0.10199437  0.51760964  0.15599332  1
  H+  H250  1  0.62705146  0.15170653  0.15174548  1
  H+  H251  1  0.91166932  0.29250448  0.16717952  1
  H+  H252  1  0.34843144  0.23073579  0.50947161  1
  H+  H253  1  0.17492490  0.14492822  0.79712646  1
  H+  H254  1  0.36746243  0.39360782  0.81885938  1
  H+  H255  1  0.64000572  0.25551124  0.98390224  1
  H+  H256  1  0.34117125  -0.01612575  0.65667194  1
  H+  H257  1  0.27603341  0.36883146  0.16739111  1
  H+  H258  1  0.83915855  0.69348916  -0.08581691  1
  H+  H259  1  0.58867825  0.69377206  0.37459213  1
  H+  H260  1  0.31650618  0.08196374  0.49713374  1
  H+  H261  1  0.53369568  0.13843596  0.14285282  1
  H+  H262  1  0.11904658  0.15902126  0.66691217  1
  H+  H263  1  0.39291823  0.77270712  0.50788673  1
  H+  H264  1  0.85486316  0.37625322  0.47640496  1
  H+  H265  1  0.33908453  0.43126047  0.76309545  1
  H+  H266  1  0.63523819  0.00986223  0.50760692  1
  H+  H267  1  0.64817613  0.78922878  1.02715498  1
  H+  H268  1  0.43290438  0.32370400  0.24286206  1
  H+  H269  1  0.08255330  0.75396004  0.01033095  1
  H+  H270  1  0.28936514  0.64404458  0.16346169  1
  H+  H271  1  0.87719891  0.91832844  0.22538343  1
  H+  H272  1  0.61076826  0.23312362  0.66014005  1
  H+  H273  1  0.86379088  0.04385506  0.17387875  1
  H+  H274  1  0.51871290  0.35559211  0.38683678  1
  H+  H275  1  0.38059650  0.85438827  0.49899106  1
  H+  H276  1  0.36562792  0.04934198  0.56728146  1
  H+  H277  1  0.86972384  0.02180579  0.58504324  1
  H+  H278  1  0.82281920  0.64739296  0.09491292  1
  H+  H279  1  0.50986571  0.99139227  0.72008791  1
  H+  H280  1  0.58104137  0.35204161  0.47836519  1
  H+  H281  1  0.66170798  0.29347572  0.49413649  1
  H+  H282  1  0.15070677  0.87214561  0.31762471  1
  H+  H283  1  0.64439939  0.54693727  0.99678756  1
  H+  H284  1  0.60843457  0.61882732  0.35879626  1
  H+  H285  1  0.87683354  0.14823342  -0.00833774  1
  H+  H286  1  0.20360557  0.16843129  0.82361308  1
  H+  H287  1  0.22699831  0.53846999  0.93791036  1
  H+  H288  1  0.58546761  0.66461418  0.11194448  1
  H+  H289  1  0.91071295  0.89154602  0.91545317  1
  H+  H290  1  0.67516834  0.33395146  0.25647423  1
  H+  H291  1  0.42260136  0.84491485  0.26780231  1
  H+  H292  1  0.18210207  0.60129845  0.23156776  1
  H+  H293  1  0.82964913  0.88359251  0.11613418  1
  H+  H294  1  0.56230172  0.63461787  0.76192429  1
  H+  H295  1  0.62967533  0.19404866  0.42216258  1
  H+  H296  1  0.33222383  0.16446179  0.71173410  1
  H+  H297  1  0.13469110  0.45113212  0.41707525  1
  H+  H298  1  0.13379519  0.53555470  0.84226851  1
  H+  H299  1  0.09627341  0.99241102  0.01076914  1
  H+  H300  1  0.84564048  0.16434236  0.72097416  1
  H+  H301  1  0.60001733  0.17644015  0.05216965  1
  H+  H302  1  0.58034664  0.16950296  0.71812475  1
  H+  H303  1  0.82019223  0.40063411  0.08566842  1
  H+  H304  1  0.38416795  0.29719051  0.56507093  1
  H+  H305  1  0.32049661  0.67416385  0.72602480  1
  H+  H306  1  0.08425253  0.68684082  0.10237255  1
  H+  H307  1  0.52627243  0.89589142  0.34052037  1
  H+  H308  1  0.89395038  0.62252331  0.33432972  1
  H+  H309  1  0.57423134  0.62204423  0.46019388  1
  H+  H310  1  0.59219433  0.44222750  0.06743733  1
  H+  H311  1  0.40525237  0.84561025  0.59751557  1
  H+  H312  1  0.07290471  0.66945113  0.76165709  1
  H+  H313  1  0.34939954  0.67043800  0.07008158  1
  H+  H314  1  0.29953701  0.03691235  0.75368367  1
  H+  H315  1  0.42649615  0.34750513  0.89925252  1
  H+  H316  1  0.34175921  0.41330872  0.07652994  1
  H+  H317  1  0.58297754  0.93986682  0.05859360  1
  H+  H318  1  0.18402609  0.36190393  0.60130392  1
  H+  H319  1  0.67540699  0.59201562  0.27994158  1
  H+  H320  1  0.62534032  0.48639841  0.66905776  1
  H+  H321  1  0.17806446  0.33877563  0.90380189  1
  H+  H322  1  0.23515186  0.20474200  0.94098438  1
  H+  H323  1  0.11972794  0.48924208  0.66706645  1
  H+  H324  1  0.81317700  0.17043187  0.43463882  1
  H+  H325  1  0.82153679  0.44307505  0.38728160  1
  H+  H326  1  0.09391262  0.16932957  0.06928315  1
  H+  H327  1  0.82549575  0.40950602  0.72370651  1
  H+  H328  1  -0.00025498  0.79385887  0.73008692  1
  H+  H329  1  0.85565855  -0.01567907  0.36997978  1
  H+  H330  1  0.59677478  0.81316323  0.67503990  1
  H+  H331  1  0.60820477  0.78993079  0.60723470  1
  H+  H332  1  0.16424662  0.55370990  0.49488504  1
  H+  H333  1  0.24966172  0.89627407  0.66116354  1
  H+  H334  1  0.00383057  0.72280729  0.05521614  1
  H+  H335  1  0.66215357  0.80533812  0.31456979  1
  H+  H336  1  0.00816412  0.18593482  0.47550179  1
  H+  H337  1  0.12462478  0.39081330  0.31992494  1
  H+  H338  1  0.20782996  0.10828290  0.92992392  1
  H+  H339  1  0.37082562  0.87909171  0.15458690  1
  H+  H340  1  0.08263367  0.92042877  0.41797000  1
  H+  H341  1  0.65747149  0.59401820  0.93241444  1
  H+  H342  1  0.39976651  0.06695494  0.92865098  1
  H+  H343  1  0.91244437  0.34327878  0.27045296  1
  H+  H344  1  0.92643340  0.33228329  0.60103714  1
  H+  H345  1  0.16427381  0.59744143  0.59738725  1
  H+  H346  1  0.97448605  0.27346601  0.52111535  1
  H+  H347  1  0.12856544  0.65372644  0.49164147  1
  H+  H348  1  0.85963139  0.37872781  0.81708707  1
  H+  H349  1  0.53221637  0.38838097  0.16670831  1
  H+  H350  1  0.11674262  0.76927757  0.65492714  1
  H+  H351  1  0.75526155  0.62430509  0.66443980  1
  H+  H352  1  0.52462442  0.15802957  0.35050295  1
  H+  H353  1  0.32459622  0.90682495  0.42347423  1
  H+  H354  1  0.07155828  0.44161009  0.06133294  1
  H+  H355  1  0.36219528  0.18197531  0.06694652  1
  H+  H356  1  0.46650696  0.40424056  0.60540872  1
  H+  H357  1  0.92428765  0.08608921  0.93457672  1
  H+  H358  1  0.38505785  0.51089814  0.18209116  1
  H+  H359  1  0.82302991  0.66201874  0.77033045  1
  H+  H360  1  0.67272150  0.09902573  0.23679858  1
  H+  H361  1  0.73820611  0.81566729  0.22461723  1
  H+  H362  1  0.91591294  0.33486756  0.88991898  1
  H+  H363  1  0.96363690  0.77570422  0.22749975  1
  H+  H364  1  0.38042653  0.47523912  0.32653524  1
  H+  H365  1  0.14273895  0.28401210  1.00275000  1
  H+  H366  1  0.59486278  0.42241811  0.76609406  1
  H+  H367  1  0.08709283  0.92440007  0.10003004  1
  H+  H368  1  0.17005058  0.32022193  0.24796371  1
  H+  H369  1  0.34667175  0.88140187  0.83687477  1
  H+  H370  1  0.40769354  0.82793681  0.90112326  1
  H+  H371  1  0.18119706  0.83984160  0.25995364  1
  H+  H372  1  0.86118555  0.19193745  0.04854529  1
  H+  H373  1  0.52965112  0.64642199  0.01885997  1
  H+  H374  1  0.58126998  0.91627231  0.43632819  1
  H+  H375  1  0.09308113  0.67506232  0.39696638  1
  H+  H376  1  0.92401794  0.84195399  0.36076282  1
  H+  H377  1  0.42422149  0.56169651  0.27304877  1
  H+  H378  1  0.93280233  0.59494908  0.23351420  1
  H+  H379  1  0.02176399  0.51280466  0.12494544  1
  H+  H380  1  0.15612236  0.09083489  0.59368878  1
  H+  H381  1  0.79126633  0.88129757  0.73202894  1
  H+  H382  1  0.91380998  0.58259031  0.60203665  1
  H+  H383  1  0.28313001  0.88469800  0.15316917  1
  O2-  O384  1  0.09852894  0.16090178  0.14388440  1
  O2-  O385  1  0.01635606  0.21414519  0.51579439  1
  O2-  O386  1  0.04563288  0.20097821  0.79711291  1
  O2-  O387  1  0.04670943  0.47657456  0.13394908  1
  O2-  O388  1  0.14919252  0.46946702  0.45984660  1
  O2-  O389  1  0.09645383  0.43488720  0.84669565  1
  O2-  O390  1  0.09678102  0.68271466  0.14617278  1
  O2-  O391  1  0.09166570  0.67793468  0.47572277  1
  O2-  O392  1  0.06840934  0.66830443  0.80723176  1
  O2-  O393  1  0.09489500  0.91944849  0.14469673  1
  O2-  O394  1  0.05580890  0.90869182  0.45909505  1
  O2-  O395  1  0.06775754  0.92322127  0.82530144  1
  O2-  O396  1  0.35293691  0.17006629  0.14472749  1
  O2-  O397  1  0.30317367  0.12570310  0.47193415  1
  O2-  O398  1  0.31270752  0.09188112  0.77185206  1
  O2-  O399  1  0.33878769  0.40720191  0.15516234  1
  O2-  O400  1  0.31536066  0.39500701  0.48090102  1
  O2-  O401  1  0.33287142  0.42045845  0.80762777  1
  O2-  O402  1  0.35100322  0.67108938  0.15047852  1
  O2-  O403  1  0.35491575  0.67392891  0.48422312  1
  O2-  O404  1  0.32345452  0.67113875  0.80068846  1
  O2-  O405  1  0.34352542  0.91143027  0.13614000  1
  O2-  O406  1  0.31979793  0.89541756  0.46888636  1
  O2-  O407  1  0.32134807  0.91826739  0.82678544  1
  O2-  O408  1  0.59514787  0.17662658  0.13116542  1
  O2-  O409  1  0.66264005  0.20995236  0.46089133  1
  O2-  O410  1  0.58327695  0.15970369  0.80017199  1
  O2-  O411  1  0.59142571  0.42116817  0.14876972  1
  O2-  O412  1  0.53490638  0.35730229  0.45661491  1
  O2-  O413  1  0.59303171  0.41688321  0.81182303  1
  O2-  O414  1  0.58057552  0.65282350  0.15724359  1
  O2-  O415  1  0.57446564  0.62591271  0.50569793  1
  O2-  O416  1  0.57113837  0.65047077  0.80583454  1
  O2-  O417  1  0.58589260  0.93937265  0.14042290  1
  O2-  O418  1  0.57948806  0.91343322  0.48197768  1
  O2-  O419  1  0.56811423  0.91083503  0.81153416  1
  O2-  O420  1  0.93098661  0.22410040  0.11675240  1
  O2-  O421  1  0.81056983  0.15754472  0.47961576  1
  O2-  O422  1  0.88754198  0.17959236  0.79575559  1
  O2-  O423  1  0.81349635  0.39592556  0.13166432  1
  O2-  O424  1  0.79479134  0.47938146  0.44704760  1
  O2-  O425  1  0.82510722  0.40547949  0.80319911  1
  O2-  O426  1  0.83112863  0.64856630  0.13881816  1
  O2-  O427  1  0.82645331  0.66263647  0.51689785  1
  O2-  O428  1  0.82368626  0.65682318  0.81511161  1
  O2-  O429  1  0.84445350  0.86445378  0.20320796  1
  O2-  O430  1  0.86888699  0.93862953  0.52998366  1
  O2-  O431  1  0.79300402  0.89300385  0.79452562  1
  O2-  O432  1  0.18477786  0.08357683  0.18180254  1
  O2-  O433  1  0.14275632  0.06758530  0.50454978  1
  O2-  O434  1  0.21300339  0.04083250  0.87766106  1
  O2-  O435  1  0.17419292  0.31046248  0.18397661  1
  O2-  O436  1  0.17185547  0.35631621  0.52992753  1
  O2-  O437  1  0.17317487  0.33561898  0.85876399  1
  O2-  O438  1  0.18478901  0.60397904  0.18539315  1
  O2-  O439  1  0.18337638  0.61064576  0.51620267  1
  O2-  O440  1  0.15893680  0.59974391  0.84834357  1
  O2-  O441  1  0.18636710  0.84423264  0.18254594  1
  O2-  O442  1  0.15676410  0.86396109  0.52416715  1
  O2-  O443  1  0.14468471  0.82807890  0.85485955  1
  O2-  O444  1  0.43167133  0.07362329  0.17085913  1
  O2-  O445  1  0.32381983  0.02212460  0.53225928  1
  O2-  O446  1  0.42675650  0.07718002  0.85172622  1
  O2-  O447  1  0.43204755  0.32930989  0.19788528  1
  O2-  O448  1  0.38015605  0.29200357  0.52048869  1
  O2-  O449  1  0.42557590  0.34539385  0.85303752  1
  O2-  O450  1  0.41573955  0.57107920  0.19878687  1
  O2-  O451  1  0.40438091  0.56097139  0.53067959  1
  O2-  O452  1  0.42232245  0.57516499  0.87372617  1
  O2-  O453  1  0.42244400  0.83553809  0.18743962  1
  O2-  O454  1  0.41719014  0.83496051  0.51968376  1
  O2-  O455  1  0.40378361  0.83236307  0.85632268  1
  O2-  O456  1  0.67474461  0.09892449  0.19032762  1
  O2-  O457  1  0.66790580  0.07203946  0.52204361  1
  O2-  O458  1  0.66626125  0.08461484  0.84613567  1
  O2-  O459  1  0.66903889  0.33831189  0.17072248  1
  O2-  O460  1  0.66342732  0.34674203  0.50973015  1
  O2-  O461  1  0.66430536  0.32327447  0.84695187  1
  O2-  O462  1  0.67091460  0.57861216  0.19694609  1
  O2-  O463  1  0.66654178  0.56433202  0.57494551  1
  O2-  O464  1  0.65995535  0.58056763  0.85496044  1
  O2-  O465  1  0.67666527  0.79725477  0.23259185  1
  O2-  O466  1  0.56749552  0.77330842  0.53741960  1
  O2-  O467  1  0.64524131  0.81620735  0.83579104  1
  O2-  O468  1  0.90205219  0.06515829  0.13883843  1
  O2-  O469  1  0.82112639  -0.03091768  0.56638395  1
  O2-  O470  1  0.92240874  0.06141248  0.85515932  1
  O2-  O471  1  0.91097842  0.34238190  0.18598869  1
  O2-  O472  1  0.93575772  0.29968867  0.52500012  1
  O2-  O473  1  0.91807391  0.33499854  0.84446549  1
  O2-  O474  1  0.94111807  0.59130762  0.18882637  1
  O2-  O475  1  0.92338713  0.58946601  0.52602620  1
  O2-  O476  1  0.90631123  0.56935998  0.84568583  1
  O2-  O477  1  0.94949727  0.79886197  0.19198260  1
  O2-  O478  1  0.89854300  0.81859442  0.58014593  1
  O2-  O479  1  0.92452694  0.91258078  0.87243149  1
  O2-  O480  1  0.20991911  0.10082634  0.30634652  1
  O2-  O481  1  0.16495835  0.10383046  0.63735367  1
  O2-  O482  1  0.21290393  0.15005426  0.96233358  1
  O2-  O483  1  0.17110519  0.33011665  0.29661987  1
  O2-  O484  1  0.18796227  0.36163336  0.64766045  1
  O2-  O485  1  0.17580671  0.34470812  0.98784429  1
  O2-  O486  1  0.17934290  0.59442758  0.30596737  1
  O2-  O487  1  0.15847066  0.59512857  0.64244033  1
  O2-  O488  1  0.20515900  0.56678294  0.96444215  1
  O2-  O489  1  0.17931313  0.83931656  0.30569445  1
  O2-  O490  1  0.13835621  0.83039925  0.64077889  1
  O2-  O491  1  0.14202723  0.83751165  0.97731883  1
  O2-  O492  1  0.39648929  0.10960405  0.34159527  1
  O2-  O493  1  0.41401742  0.09361880  0.63021060  1
  O2-  O494  1  0.36977927  0.04864495  0.96873012  1
  O2-  O495  1  0.42468910  0.31273005  0.32462064  1
  O2-  O496  1  0.42907982  0.36463509  0.63679796  1
  O2-  O497  1  0.43018937  0.34984185  0.97461557  1
  O2-  O498  1  0.41917180  0.54782310  0.31807748  1
  O2-  O499  1  0.38222120  0.52495150  0.65612993  1
  O2-  O500  1  0.42827079  0.58718332  0.99100389  1
  O2-  O501  1  0.42586239  0.85077019  0.31297414  1
  O2-  O502  1  0.39982951  0.84898134  0.64244384  1
  O2-  O503  1  0.42091997  0.83321800  0.98093351  1
  O2-  O504  1  0.66803439  0.09408954  0.31099406  1
  O2-  O505  1  0.66637423  0.08876290  0.64107799  1
  O2-  O506  1  0.67950689  0.09189415  0.97059609  1
  O2-  O507  1  0.67618979  0.32621203  0.30060955  1
  O2-  O508  1  0.66205490  0.33420319  0.63611437  1
  O2-  O509  1  0.67052002  0.32233085  0.96509948  1
  O2-  O510  1  0.67352641  0.60041583  0.32420858  1
  O2-  O511  1  0.66411856  0.57579509  0.64173604  1
  O2-  O512  1  0.67091757  0.60606232  0.97683036  1
  O2-  O513  1  0.65091118  0.81250323  0.35769634  1
  O2-  O514  1  0.62605918  0.78997723  0.65092893  1
  O2-  O515  1  0.68800275  0.85240319  1.02513769  1
  O2-  O516  1  0.88732247  0.03575872  0.34226227  1
  O2-  O517  1  0.94064623  0.12170567  0.61460911  1
  O2-  O518  1  0.92304175  0.09594645  0.97891329  1
  O2-  O519  1  0.91842846  0.34716339  0.31542922  1
  O2-  O520  1  0.92018419  0.33838507  0.64530172  1
  O2-  O521  1  0.91764725  0.34486302  0.96858854  1
  O2-  O522  1  0.92633701  0.60073902  0.31036569  1
  O2-  O523  1  0.90782091  0.58282720  0.64761709  1
  O2-  O524  1  0.90252264  0.57866908  0.97181964  1
  O2-  O525  1  0.90131550  0.82170296  0.40146013  1
  O2-  O526  1  0.88353430  0.81231615  0.64649147  1
  O2-  O527  1  0.90605884  0.85902643  0.98940647  1
  O2-  O528  1  0.09011128  0.17673157  0.02384215  1
  O2-  O529  1  0.01906870  0.16824849  0.39874791  1
  O2-  O530  1  0.08847613  0.19017249  0.68033501  1
  O2-  O531  1  0.07904656  0.42579036  0.01945212  1
  O2-  O532  1  0.10101926  0.42601276  0.33759570  1
  O2-  O533  1  0.09785122  0.42900594  0.68120907  1
  O2-  O534  1  0.03882509  0.70170253  0.03628067  1
  O2-  O535  1  0.09145912  0.67207111  0.35139116  1
  O2-  O536  1  0.07510378  0.67197541  0.68360055  1
  O2-  O537  1  0.06934490  0.93270478  0.02376080  1
  O2-  O538  1  0.11105236  0.94044982  0.34047852  1
  O2-  O539  1  0.02415130  0.85111013  0.71226309  1
  O2-  O540  1  0.36550063  0.18541004  0.02137701  1
  O2-  O541  1  0.34967579  0.15304907  0.36462952  1
  O2-  O542  1  0.33977626  0.18416866  0.66865329  1
  O2-  O543  1  0.34287310  0.41847503  0.03093651  1
  O2-  O544  1  0.33425201  0.39528601  0.33759496  1
  O2-  O545  1  0.34240744  0.43575646  0.67913166  1
  O2-  O546  1  0.35075685  0.67246919  0.02462362  1
  O2-  O547  1  0.34140402  0.68081632  0.36433908  1
  O2-  O548  1  0.31577698  0.67527998  0.68024950  1
  O2-  O549  1  0.34447758  0.91102900  0.01786954  1
  O2-  O550  1  0.33622075  0.93166043  0.35148822  1
  O2-  O551  1  0.31088400  0.92524131  0.67372894  1
  O2-  O552  1  0.60180239  0.17704488  0.00675737  1
  O2-  O553  1  0.58597657  0.17612976  0.34873603  1
  O2-  O554  1  0.58049387  0.17054367  0.67277878  1
  O2-  O555  1  0.59695662  0.45149257  0.02285827  1
  O2-  O556  1  0.51559370  0.36114142  0.34018196  1
  O2-  O557  1  0.59633350  0.42565403  0.68941154  1
  O2-  O558  1  0.58926507  0.67771946  0.03641825  1
  O2-  O559  1  0.56510590  0.63131235  0.37998134  1
  O2-  O560  1  0.55133724  0.61583796  0.68310832  1
  O2-  O561  1  0.58581666  0.93012064  0.01452853  1
  O2-  O562  1  0.58566745  0.92208036  0.35859126  1
  O2-  O563  1  0.53356350  0.95758045  0.70282208  1
  O2-  O564  1  0.84557110  0.18045365  0.00500882  1
  O2-  O565  1  0.83784550  0.19200045  0.36197429  1
  O2-  O566  1  0.83738939  0.16800031  0.67651352  1
  O2-  O567  1  0.82667898  0.41343374  0.01209699  1
  O2-  O568  1  0.83718584  0.43147325  0.34523661  1
  O2-  O569  1  0.82656584  0.41348950  0.67828944  1
  O2-  O570  1  0.83667738  0.68900958  -0.04121882  1
  O2-  O571  1  0.82994771  0.64655611  0.38048124  1
  O2-  O572  1  0.81827694  0.66044246  0.68114271  1
  O2-  O573  1  0.83570190  0.91406905  0.07759032  1
  O2-  O574  1  0.80595054  0.89997263  0.41484592  1
  O2-  O575  1  0.78913353  0.87422284  0.68289194  1
