# generated using pymatgen
data_H2O
_symmetry_space_group_name_H-M   'P 1'
_cell_length_a   17.98550044
_cell_length_b   17.98672984
_cell_length_c   21.99868006
_cell_angle_alpha   90.01116424
_cell_angle_beta   89.99177781
_cell_angle_gamma   119.99109612
_symmetry_Int_Tables_number   1
_chemical_formula_structural   H2O
_chemical_formula_sum   'H384 O192'
_cell_volume   6163.69220131
_cell_formula_units_Z   192
loop_
 _symmetry_equiv_pos_site_id
 _symmetry_equiv_pos_as_xyz
  1  'x, y, z'
loop_
 _atom_type_symbol
 _atom_type_oxidation_number
  H+  1.0
  O2-  -2.0
loop_
 _atom_site_type_symbol
 _atom_site_label
 _atom_site_symmetry_multiplicity
 _atom_site_fract_x
 _atom_site_fract_y
 _atom_site_fract_z
 _atom_site_occupancy
  H+  H0  1  0.77319502  0.64250012  0.16243184  1
  H+  H1  1  0.76195755  0.38356123  0.51131448  1
  H+  H2  1  0.35558164  0.47330102  0.33543697  1
  H+  H3  1  0.35181669  0.10925180  0.98577977  1
  H+  H4  1  0.86409974  0.22404789  0.33062913  1
  H+  H5  1  -0.02062691  0.60937632  0.66191280  1
  H+  H6  1  0.52345200  0.12727624  0.34182267  1
  H+  H7  1  0.12688287  0.73625364  0.82876397  1
  H+  H8  1  0.84099893  0.92543972  0.06474795  1
  H+  H9  1  0.64028355  0.15335171  0.00794915  1
  H+  H10  1  0.79125881  0.15823156  0.67346314  1
  H+  H11  1  0.82990978  0.18244556  0.48738718  1
  H+  H12  1  0.35688538  0.89621047  0.00717954  1
  H+  H13  1  0.60217899  0.87516721  0.51512962  1
  H+  H14  1  0.88898347  0.77516566  0.99408500  1
  H+  H15  1  0.41209748  0.57206021  0.92664744  1
  H+  H16  1  0.03569002  0.14528292  0.66990604  1
  H+  H17  1  0.89255375  0.02689915  0.32026086  1
  H+  H18  1  -0.00113693  0.12533059  0.50250608  1
  H+  H19  1  0.86094139  0.38663769  0.82514360  1
  H+  H20  1  0.63644626  0.60845134  0.32720002  1
  H+  H21  1  0.61779569  0.97834088  0.32827663  1
  H+  H22  1  0.85933331  0.63144267  0.34017806  1
  H+  H23  1  0.26963225  0.14818829  0.49353854  1
  H+  H24  1  0.11482289  0.72538969  0.67659062  1
  H+  H25  1  0.64041280  0.58941717  0.90639172  1
  H+  H26  1  0.89024395  0.52720425  0.50941265  1
  H+  H27  1  0.72585971  0.09911001  0.82911088  1
  H+  H28  1  0.52798592  0.88780520  0.33106202  1
  H+  H29  1  0.38951348  0.36569609  0.16407955  1
  H+  H30  1  0.52090467  0.60569759  -0.00845034  1
  H+  H31  1  0.98859946  0.12112226  0.99541034  1
  H+  H32  1  0.12990250  0.85745727  0.84115304  1
  H+  H33  1  0.83222824  0.41691671  0.56122460  1
  H+  H34  1  0.58842173  0.44866122  0.51225748  1
  H+  H35  1  0.72525953  0.60923623  0.66412493  1
  H+  H36  1  0.09184761  0.42925626  0.76493470  1
  H+  H37  1  0.60797613  0.71777184  0.33898912  1
  H+  H38  1  0.12082965  0.48733065  0.16955680  1
  H+  H39  1  0.61850496  0.64747280  0.67459094  1
  H+  H40  1  0.61971929  0.98218841  0.68096161  1
  H+  H41  1  0.22073956  0.10434324  0.83001191  1
  H+  H42  1  0.63660581  0.85765685  0.32815407  1
  H+  H43  1  0.90196695  0.28459638  0.17438674  1
  H+  H44  1  0.10843691  0.72593528  1.00773139  1
  H+  H45  1  0.13426146  0.10850035  0.83525141  1
  H+  H46  1  0.36792735  0.63663013  0.49469747  1
  H+  H47  1  0.67406743  -0.01073099  0.97135944  1
  H+  H48  1  0.12298223  0.39036976  0.67765830  1
  H+  H49  1  0.13661795  0.03360964  0.16789405  1
  H+  H50  1  0.27755700  0.39578940  0.15368150  1
  H+  H51  1  0.78432399  0.90546381  1.00382011  1
  H+  H52  1  0.47783662  0.86687240  0.17792532  1
  H+  H53  1  0.14130201  0.11823265  0.32120003  1
  H+  H54  1  0.83894127  0.67843516  0.06507549  1
  H+  H55  1  0.38576852  0.61051605  0.32349633  1
  H+  H56  1  0.76839224  0.38652686  0.66898178  1
  H+  H57  1  0.38622224  0.00369310  0.33753009  1
  H+  H58  1  0.38999679  0.01420546  0.51284755  1
  H+  H59  1  0.30591333  0.03415327  0.93905857  1
  H+  H60  1  0.87433300  0.13366035  0.84427554  1
  H+  H61  1  0.22892228  0.61535919  0.32599803  1
  H+  H62  1  0.38757526  0.52441315  0.83084867  1
  H+  H63  1  1.01767970  0.88054366  0.83040631  1
  H+  H64  1  0.32757378  0.17252255  0.06131575  1
  H+  H65  1  0.35784820  0.97822911  0.67621196  1
  H+  H66  1  0.89731914  0.99707942  0.48986533  1
  H+  H67  1  0.82684277  0.16913188  0.88425471  1
  H+  H68  1  0.65575770  0.06496988  0.98324263  1
  H+  H69  1  0.22698085  0.61282816  0.66376770  1
  H+  H70  1  0.62284887  0.90209952  0.17094867  1
  H+  H71  1  0.50639077  0.17864356  1.01021062  1
  H+  H72  1  0.72501623  0.36016061  0.83888276  1
  H+  H73  1  0.88302662  0.85914436  0.84087872  1
  H+  H74  1  0.59110810  0.49152275  0.01188713  1
  H+  H75  1  0.47951670  0.38923385  0.63169532  1
  H+  H76  1  0.66749392  0.15807134  0.64702881  1
  H+  H77  1  0.02840421  0.14203451  0.33828639  1
  H+  H78  1  0.11791395  0.63659789  0.67631569  1
  H+  H79  1  0.28080671  0.13422321  0.65427390  1
  H+  H80  1  1.01773353  0.88371414  0.67903328  1
  H+  H81  1  0.65776962  0.33141730  0.59739830  1
  H+  H82  1  0.27526306  0.87576569  0.34907519  1
  H+  H83  1  0.77363660  0.37857438  0.33473010  1
  H+  H84  1  0.05049121  0.89225508  0.32527482  1
  H+  H85  1  0.89875980  1.03712542  0.65708373  1
  H+  H86  1  0.70694336  0.60546107  0.85074809  1
  H+  H87  1  0.88893021  0.86551443  0.99200618  1
  H+  H88  1  0.38695901  0.59743745  0.99084872  1
  H+  H89  1  0.97712106  0.36574460  0.32983387  1
  H+  H90  1  0.64400463  0.52352588  0.33359309  1
  H+  H91  1  0.68306785  0.85729795  0.23854359  1
  H+  H92  1  0.36408615  0.46642420  0.99893019  1
  H+  H93  1  0.63632882  0.77413312  0.83407173  1
  H+  H94  1  0.37609489  0.15042185  0.35034499  1
  H+  H95  1  0.86408927  0.39273993  0.16407161  1
  H+  H96  1  0.28303481  0.39548795  0.81702456  1
  H+  H97  1  0.11805201  0.14375655  0.00414848  1
  H+  H98  1  0.22863773  0.87049319  0.17525619  1
  H+  H99  1  0.88411075  0.14667232  0.00648040  1
  H+  H100  1  0.52007815  0.14582982  0.16009252  1
  H+  H101  1  0.87641588  0.51923085  0.84655988  1
  H+  H102  1  0.51216873  0.89401354  0.47178774  1
  H+  H103  1  0.13646887  1.02386107  0.66278360  1
  H+  H104  1  0.37192097  0.71085116  0.00953035  1
  H+  H105  1  0.14239829  0.77031497  0.32733199  1
  H+  H106  1  0.27905717  0.63796681  0.49565655  1
  H+  H107  1  0.62646034  0.26483932  0.50534627  1
  H+  H108  1  0.12644875  0.23258224  0.49833317  1
  H+  H109  1  0.36090392  0.23530367  0.15236503  1
  H+  H110  1  0.17237728  0.58822246  0.57158710  1
  H+  H111  1  0.58804065  0.46282699  0.85730286  1
  H+  H112  1  0.62731539  0.58752147  0.50470135  1
  H+  H113  1  0.87109356  0.64745330  0.00829315  1
  H+  H114  1  0.72834196  0.11305304  0.31802794  1
  H+  H115  1  0.17206877  0.59225227  0.93624833  1
  H+  H116  1  0.86249087  0.62391264  0.67608065  1
  H+  H117  1  0.65975536  0.08310170  0.55800661  1
  H+  H118  1  0.13331497  0.02040093  0.50470886  1
  H+  H119  1  0.77284071  0.38947384  0.16406013  1
  H+  H120  1  0.74091857  0.35840727  0.99537433  1
  H+  H121  1  0.26614185  0.14553476  1.00214044  1
  H+  H122  1  0.22661236  0.61400051  0.17384468  1
  H+  H123  1  0.12183837  0.15275805  0.15955274  1
  H+  H124  1  0.27546860  0.88438337  0.50625067  1
  H+  H125  1  0.26998390  0.14495010  0.15423160  1
  H+  H126  1  0.51756904  0.62845112  0.33383107  1
  H+  H127  1  0.86009892  0.72061254  0.49261364  1
  H+  H128  1  0.87819987  0.75924992  0.33538434  1
  H+  H129  1  0.61975206  0.69443132  0.47899825  1
  H+  H130  1  0.39241226  0.62129488  0.66279898  1
  H+  H131  1  0.03332333  0.40056886  0.82513736  1
  H+  H132  1  0.39007747  0.11287956  0.65218884  1
  H+  H133  1  0.90193163  0.28702665  0.84214660  1
  H+  H134  1  0.39570255  0.27860399  0.98724694  1
  H+  H135  1  0.53076900  0.63301538  0.15175500  1
  H+  H136  1  0.61931543  0.35053465  0.50888793  1
  H+  H137  1  0.32261848  0.41507365  0.39552788  1
  H+  H138  1  0.82903910  0.41289577  0.06973245  1
  H+  H139  1  0.00843404  0.38662368  0.51316358  1
  H+  H140  1  0.88987083  0.61565026  0.50495553  1
  H+  H141  1  0.14127705  0.77571580  0.51016083  1
  H+  H142  1  0.32242616  0.77712772  0.96965758  1
  H+  H143  1  0.55434611  0.40721950  0.71929164  1
  H+  H144  1  0.02869070  0.64094459  0.49410726  1
  H+  H145  1  0.12217746  0.48817371  0.00761323  1
  H+  H146  1  0.48356873  0.37147382  -0.00519446  1
  H+  H147  1  0.71918775  0.59549046  0.50908144  1
  H+  H148  1  0.23155198  0.61675761  0.84161142  1
  H+  H149  1  0.11569121  0.22769461  0.82504581  1
  H+  H150  1  0.60807324  0.48237896  0.67152749  1
  H+  H151  1  0.63315186  0.26876717  0.32803767  1
  H+  H152  1  0.12695058  0.35385196  0.52847740  1
  H+  H153  1  0.39419618  0.53363758  0.65839439  1
  H+  H154  1  0.88607404  0.52904447  0.17325252  1
  H+  H155  1  0.89822547  0.03097555  0.99613731  1
  H+  H156  1  0.13755955  0.52401724  0.66105325  1
  H+  H157  1  0.11823681  0.64204373  0.49614575  1
  H+  H158  1  0.38965149  0.85758550  0.33294408  1
  H+  H159  1  0.72502199  0.85759322  0.33147123  1
  H+  H160  1  0.01969444  0.88846709  0.00438430  1
  H+  H161  1  0.83419923  0.15747721  0.38671825  1
  H+  H162  1  0.61696018  -0.03083061  0.82218754  1
  H+  H163  1  0.09349890  0.18248372  0.09948408  1
  H+  H164  1  0.14115115  0.52558557  0.32499914  1
  H+  H165  1  0.13440212  0.88862744  0.33730304  1
  H+  H166  1  0.61549092  0.13339993  0.82010372  1
  H+  H167  1  0.10785497  0.97039686  0.82841658  1
  H+  H168  1  0.12717640  0.86323711  -0.00515873  1
  H+  H169  1  0.36458415  0.88313393  0.50688439  1
  H+  H170  1  0.12017475  0.23439336  1.00305981  1
  H+  H171  1  0.63827127  0.28066273  0.17231049  1
  H+  H172  1  0.35994779  0.85361471  0.67002476  1
  H+  H173  1  0.17713177  0.34043257  0.71787696  1
  H+  H174  1  0.22718052  0.36565956  0.32366818  1
  H+  H175  1  0.82236038  0.30404714  0.52310957  1
  H+  H176  1  0.61188711  0.64203757  0.83100753  1
  H+  H177  1  0.36217581  0.72306125  0.82827132  1
  H+  H178  1  0.69316043  0.82711822  0.44661859  1
  H+  H179  1  0.86557306  0.38804860  0.01026939  1
  H+  H180  1  0.38734355  0.76222900  0.50814345  1
  H+  H181  1  0.63262811  0.35412284  0.85317300  1
  H+  H182  1  0.64572671  0.78527471  0.66804994  1
  H+  H183  1  -0.01388387  0.12678412  0.16985890  1
  H+  H184  1  0.14947012  1.03414658  0.32069639  1
  H+  H185  1  0.02279589  0.39074765  0.17048938  1
  H+  H186  1  0.61124665  0.23477097  0.66893283  1
  H+  H187  1  0.63963600  0.82840753  -0.00597702  1
  H+  H188  1  0.35526341  0.47829376  0.49157501  1
  H+  H189  1  0.49336289  0.87155398  1.01104568  1
  H+  H190  1  0.11228328  0.64168400  0.16115933  1
  H+  H191  1  0.88741300  0.52672453  -0.00081604  1
  H+  H192  1  0.26987509  0.38907726  0.49529533  1
  H+  H193  1  0.36504012  0.72401530  0.33896220  1
  H+  H194  1  0.72755471  0.86866784  0.83142530  1
  H+  H195  1  0.74548822  0.19129691  0.59824978  1
  H+  H196  1  0.13224828  1.02527360  -0.00999352  1
  H+  H197  1  0.87226129  0.29015788  0.57622998  1
  H+  H198  1  0.35674844  0.13196908  0.81004116  1
  H+  H199  1  0.14351658  0.52967798  0.51231596  1
  H+  H200  1  0.79329488  0.13833270  0.00392061  1
  H+  H201  1  0.87701213  0.98828122  0.15679933  1
  H+  H202  1  0.12354051  0.23580084  0.67663989  1
  H+  H203  1  0.89058561  0.11490681  0.31927046  1
  H+  H204  1  0.36369323  0.63355411  0.82999001  1
  H+  H205  1  0.63695153  0.03001339  0.16669049  1
  H+  H206  1  0.38037040  0.12967468  0.16350170  1
  H+  H207  1  0.94429715  0.84769017  0.36464812  1
  H+  H208  1  0.14236162  0.11580618  0.66089697  1
  H+  H209  1  0.86084498  0.46846648  0.33505821  1
  H+  H210  1  1.02419829  0.89131936  0.16084130  1
  H+  H211  1  0.14629879  0.37007443  -0.00899863  1
  H+  H212  1  0.50628044  0.35546014  0.52279251  1
  H+  H213  1  0.36343493  0.98955445  0.16404076  1
  H+  H214  1  0.46869534  0.82470933  0.54813239  1
  H+  H215  1  0.62708236  0.89656527  0.67898803  1
  H+  H216  1  0.76866667  0.63130393  0.33964838  1
  H+  H217  1  0.33388426  0.66646466  0.10623661  1
  H+  H218  1  0.33443820  0.66402251  0.39797586  1
  H+  H219  1  0.47567683  0.60750706  0.50600518  1
  H+  H220  1  0.11402626  0.89371048  0.16095700  1
  H+  H221  1  0.35021752  0.72135953  0.67903333  1
  H+  H222  1  0.87281421  0.14841676  0.16221921  1
  H+  H223  1  0.93478628  0.09371731  0.56100808  1
  H+  H224  1  0.11943538  0.88589819  0.49292615  1
  H+  H225  1  0.12115941  0.38876377  0.17035735  1
  H+  H226  1  0.62759017  0.28335810  -0.00125577  1
  H+  H227  1  0.07586537  0.91065065  0.73839562  1
  H+  H228  1  0.89894209  0.28338289  0.99344878  1
  H+  H229  1  0.80792778  0.91029890  0.48660109  1
  H+  H230  1  0.70582494  0.79988422  0.46541724  1
  H+  H231  1  0.66840703  0.58219746  0.23323084  1
  H+  H232  1  0.62303331  0.87408683  0.82382098  1
  H+  H233  1  0.11385187  0.63647878  0.33974386  1
  H+  H234  1  0.47189093  0.86166497  0.83578748  1
  H+  H235  1  0.97423791  0.61262354  0.32846030  1
  H+  H236  1  0.34670286  0.97961322  0.00555998  1
  H+  H237  1  0.14227508  0.36859189  0.83586492  1
  H+  H238  1  0.52507157  0.38781340  0.16114105  1
  H+  H239  1  0.13967396  0.78067040  0.17381947  1
  H+  H240  1  0.60100282  0.12836204  0.49392768  1
  H+  H241  1  0.39022187  0.87026094  0.17630273  1
  H+  H242  1  0.87133857  0.89625592  0.15957990  1
  H+  H243  1  0.13652842  0.28482324  0.17089169  1
  H+  H244  1  0.86402402  0.97836687  0.83049841  1
  H+  H245  1  0.37190462  0.21558184  0.63451368  1
  H+  H246  1  0.14221608  0.62188061  -0.00376603  1
  H+  H247  1  0.86389567  0.71245315  0.67688417  1
  H+  H248  1  0.67424638  0.16615806  1.03216147  1
  H+  H249  1  0.13951136  0.53007827  0.83925483  1
  H+  H250  1  0.63894933  0.36981582  0.17403682  1
  H+  H251  1  0.62515352  0.39140419  0.35154083  1
  H+  H252  1  0.90279388  0.86899922  0.50100686  1
  H+  H253  1  0.48218429  0.11636341  0.83196175  1
  H+  H254  1  0.39150319  0.61717623  0.17299014  1
  H+  H255  1  0.89059233  0.36600975  0.66021601  1
  H+  H256  1  0.35791329  0.22757979  0.51455909  1
  H+  H257  1  0.97513990  0.61803499  0.17334132  1
  H+  H258  1  0.09883472  0.67334678  0.76345629  1
  H+  H259  1  0.88559986  0.77577803  0.17488865  1
  H+  H260  1  0.62138230  1.02120852  0.49879388  1
  H+  H261  1  0.90069235  0.28320478  0.66670392  1
  H+  H262  1  0.12310439  0.14175019  0.49193085  1
  H+  H263  1  0.63040849  0.36647139  0.65542280  1
  H+  H264  1  0.39935492  0.28442234  0.32081964  1
  H+  H265  1  0.86284302  0.64445207  0.16260520  1
  H+  H266  1  0.78340050  0.90290903  0.67398098  1
  H+  H267  1  0.98493531  0.37484489  0.99461951  1
  H+  H268  1  0.63884687  0.61001511  0.17137500  1
  H+  H269  1  0.61494632  0.13399914  0.34073649  1
  H+  H270  1  0.74365497  0.89433208  0.17890115  1
  H+  H271  1  0.82394260  0.78283630  0.63076711  1
  H+  H272  1  0.85129487  0.71826644  0.83235818  1
  H+  H273  1  0.90161614  0.12660741  0.65709804  1
  H+  H274  1  0.12762675  0.85672354  0.66476519  1
  H+  H275  1  0.21936330  0.86334326  0.66572718  1
  H+  H276  1  0.47594985  0.61574031  0.83786141  1
  H+  H277  1  0.48065824  0.11270899  0.65839645  1
  H+  H278  1  0.48483240  0.11148106  0.50539581  1
  H+  H279  1  0.37443557  0.35781775  0.31514763  1
  H+  H280  1  0.87342406  0.12560882  0.47799697  1
  H+  H281  1  0.23251022  0.36385505  -0.01052031  1
  H+  H282  1  0.27749160  0.63099557  0.00964236  1
  H+  H283  1  0.87138168  0.90237151  0.67233135  1
  H+  H284  1  0.12346969  0.38806149  0.33805485  1
  H+  H285  1  0.03327952  0.39439911  0.67061333  1
  H+  H286  1  0.21620075  0.86359479  0.99806079  1
  H+  H287  1  0.13242626  0.64207300  0.82842217  1
  H+  H288  1  0.02237583  0.63421017  0.00777807  1
  H+  H289  1  0.92768133  0.34813556  0.89975152  1
  H+  H290  1  0.57111174  0.63816007  0.42309050  1
  H+  H291  1  0.15998409  0.07768087  0.56555936  1
  H+  H292  1  0.16256219  0.08250513  0.92900410  1
  H+  H293  1  0.16635712  0.34163148  0.23332818  1
  H+  H294  1  0.91499660  0.58164609  0.93772228  1
  H+  H295  1  0.42978435  0.03668188  0.27499755  1
  H+  H296  1  0.39969074  0.82602997  0.92454563  1
  H+  H297  1  0.08002972  0.92024645  0.06414573  1
  H+  H298  1  0.57664135  0.90960893  0.10940169  1
  H+  H299  1  0.09137334  0.17548015  0.39666063  1
  H+  H300  1  0.98407252  0.11472325  0.83966803  1
  H+  H301  1  0.82724941  0.41217452  0.76576355  1
  H+  H302  1  0.46181542  0.34494922  0.89880899  1
  H+  H303  1  0.27221776  0.89028256  0.83276446  1
  H+  H304  1  0.91841688  0.83619118  0.23353251  1
  H+  H305  1  0.87343162  0.60529629  0.85007494  1
  H+  H306  1  0.13664048  0.27551309  0.32303143  1
  H+  H307  1  0.60644009  0.79174529  0.52460295  1
  H+  H308  1  0.82817519  0.65926964  0.43442500  1
  H+  H309  1  0.91313451  0.83023639  0.90047265  1
  H+  H310  1  0.15927455  0.82902817  0.90202878  1
  H+  H311  1  0.36851105  0.19799328  0.40829371  1
  H+  H312  1  0.32732238  0.65785501  0.73603150  1
  H+  H313  1  0.84792779  0.18097225  0.10271662  1
  H+  H314  1  0.53021817  0.64907806  0.67439981  1
  H+  H315  1  0.33547307  0.92854760  0.10601212  1
  H+  H316  1  0.41647298  0.58140767  0.26356267  1
  H+  H317  1  0.08326306  0.67110178  0.10168663  1
  H+  H318  1  0.33214668  0.90483635  0.41108193  1
  H+  H319  1  0.92394690  0.58627323  0.60020619  1
  H+  H320  1  0.92939029  0.34265245  0.23592725  1
  H+  H321  1  0.27242453  0.39614054  0.66751802  1
  H+  H322  1  0.60785415  0.14236186  0.15221390  1
  H+  H323  1  0.58226216  0.41172102  0.40795735  1
  H+  H324  1  0.88619435  0.36430878  0.32461857  1
  H+  H325  1  0.57146690  0.15963731  0.43379752  1
  H+  H326  1  0.58966419  0.17125608  0.72576775  1
  H+  H327  1  0.36333455  0.97988912  0.82887561  1
  H+  H328  1  0.66195820  0.33066427  0.26966202  1
  H+  H329  1  0.67502761  0.85704667  0.92794341  1
  H+  H330  1  0.11828333  0.43656371  0.39716659  1
  H+  H331  1  0.17692218  0.83329626  0.26863146  1
  H+  H332  1  0.58699125  0.91216526  0.75855444  1
  H+  H333  1  0.16826292  0.09198872  0.22807912  1
  H+  H334  1  0.08618086  0.16814755  0.76551961  1
  H+  H335  1  0.41086530  0.11474855  0.22719661  1
  H+  H336  1  0.42553223  0.07922671  0.57463282  1
  H+  H337  1  0.09257792  0.42753081  0.06594210  1
  H+  H338  1  0.41002763  0.33021988  0.22531642  1
  H+  H339  1  0.91588984  0.58554904  0.26872203  1
  H+  H340  1  0.41714740  0.09239412  0.88877187  1
  H+  H341  1  0.32508441  0.92205114  0.73782010  1
  H+  H342  1  0.57934749  0.42766418  0.06728565  1
  H+  H343  1  0.08688836  0.66857179  0.39947075  1
  H+  H344  1  0.41545252  0.83202377  0.26917371  1
  H+  H345  1  0.61509259  0.47734608  0.16367435  1
  H+  H346  1  0.39086578  0.52826635  0.16785603  1
  H+  H347  1  0.32729412  0.16188486  0.75216246  1
  H+  H348  1  0.67871834  0.32396469  0.92738038  1
  H+  H349  1  0.09179282  0.91350098  0.43114503  1
  H+  H350  1  0.16561896  0.83314117  0.57096797  1
  H+  H351  1  0.16703188  0.58485592  0.23389501  1
  H+  H352  1  0.16925113  0.33101338  0.58297517  1
  H+  H353  1  0.83758322  0.92500827  0.76852956  1
  H+  H354  1  0.17245644  0.33750264  0.89377690  1
  H+  H355  1  0.36049611  0.39750903  0.65029364  1
  H+  H356  1  0.66781109  0.06141173  0.88617713  1
  H+  H357  1  0.61805731  0.22363291  0.82519998  1
  H+  H358  1  0.36178803  0.72976342  0.16418195  1
  H+  H359  1  0.34131531  0.42815912  0.75750020  1
  H+  H360  1  0.82108603  0.65439949  0.77603716  1
  H+  H361  1  0.55985958  0.20349352  0.07186720  1
  H+  H362  1  0.53121261  0.96117656  0.03984237  1
  H+  H363  1  0.58558594  0.64476405  0.09226824  1
  H+  H364  1  0.92951641  0.08479780  0.90268727  1
  H+  H365  1  0.65905464  0.84693042  0.61189060  1
  H+  H366  1  0.38394616  0.86573108  0.83537748  1
  H+  H367  1  0.84198860  0.17119217  0.73631588  1
  H+  H368  1  0.98561305  0.85865392  0.50378043  1
  H+  H369  1  0.33521372  0.41835842  0.09346439  1
  H+  H370  1  0.36570170  0.37888869  -0.00001000  1
  H+  H371  1  0.66591233  0.08786750  0.26042824  1
  H+  H372  1  0.92615601  0.09152594  0.22894431  1
  H+  H373  1  0.86028317  0.47417063  0.67026662  1
  H+  H374  1  0.72605090  0.12037040  0.16602156  1
  H+  H375  1  0.38139045  0.81842285  0.61061773  1
  H+  H376  1  0.84764016  0.92811012  0.39368900  1
  H+  H377  1  0.02771214  0.34989522  0.45610368  1
  H+  H378  1  0.42298643  0.59147177  0.56869896  1
  H+  H379  1  0.90725892  0.82474931  0.59158764  1
  H+  H380  1  0.85951006  0.88514020  0.33465358  1
  H+  H381  1  0.66538998  0.58218592  0.60426708  1
  H+  H382  1  0.58260525  0.92300115  0.41811973  1
  H+  H383  1  0.58846527  0.67514253  0.76911174  1
  O2-  O384  1  0.09320721  0.18543722  0.14496870  1
  O2-  O385  1  0.09690897  0.17641561  0.47663734  1
  O2-  O386  1  0.08357991  0.16640935  0.81124300  1
  O2-  O387  1  0.08836015  0.42310885  0.15516272  1
  O2-  O388  1  0.05607321  0.39153058  0.48880593  1
  O2-  O389  1  0.09398667  0.43098823  0.81078599  1
  O2-  O390  1  0.08375566  0.67368331  0.14728615  1
  O2-  O391  1  0.08967216  0.67302531  0.47967078  1
  O2-  O392  1  0.10422349  0.67596390  0.81052964  1
  O2-  O393  1  0.08385492  0.92292917  0.14409784  1
  O2-  O394  1  0.08591148  0.91198175  0.47624120  1
  O2-  O395  1  0.07827617  0.90872686  0.81463282  1
  O2-  O396  1  0.32968344  0.17355751  0.13667634  1
  O2-  O397  1  0.32962579  0.18637769  0.48094519  1
  O2-  O398  1  0.31624096  0.15015957  0.79595367  1
  O2-  O399  1  0.33737652  0.42418823  0.13899092  1
  O2-  O400  1  0.32282771  0.42183013  0.47144888  1
  O2-  O401  1  0.34251578  0.43187579  0.80248487  1
  O2-  O402  1  0.33031308  0.66804466  0.15134984  1
  O2-  O403  1  0.33835890  0.66798545  0.47858494  1
  O2-  O404  1  0.32999907  0.66184486  0.81579612  1
  O2-  O405  1  0.33705679  0.92842388  0.15130501  1
  O2-  O406  1  0.33689882  0.91479369  0.49107127  1
  O2-  O407  1  0.33179702  0.91762449  0.81634720  1
  O2-  O408  1  0.57835791  0.17523203  0.14147121  1
  O2-  O409  1  0.56847896  0.15908752  0.47958698  1
  O2-  O410  1  0.58700112  0.16526917  0.80616917  1
  O2-  O411  1  0.58641671  0.41694070  0.14778685  1
  O2-  O412  1  0.55818044  0.38905162  0.49688100  1
  O2-  O413  1  0.57445429  0.40184870  0.86074858  1
  O2-  O414  1  0.58988547  0.65519620  0.13651664  1
  O2-  O415  1  0.57455637  0.63609192  0.46951772  1
  O2-  O416  1  0.58752577  0.67830835  0.81447384  1
  O2-  O417  1  0.58080713  0.92007562  0.15360089  1
  O2-  O418  1  0.57441852  0.92382277  0.46383584  1
  O2-  O419  1  0.58569024  0.90663658  0.80764721  1
  O2-  O420  1  0.84491023  0.18177456  0.14778902  1
  O2-  O421  1  0.83468139  0.14295014  0.45869416  1
  O2-  O422  1  0.83877150  0.16402827  0.84154008  1
  O2-  O423  1  0.83307793  0.42032568  0.14681988  1
  O2-  O424  1  0.82617845  0.41200636  0.51709305  1
  O2-  O425  1  0.82449370  0.41048509  0.81096767  1
  O2-  O426  1  0.83470329  0.67700634  0.14852425  1
  O2-  O427  1  0.82931549  0.65926684  0.48012439  1
  O2-  O428  1  0.81729640  0.65640594  0.82084487  1
  O2-  O429  1  0.84389851  0.92772301  0.14192431  1
  O2-  O430  1  0.86710422  0.93572109  0.47247091  1
  O2-  O431  1  0.82976700  0.91885328  0.81356476  1
  O2-  O432  1  0.16798468  0.09449212  0.18176691  1
  O2-  O433  1  0.15935048  0.08009675  0.52013848  1
  O2-  O434  1  0.16232721  0.07599986  0.85009149  1
  O2-  O435  1  0.16394792  0.34575401  0.18721410  1
  O2-  O436  1  0.16388185  0.32950053  0.53837014  1
  O2-  O437  1  0.17001885  0.33503313  0.84843755  1
  O2-  O438  1  0.16499844  0.58070440  0.18803353  1
  O2-  O439  1  0.17367042  0.58970065  0.52535802  1
  O2-  O440  1  0.16977083  0.59092025  0.85561163  1
  O2-  O441  1  0.16857290  0.84007596  0.19104946  1
  O2-  O442  1  0.17189780  0.83631579  0.52557117  1
  O2-  O443  1  0.16236724  0.82877021  0.85632973  1
  O2-  O444  1  0.41209518  0.10231646  0.18403868  1
  O2-  O445  1  0.42359441  0.07617409  0.52705022  1
  O2-  O446  1  0.42038751  0.08577728  0.84442125  1
  O2-  O447  1  0.41539885  0.33136271  0.17848780  1
  O2-  O448  1  0.42317639  0.28938474  0.58072694  1
  O2-  O449  1  0.48150525  0.34878869  0.85513386  1
  O2-  O450  1  0.42217753  0.58689241  0.18628940  1
  O2-  O451  1  0.41782462  0.58841117  0.52317946  1
  O2-  O452  1  0.41490545  0.58384650  0.85105928  1
  O2-  O453  1  0.41573388  0.83556162  0.19089899  1
  O2-  O454  1  0.41995309  0.82249369  0.52637024  1
  O2-  O455  1  0.41240903  0.83327078  0.85121977  1
  O2-  O456  1  0.66494485  0.09210137  0.17876750  1
  O2-  O457  1  0.64536822  0.08049621  0.51466965  1
  O2-  O458  1  0.66410756  0.06653166  0.84104286  1
  O2-  O459  1  0.67059170  0.33993432  0.18903697  1
  O2-  O460  1  0.65615551  0.32471528  0.52149141  1
  O2-  O461  1  0.66712519  0.32461452  0.85880130  1
  O2-  O462  1  0.67100744  0.58163642  0.18797412  1
  O2-  O463  1  0.66061756  0.56571250  0.52716684  1
  O2-  O464  1  0.64515683  0.58052649  0.86118198  1
  O2-  O465  1  0.69097123  0.88673696  0.19904826  1
  O2-  O466  1  0.59971915  0.83428967  0.54751582  1
  O2-  O467  1  0.66511106  0.83879291  0.84519674  1
  O2-  O468  1  0.92488546  0.09438748  0.18334433  1
  O2-  O469  1  0.93683320  0.08964789  0.51579359  1
  O2-  O470  1  0.92389779  0.08334006  0.85703948  1
  O2-  O471  1  0.93434383  0.34573880  0.18966427  1
  O2-  O472  1  0.82877705  0.25875691  0.54375612  1
  O2-  O473  1  0.92752777  0.34783543  0.85410635  1
  O2-  O474  1  0.91541681  0.58871949  0.18964525  1
  O2-  O475  1  0.92369834  0.58901390  0.52070034  1
  O2-  O476  1  0.90570833  0.57721592  0.86467479  1
  O2-  O477  1  0.91891124  0.83788106  0.18900497  1
  O2-  O478  1  0.92413066  0.83144019  0.51791733  1
  O2-  O479  1  0.91283629  0.82827487  0.85449494  1
  O2-  O480  1  0.17040616  0.09029805  0.30109221  1
  O2-  O481  1  0.16749609  0.08140449  0.64378679  1
  O2-  O482  1  0.16290587  0.08574804  0.97456015  1
  O2-  O483  1  0.16541342  0.33638734  0.30734131  1
  O2-  O484  1  0.16917732  0.34039442  0.67386499  1
  O2-  O485  1  0.17139758  0.33633431  0.97419939  1
  O2-  O486  1  0.16837664  0.58598702  0.30998780  1
  O2-  O487  1  0.16678632  0.58605046  0.64678936  1
  O2-  O488  1  0.17534436  0.59367285  0.98159303  1
  O2-  O489  1  0.17837583  0.83192789  0.31427747  1
  O2-  O490  1  0.15924314  0.82783383  0.64966685  1
  O2-  O491  1  0.15787260  0.83248566  0.97987646  1
  O2-  O492  1  0.41943425  0.05791644  0.31297306  1
  O2-  O493  1  0.42073439  0.07896316  0.64216611  1
  O2-  O494  1  0.35946362  0.06378938  0.96203367  1
  O2-  O495  1  0.40462065  0.33192889  0.29436536  1
  O2-  O496  1  0.42933312  0.36947418  0.60402640  1
  O2-  O497  1  0.42610537  0.33839124  0.97186643  1
  O2-  O498  1  0.41549824  0.57946171  0.30926042  1
  O2-  O499  1  0.42741460  0.59633458  0.64686336  1
  O2-  O500  1  0.41472101  0.56736572  0.97216541  1
  O2-  O501  1  0.42023382  0.82953662  0.31446528  1
  O2-  O502  1  0.38453413  0.81808094  0.65509278  1
  O2-  O503  1  0.38437724  0.81673935  0.96956114  1
  O2-  O504  1  0.66618198  0.08319589  0.30560842  1
  O2-  O505  1  0.71112293  0.14555018  0.62858953  1
  O2-  O506  1  0.69196637  0.04917307  0.95967591  1
  O2-  O507  1  0.66487015  0.32979504  0.31487804  1
  O2-  O508  1  0.66233087  0.33673702  0.64312105  1
  O2-  O509  1  0.68406870  0.31670030  0.97350585  1
  O2-  O510  1  0.67104575  0.58218676  0.31368103  1
  O2-  O511  1  0.66501813  0.58627982  0.64980789  1
  O2-  O512  1  0.61821815  0.58700864  0.97955782  1
  O2-  O513  1  0.66476177  0.82386219  0.31657963  1
  O2-  O514  1  0.67691505  0.84743046  0.65498453  1
  O2-  O515  1  0.68127970  0.87780646  0.97042114  1
  O2-  O516  1  0.92526842  0.08769402  0.30628514  1
  O2-  O517  1  0.93025917  0.09626183  0.63986037  1
  O2-  O518  1  0.92791897  0.09132860  0.97938477  1
  O2-  O519  1  0.92059982  0.33558451  0.30973463  1
  O2-  O520  1  0.92329052  0.33859901  0.64434689  1
  O2-  O521  1  0.92466233  0.34394021  0.97885872  1
  O2-  O522  1  0.91365795  0.58319668  0.31416448  1
  O2-  O523  1  0.91975184  0.57998766  0.64557223  1
  O2-  O524  1  0.92146558  0.58613924  0.98381944  1
  O2-  O525  1  0.91293306  0.82416085  0.32677194  1
  O2-  O526  1  0.88629719  0.81579774  0.63541585  1
  O2-  O527  1  0.91962985  0.83631028  0.97625501  1
  O2-  O528  1  0.08959947  0.17506981  0.02097217  1
  O2-  O529  1  0.08983080  0.17497932  0.35128755  1
  O2-  O530  1  0.09445407  0.17194959  0.68758875  1
  O2-  O531  1  0.09113357  0.42671839  0.02120503  1
  O2-  O532  1  0.09692468  0.42216396  0.35553880  1
  O2-  O533  1  0.09236237  0.42622939  0.68736731  1
  O2-  O534  1  0.08384596  0.66596236  0.02299605  1
  O2-  O535  1  0.08461409  0.66807801  0.35408963  1
  O2-  O536  1  0.08691041  0.66562927  0.69403975  1
  O2-  O537  1  0.08140125  0.91988911  0.01867937  1
  O2-  O538  1  0.10233752  0.91891565  0.35034867  1
  O2-  O539  1  0.07744018  0.91178356  0.69243548  1
  O2-  O540  1  0.32748428  0.17152209  0.01542675  1
  O2-  O541  1  0.39622846  0.20714638  0.36749893  1
  O2-  O542  1  0.34327512  0.16505718  0.66385479  1
  O2-  O543  1  0.33280776  0.40670126  0.01602414  1
  O2-  O544  1  0.32106829  0.41276339  0.34973224  1
  O2-  O545  1  0.33754637  0.42841799  0.67388807  1
  O2-  O546  1  0.33681213  0.65295682  0.02649992  1
  O2-  O547  1  0.33184474  0.66271964  0.35264054  1
  O2-  O548  1  0.32690513  0.65906380  0.69073107  1
  O2-  O549  1  0.32640527  0.92295985  0.02631099  1
  O2-  O550  1  0.33524504  0.90461699  0.36585279  1
  O2-  O551  1  0.32080526  0.91900108  0.69252071  1
  O2-  O552  1  0.54842644  0.22714011  0.03394952  1
  O2-  O553  1  0.58302117  0.16155492  0.35783643  1
  O2-  O554  1  0.58838971  0.17291664  0.68045976  1
  O2-  O555  1  0.57390502  0.43073264  0.02263280  1
  O2-  O556  1  0.61059749  0.43353948  0.36869428  1
  O2-  O557  1  0.57279510  0.41825218  0.67697152  1
  O2-  O558  1  0.58235405  0.63591976  0.00544886  1
  O2-  O559  1  0.57702078  0.65599104  0.35178692  1
  O2-  O560  1  0.59126282  0.68068419  0.68964503  1
  O2-  O561  1  0.54613464  0.91749489  0.02955671  1
  O2-  O562  1  0.58894915  0.91860315  0.34561604  1
  O2-  O563  1  0.59321461  0.92320793  0.69566568  1
  O2-  O564  1  0.85159805  0.17657084  0.01945571  1
  O2-  O565  1  0.83327098  0.16172183  0.34068942  1
  O2-  O566  1  0.84930956  0.17717568  0.69232135  1
  O2-  O567  1  0.82890448  0.41226348  0.02392593  1
  O2-  O568  1  0.83538296  0.40739494  0.34679223  1
  O2-  O569  1  0.82931163  0.41265231  0.68325652  1
  O2-  O570  1  0.84450451  0.68202791  0.02023749  1
  O2-  O571  1  0.82965083  0.66226012  0.35639651  1
  O2-  O572  1  0.83107495  0.65294401  0.69184880  1
  O2-  O573  1  0.84376307  0.92843875  0.01902934  1
  O2-  O574  1  0.83516459  0.92084404  0.34920845  1
  O2-  O575  1  0.84425431  0.93415261  0.68900979  1
