# generated using pymatgen
data_H2O
_symmetry_space_group_name_H-M   'P 1'
_cell_length_a   17.99803204
_cell_length_b   18.00167925
_cell_length_c   22.00756739
_cell_angle_alpha   90.01128243
_cell_angle_beta   89.98881792
_cell_angle_gamma   120.00775912
_symmetry_Int_Tables_number   1
_chemical_formula_structural   H2O
_chemical_formula_sum   'H384 O192'
_cell_volume   6174.57030265
_cell_formula_units_Z   192
loop_
 _symmetry_equiv_pos_site_id
 _symmetry_equiv_pos_as_xyz
  1  'x, y, z'
loop_
 _atom_type_symbol
 _atom_type_oxidation_number
  H+  1.0
  O2-  -2.0
loop_
 _atom_site_type_symbol
 _atom_site_label
 _atom_site_symmetry_multiplicity
 _atom_site_fract_x
 _atom_site_fract_y
 _atom_site_fract_z
 _atom_site_occupancy
  H+  H0  1  0.10888398  0.49167236  0.50477231  1
  H+  H1  1  0.38594657  0.35613979  0.83753682  1
  H+  H2  1  0.88195506  0.70858720  0.48529764  1
  H+  H3  1  0.72768540  0.10779392  0.68255149  1
  H+  H4  1  0.37015155  0.72826300  0.49335981  1
  H+  H5  1  0.89511439  0.61113066  0.17193206  1
  H+  H6  1  0.37310511  0.38712518  0.15338276  1
  H+  H7  1  0.14410117  0.62346326  0.49912614  1
  H+  H8  1  0.89285680  0.35943615  0.17241727  1
  H+  H9  1  0.98740285  0.61988323  0.33369537  1
  H+  H10  1  0.66013634  0.07348636  -0.06223574  1
  H+  H11  1  0.61198299  0.88641839  0.34009927  1
  H+  H12  1  -0.01865245  0.65547434  0.87303347  1
  H+  H13  1  0.46986910  0.11567446  0.86947858  1
  H+  H14  1  0.86369319  0.97198009  0.16446716  1
  H+  H15  1  0.38320563  0.77974166  1.00172180  1
  H+  H16  1  0.51987615  0.38932361  0.82831757  1
  H+  H17  1  0.40359657  0.61685638  0.66113833  1
  H+  H18  1  0.03618933  0.47383602  0.64567447  1
  H+  H19  1  0.64680756  0.44586836  0.11737731  1
  H+  H20  1  0.77540114  0.63918036  0.00493746  1
  H+  H21  1  0.87939639  0.85591108  0.32501980  1
  H+  H22  1  0.85988749  0.37688113  0.49653206  1
  H+  H23  1  0.14199530  0.86083114  0.18022310  1
  H+  H24  1  0.39667939  0.90730737  0.68648663  1
  H+  H25  1  0.35599304  0.63327298  0.99944331  1
  H+  H26  1  0.10981060  0.22447394  0.33743551  1
  H+  H27  1  0.51844766  0.11284885  0.49850196  1
  H+  H28  1  0.97310271  0.37077672  0.51624118  1
  H+  H29  1  0.94614702  0.33987648  0.66939142  1
  H+  H30  1  0.17510478  0.15861065  0.50785258  1
  H+  H31  1  0.65216438  0.55492355  0.50888261  1
  H+  H32  1  0.60301155  0.22751216  0.68544195  1
  H+  H33  1  0.12238250  0.64029265  0.15074573  1
  H+  H34  1  0.61218503  0.65811480  0.00027111  1
  H+  H35  1  0.10215045  0.63625397  0.33817139  1
  H+  H36  1  0.83014602  0.65777382  0.10285114  1
  H+  H37  1  0.00917331  0.87802578  0.00319628  1
  H+  H38  1  0.28214238  0.38232052  0.14959846  1
  H+  H39  1  0.25348196  0.34394318  0.67533045  1
  H+  H40  1  0.35838764  0.72299044  0.33616894  1
  H+  H41  1  0.96693817  0.65536909  0.84063079  1
  H+  H42  1  0.63544260  0.77078847  0.17163668  1
  H+  H43  1  0.73506537  0.43622208  0.87196489  1
  H+  H44  1  0.39196522  0.85388173  0.16479720  1
  H+  H45  1  0.56241362  0.14498424  0.04415509  1
  H+  H46  1  0.11997588  0.72749097  0.15703062  1
  H+  H47  1  0.85819384  0.97288308  0.33438358  1
  H+  H48  1  0.98329812  0.14781075  0.49827673  1
  H+  H49  1  0.38307423  0.73929715  0.66658064  1
  H+  H50  1  0.10222046  0.94066554  0.49918891  1
  H+  H51  1  0.53024456  0.39244964  0.66487380  1
  H+  H52  1  0.11226157  0.85687925  -0.01568955  1
  H+  H53  1  0.73050942  0.34245059  0.50490926  1
  H+  H54  1  0.84538874  0.62660240  0.82091481  1
  H+  H55  1  0.63385636  0.55507241  0.98568586  1
  H+  H56  1  0.86012509  0.47254391  0.67046673  1
  H+  H57  1  0.07059502  0.14661680  0.49099109  1
  H+  H58  1  -0.02987971  0.10530223  -0.01292253  1
  H+  H59  1  0.37806761  0.14698846  0.49564558  1
  H+  H60  1  0.77842035  0.39543038  0.34695629  1
  H+  H61  1  0.03193013  0.38292980  0.15973004  1
  H+  H62  1  0.21965729  0.10433358  0.98875661  1
  H+  H63  1  0.16410847  0.35568230  0.65533518  1
  H+  H64  1  0.27450713  0.13883075  0.34765352  1
  H+  H65  1  0.72026907  0.86618260  0.49748466  1
  H+  H66  1  0.40233384  0.40164505  0.68136714  1
  H+  H67  1  0.37162749  0.88996191  0.84146741  1
  H+  H68  1  0.86122425  0.71952235  0.16118427  1
  H+  H69  1  0.22562058  0.61158840  0.99605003  1
  H+  H70  1  0.63529693  0.27675946  0.34489045  1
  H+  H71  1  0.15480087  0.36476083  0.30120107  1
  H+  H72  1  0.12339210  0.47539567  0.00627990  1
  H+  H73  1  0.39483216  0.02718612  0.66662349  1
  H+  H74  1  0.00429017  0.38458640  0.34466181  1
  H+  H75  1  0.91912559  0.57467420  0.60067681  1
  H+  H76  1  0.98544324  0.61356209  0.16859959  1
  H+  H77  1  0.28319390  0.87358045  0.16486559  1
  H+  H78  1  0.16191312  0.03694573  0.19019463  1
  H+  H79  1  0.64214822  0.86264430  0.67450083  1
  H+  H80  1  0.89455901  0.11096465  0.16900316  1
  H+  H81  1  0.60626072  0.21326829  0.83861581  1
  H+  H82  1  0.72197006  0.11434356  -0.00473949  1
  H+  H83  1  0.38068171  0.61209344  0.32438197  1
  H+  H84  1  0.88315998  0.50727124  0.50884532  1
  H+  H85  1  0.63138222  0.31012081  0.49535112  1
  H+  H86  1  0.60994217  0.63794462  0.33579626  1
  H+  H87  1  0.88281008  0.86049696  1.00669096  1
  H+  H88  1  0.25333890  0.12734719  0.67503980  1
  H+  H89  1  0.33074550  0.88896629  0.10052777  1
  H+  H90  1  0.34464716  0.21604288  0.66986140  1
  H+  H91  1  0.76682647  0.38460436  0.67102728  1
  H+  H92  1  0.62081111  0.64578224  0.49419749  1
  H+  H93  1  0.45483253  0.27579848  0.61351060  1
  H+  H94  1  0.12360651  0.25254763  0.84125075  1
  H+  H95  1  0.11500888  0.27345530  0.49965087  1
  H+  H96  1  0.26669751  0.63921453  0.65775740  1
  H+  H97  1  0.36224996  0.48153560  0.33678275  1
  H+  H98  1  0.10902672  0.13000875  1.00208765  1
  H+  H99  1  0.23817338  0.36157702  0.31895484  1
  H+  H100  1  0.61167537  0.87142267  0.14923438  1
  H+  H101  1  0.61177238  0.08790100  0.85088444  1
  H+  H102  1  0.34758209  0.41233510  0.77232642  1
  H+  H103  1  0.14421778  0.02214263  0.83398943  1
  H+  H104  1  0.35580916  0.13107827  -0.00769679  1
  H+  H105  1  0.16040652  0.13218704  0.47902962  1
  H+  H106  1  0.06582918  0.96711205  0.13368972  1
  H+  H107  1  0.34645861  0.47798589  0.49718802  1
  H+  H108  1  0.60855648  0.86035777  0.49296379  1
  H+  H109  1  -0.02125569  0.60390190  0.66009210  1
  H+  H110  1  0.76798739  0.88851807  0.02046336  1
  H+  H111  1  0.40936473  0.49289492  0.68499264  1
  H+  H112  1  0.52274562  0.87229378  0.14344873  1
  H+  H113  1  0.84036906  0.14130420  0.48949116  1
  H+  H114  1  0.47738261  0.11115841  -0.03686338  1
  H+  H115  1  0.13376515  0.34636205  0.84233008  1
  H+  H116  1  0.00735289  0.87477992  0.15765389  1
  H+  H117  1  0.86292192  0.63631784  0.67090257  1
  H+  H118  1  0.02582137  0.88283378  0.67900017  1
  H+  H119  1  0.47042915  0.61262014  0.32482643  1
  H+  H120  1  0.64855976  0.86993358  0.83064602  1
  H+  H121  1  0.14874187  0.74559829  0.82214938  1
  H+  H122  1  0.60054361  0.09407099  0.13577584  1
  H+  H123  1  0.61509979  0.64102341  0.15964986  1
  H+  H124  1  0.22049126  0.60762970  0.32364608  1
  H+  H125  1  0.88540878  0.77217237  1.00664100  1
  H+  H126  1  0.23018293  0.60849033  0.16778347  1
  H+  H127  1  0.46555848  0.60732859  0.98791916  1
  H+  H128  1  0.86537375  0.22036434  0.15756831  1
  H+  H129  1  -0.03646071  0.07285636  0.83731248  1
  H+  H130  1  0.47298213  0.10573773  0.17371131  1
  H+  H131  1  0.52510129  0.63279733  0.49271606  1
  H+  H132  1  0.62893972  0.24891847  0.98645416  1
  H+  H133  1  0.13276786  0.11116104  0.34038575  1
  H+  H134  1  0.60437406  0.41814866  0.49617620  1
  H+  H135  1  0.74378994  0.88302220  0.83939754  1
  H+  H136  1  0.42784793  0.82706641  0.22242598  1
  H+  H137  1  0.25849241  0.13535773  0.82691094  1
  H+  H138  1  0.17742412  0.04505629  0.56969746  1
  H+  H139  1  0.39115451  0.86054938  0.51073269  1
  H+  H140  1  0.41585918  0.82598356  0.57365104  1
  H+  H141  1  0.13263352  0.85057403  0.33201079  1
  H+  H142  1  0.47052583  0.60483573  0.82582490  1
  H+  H143  1  0.84068723  0.16227138  0.06033985  1
  H+  H144  1  0.52224239  0.39102256  0.34019195  1
  H+  H145  1  0.60789180  -0.02645386  0.34934584  1
  H+  H146  1  0.52017796  0.13803480  0.34794299  1
  H+  H147  1  0.41425822  0.57792827  0.22947062  1
  H+  H148  1  0.91486617  0.88458589  0.84632523  1
  H+  H149  1  0.27150156  0.37149683  0.82474446  1
  H+  H150  1  0.07812469  0.65829583  0.41983124  1
  H+  H151  1  0.78476268  0.33460405  0.81042830  1
  H+  H152  1  0.39955748  0.27818543  0.16597720  1
  H+  H153  1  0.51461746  0.13897610  0.68221684  1
  H+  H154  1  0.36336829  0.93432586  0.01286967  1
  H+  H155  1  0.65755104  0.54309393  0.64696034  1
  H+  H156  1  0.38684189  0.10909353  0.33414232  1
  H+  H157  1  0.47868962  0.86353286  0.84495302  1
  H+  H158  1  0.11803141  0.25373144  0.99563743  1
  H+  H159  1  0.88131526  0.10629083  0.98445981  1
  H+  H160  1  0.38249227  0.01839536  0.50720826  1
  H+  H161  1  0.63153155  0.49953279  0.16856545  1
  H+  H162  1  0.85911636  0.90660228  0.49350518  1
  H+  H163  1  0.87775771  0.85417459  0.17242757  1
  H+  H164  1  0.63176358  0.63667209  0.66498044  1
  H+  H165  1  0.02859013  0.37591896  0.83480778  1
  H+  H166  1  0.12497697  0.83878527  0.49850073  1
  H+  H167  1  0.86535376  0.10542476  0.67189337  1
  H+  H168  1  0.50727641  0.86266071  0.49739622  1
  H+  H169  1  0.90438382  0.35470446  0.83951743  1
  H+  H170  1  0.87320483  0.47917127  0.16302602  1
  H+  H171  1  0.64341066  0.37997102  0.19130694  1
  H+  H172  1  0.38867267  0.36682540  0.32460352  1
  H+  H173  1  0.64023561  0.62050361  0.83670659  1
  H+  H174  1  0.60290634  0.97753783  0.68117253  1
  H+  H175  1  0.76898988  0.88427361  0.33607590  1
  H+  H176  1  0.64709460  0.77906556  0.67104322  1
  H+  H177  1  0.84720147  0.47956922  0.84406987  1
  H+  H178  1  0.14297031  0.52108999  0.83932366  1
  H+  H179  1  0.60728712  0.96633285  0.82946329  1
  H+  H180  1  0.12031196  0.76391245  0.98374675  1
  H+  H181  1  0.52404212  0.63679058  0.16032122  1
  H+  H182  1  0.14376087  0.35569025  0.16368982  1
  H+  H183  1  0.45900188  0.35671091  0.98599810  1
  H+  H184  1  0.88097615  0.76681356  0.32489510  1
  H+  H185  1  0.63584364  0.77061446  0.49842422  1
  H+  H186  1  0.62789826  0.39694306  0.84706547  1
  H+  H187  1  0.62691739  0.28636763  0.19573893  1
  H+  H188  1  0.12097307  0.09642433  0.65880770  1
  H+  H189  1  0.33307045  0.91011961  0.43472035  1
  H+  H190  1  0.87075762  0.48282818  0.34254281  1
  H+  H191  1  0.88830979  0.77177477  0.66743334  1
  H+  H192  1  0.63713611  0.52750918  0.32609808  1
  H+  H193  1  0.86853390  0.22229292  0.00197736  1
  H+  H194  1  0.96901076  0.11061546  0.32520897  1
  H+  H195  1  0.14455982  0.11493262  0.17843794  1
  H+  H196  1  0.62694898  0.11608772  0.34427007  1
  H+  H197  1  0.65216489  0.06231869  0.59007349  1
  H+  H198  1  0.90826983  0.82410456  0.23159058  1
  H+  H199  1  0.12936801  0.01599650  0.98721526  1
  H+  H200  1  0.47364125  0.85591308  0.32536762  1
  H+  H201  1  0.16696701  0.08080611  0.89504981  1
  H+  H202  1  0.24321026  0.87496230  0.84459544  1
  H+  H203  1  0.77946136  0.12768471  0.14761287  1
  H+  H204  1  0.86335325  0.34674530  0.66149729  1
  H+  H205  1  0.77943053  0.64064372  0.49568382  1
  H+  H206  1  0.36287234  0.47045027  -0.00506326  1
  H+  H207  1  0.72661247  0.61465478  0.82878830  1
  H+  H208  1  0.73278812  0.61955799  0.17544127  1
  H+  H209  1  0.08296819  0.20722048  0.67055880  1
  H+  H210  1  0.57666511  0.15777028  0.40950227  1
  H+  H211  1  0.35889251  -0.03375366  0.33916541  1
  H+  H212  1  0.48802901  0.36726230  0.17104002  1
  H+  H213  1  0.41326110  0.32254125  0.89573295  1
  H+  H214  1  0.40120194  0.13201581  0.17611012  1
  H+  H215  1  0.34494824  0.81124452  0.63992214  1
  H+  H216  1  0.49144870  0.61422810  0.65649239  1
  H+  H217  1  0.01529069  0.87938533  0.33851152  1
  H+  H218  1  0.68833246  0.60966018  0.57413087  1
  H+  H219  1  0.38876181  0.77747673  0.84519917  1
  H+  H220  1  0.08227357  0.37683901  0.37085475  1
  H+  H221  1  0.13520992  0.64409942  0.66828159  1
  H+  H222  1  0.09851527  0.11942647  0.82255865  1
  H+  H223  1  0.36450776  0.63070342  0.15501107  1
  H+  H224  1  0.88003094  0.27155184  0.32566840  1
  H+  H225  1  0.77801583  0.36966195  0.01164415  1
  H+  H226  1  0.35844001  0.23043166  0.82499391  1
  H+  H227  1  0.56228356  0.16030681  0.77922346  1
  H+  H228  1  0.12971772  0.52188585  0.32461523  1
  H+  H229  1  0.84523402  0.20030135  0.68358311  1
  H+  H230  1  0.77148611  0.13812270  0.33840145  1
  H+  H231  1  0.88326214  0.59509871  0.50615173  1
  H+  H232  1  0.34416363  0.38719111  0.49220063  1
  H+  H233  1  0.17723637  0.55203630  0.64941423  1
  H+  H234  1  0.28016730  0.63890841  0.82634240  1
  H+  H235  1  -0.03277469  0.60073421  -0.01260703  1
  H+  H236  1  0.15076072  0.61462533  0.83795930  1
  H+  H237  1  0.88116317  0.36243821  0.32604041  1
  H+  H238  1  0.86827952  0.03219431  0.50830333  1
  H+  H239  1  0.15151923  0.87241545  0.83449331  1
  H+  H240  1  0.63689855  0.36478446  0.65568144  1
  H+  H241  1  0.84054370  0.20936551  0.83042772  1
  H+  H242  1  0.78296466  0.39227641  0.17021396  1
  H+  H243  1  0.63166527  0.77319685  0.32525599  1
  H+  H244  1  0.77289094  0.63975558  0.66480053  1
  H+  H245  1  0.13284649  0.75494888  0.49550541  1
  H+  H246  1  0.11298373  0.63842826  -0.00009896  1
  H+  H247  1  0.59747128  0.42730120  0.01984202  1
  H+  H248  1  0.28005899  0.64160967  0.49017739  1
  H+  H249  1  0.27031503  0.87587612  0.33952173  1
  H+  H250  1  0.38327401  0.51444255  0.83233227  1
  H+  H251  1  0.64316682  0.33763841  1.01116034  1
  H+  H252  1  0.83225733  0.91457196  0.10440013  1
  H+  H253  1  0.70725253  1.10826692  0.84124196  1
  H+  H254  1  0.85960841  -0.02730905  1.01038955  1
  H+  H255  1  0.23779639  0.07320037  0.51245025  1
  H+  H256  1  0.12621251  0.35555782  -0.00596253  1
  H+  H257  1  0.04031592  0.89379682  0.82367307  1
  H+  H258  1  0.27033724  0.36189862  0.64394737  1
  H+  H259  1  0.10437684  0.96742033  0.34592092  1
  H+  H260  1  0.61140683  0.39073480  0.34857939  1
  H+  H261  1  0.63997705  0.11732590  0.68310553  1
  H+  H262  1  0.12689431  0.75778911  0.33311226  1
  H+  H263  1  0.12073488  0.47293726  0.15914092  1
  H+  H264  1  0.61498400  0.18595529  0.13523544  1
  H+  H265  1  0.02668401  0.12721132  0.15988428  1
  H+  H266  1  0.36783679  0.63946650  0.82352519  1
  H+  H267  1  1.02498322  0.62414472  0.48592513  1
  H+  H268  1  0.28527901  0.14968694  0.15624854  1
  H+  H269  1  0.61584331  0.18845299  0.50187887  1
  H+  H270  1  0.36923703  0.97793377  0.84950285  1
  H+  H271  1  0.89670646  0.36046219  0.99901463  1
  H+  H272  1  0.38665631  0.85842526  0.32100664  1
  H+  H273  1  0.63568401  -0.00612580  0.14308821  1
  H+  H274  1  0.85799178  0.23583642  0.48567017  1
  H+  H275  1  0.06125688  0.66049312  0.82160957  1
  H+  H276  1  0.38691017  0.61232001  0.50721090  1
  H+  H277  1  0.27085322  0.87867526  0.49191748  1
  H+  H278  1  0.08582215  0.36798597  0.64179077  1
  H+  H279  1  0.95924489  0.86109399  0.51100307  1
  H+  H280  1  0.89247610  0.90404611  0.70184679  1
  H+  H281  1  0.88284121  0.51052128  -0.00017202  1
  H+  H282  1  0.62231705  0.06878494  0.52428127  1
  H+  H283  1  0.98672084  0.36208013  0.99782940  1
  H+  H284  1  0.35300924  0.21779619  -0.00392349  1
  H+  H285  1  0.09976594  0.92138514  0.76406724  1
  H+  H286  1  0.88060910  0.11152615  0.32390477  1
  H+  H287  1  0.86663164  0.63231342  0.33439674  1
  H+  H288  1  0.46524541  0.37990085  0.49512229  1
  H+  H289  1  0.67146946  0.59210388  0.23559087  1
  H+  H290  1  0.35216598  0.67748808  0.72920755  1
  H+  H291  1  0.06119964  0.47904003  0.71328634  1
  H+  H292  1  0.42036048  0.33631192  0.26643871  1
  H+  H293  1  0.05932120  0.89394370  0.43631121  1
  H+  H294  1  0.33610430  0.16816394  0.09291106  1
  H+  H295  1  0.34321798  0.17150789  0.43648714  1
  H+  H296  1  0.57978863  0.66520001  0.39577744  1
  H+  H297  1  0.41682580  0.32740355  0.58324624  1
  H+  H298  1  0.58008681  0.43801770  0.43094873  1
  H+  H299  1  0.66155260  0.83258601  0.26576611  1
  H+  H300  1  0.51432431  0.88833173  0.67161619  1
  H+  H301  1  0.15219413  0.81932067  0.59230185  1
  H+  H302  1  0.63921400  0.07992275  0.28340135  1
  H+  H303  1  0.37569185  0.10488085  0.66197132  1
  H+  H304  1  0.59533574  0.65643084  0.72685868  1
  H+  H305  1  0.07960850  0.90551960  0.05654568  1
  H+  H306  1  0.38511615  0.28190577  0.49595952  1
  H+  H307  1  0.33389970  0.66627131  0.39693226  1
  H+  H308  1  0.36373435  0.93429513  0.74545860  1
  H+  H309  1  0.41532730  0.84317881  0.94696770  1
  H+  H310  1  0.91923637  0.08207930  0.23108609  1
  H+  H311  1  0.07987089  0.15582625  0.06410905  1
  H+  H312  1  0.61178121  0.12642830  -0.00902176  1
  H+  H313  1  0.63298738  0.74626221  0.83087248  1
  H+  H314  1  0.83184274  0.65657571  0.39331062  1
  H+  H315  1  0.36744940  0.72089674  0.15419577  1
  H+  H316  1  0.54866326  0.45459793  0.06404643  1
  H+  H317  1  0.08536703  0.67243362  0.05736087  1
  H+  H318  1  0.80267105  0.16089639  0.76535626  1
  H+  H319  1  0.05881137  0.14488588  0.76603767  1
  H+  H320  1  0.66032357  0.35329835  0.91156685  1
  H+  H321  1  0.83724352  0.39910659  0.75837077  1
  H+  H322  1  0.31889031  0.16859676  0.76058219  1
  H+  H323  1  0.88229574  0.02421344  0.66825433  1
  H+  H324  1  0.82938181  0.92615513  0.42966065  1
  H+  H325  1  0.90026659  0.79137444  0.83124655  1
  H+  H326  1  0.90308676  0.32323183  0.57026126  1
  H+  H327  1  0.83441708  0.40626774  0.07270689  1
  H+  H328  1  0.72862325  0.61413344  0.32536702  1
  H+  H329  1  0.91629783  0.84382192  0.61570290  1
  H+  H330  1  0.58441561  0.42170302  0.72580251  1
  H+  H331  1  0.83382818  0.41000683  0.43561600  1
  H+  H332  1  0.15024445  0.31359601  0.93016984  1
  H+  H333  1  0.22396294  0.36726030  0.50205146  1
  H+  H334  1  0.18655091  0.61035160  0.56114359  1
  H+  H335  1  0.57269285  0.66515812  0.06286121  1
  H+  H336  1  0.92602151  0.58376910  0.27211286  1
  H+  H337  1  0.09559937  0.41506667  0.06667368  1
  H+  H338  1  0.42335674  0.08952853  0.27460480  1
  H+  H339  1  0.37128650  0.35487827  0.98341709  1
  H+  H340  1  0.72436655  0.86060335  0.17299338  1
  H+  H341  1  0.41663996  0.57964296  0.56630994  1
  H+  H342  1  0.16245955  0.82373681  0.23993181  1
  H+  H343  1  0.87511321  0.94652481  0.76056919  1
  H+  H344  1  0.10300690  0.66855833  0.72868141  1
  H+  H345  1  0.32673492  0.42097441  0.39595711  1
  H+  H346  1  0.32988008  0.65998488  0.06181205  1
  H+  H347  1  0.41383850  0.07745928  0.56720645  1
  H+  H348  1  0.34132707  0.41457877  0.05530377  1
  H+  H349  1  0.83014393  0.66525429  0.75962924  1
  H+  H350  1  0.11299589  0.88000637  0.66886039  1
  H+  H351  1  0.93178549  0.33338361  0.90430186  1
  H+  H352  1  0.67861247  0.60221605  0.92435107  1
  H+  H353  1  0.83382334  0.17272886  0.39576405  1
  H+  H354  1  0.06516640  0.43263374  0.44801256  1
  H+  H355  1  0.16746491  0.57954551  0.22600635  1
  H+  H356  1  0.66689550  0.33848936  0.28672293  1
  H+  H357  1  0.91917874  0.32862194  0.23168107  1
  H+  H358  1  0.08593508  0.39503988  0.77450348  1
  H+  H359  1  0.41089792  0.57998084  0.92610148  1
  H+  H360  1  0.17845081  0.32313603  0.21853711  1
  H+  H361  1  0.13027877  0.01188862  0.66528815  1
  H+  H362  1  0.16962409  0.08999660  0.28152182  1
  H+  H363  1  0.89343564  0.08443453  0.57222975  1
  H+  H364  1  0.12471824  0.76378009  0.65265126  1
  H+  H365  1  0.85819024  0.79458572  0.52473126  1
  H+  H366  1  -0.00478880  0.12020893  0.67218938  1
  H+  H367  1  0.90415871  0.04723021  0.90222779  1
  H+  H368  1  0.11630052  0.21622782  0.15429704  1
  H+  H369  1  0.60658249  0.89751408  0.05205169  1
  H+  H370  1  0.56700233  0.89322885  0.43103137  1
  H+  H371  1  0.57308617  0.90941567  0.76849521  1
  H+  H372  1  0.85803281  0.53253628  0.90622394  1
  H+  H373  1  0.39076204  0.51955776  0.16904486  1
  H+  H374  1  0.16714856  0.57877861  0.93655767  1
  H+  H375  1  0.06366261  0.17465255  0.39871287  1
  H+  H376  1  0.60871648  0.48611203  0.82604934  1
  H+  H377  1  0.67017411  0.04908922  0.20247204  1
  H+  H378  1  0.15716089  0.83190018  0.92087767  1
  H+  H379  1  0.57482625  0.67388210  0.87587740  1
  H+  H380  1  0.66317273  0.32098939  0.60170198  1
  H+  H381  1  0.14452109  0.33979814  0.56015017  1
  H+  H382  1  0.36403012  0.22691618  0.34092796  1
  H+  H383  1  0.85824700  0.62783977  1.00813905  1
  O2-  O384  1  0.08664568  0.15385480  0.14282919  1
  O2-  O385  1  0.04494275  0.18111055  0.47871168  1
  O2-  O386  1  0.06044511  0.14302101  0.81187532  1
  O2-  O387  1  0.09192655  0.41168679  0.14397023  1
  O2-  O388  1  0.07008928  0.43050036  0.49251864  1
  O2-  O389  1  0.09097980  0.40626335  0.81802674  1
  O2-  O390  1  0.09072797  0.66966378  0.13703520  1
  O2-  O391  1  0.08361257  0.65627719  0.46896725  1
  O2-  O392  1  0.12030757  0.68420852  0.80702648  1
  O2-  O393  1  0.06688093  0.91416161  0.14052389  1
  O2-  O394  1  0.05438869  0.88632422  0.48149354  1
  O2-  O395  1  0.10290014  0.92506279  0.80999093  1
  O2-  O396  1  0.34325450  0.17742791  0.13778180  1
  O2-  O397  1  0.34709625  0.17712561  0.48183663  1
  O2-  O398  1  0.32057356  0.16966444  0.80773616  1
  O2-  O399  1  0.34341198  0.41701653  0.13701454  1
  O2-  O400  1  0.31121304  0.41664867  0.48068974  1
  O2-  O401  1  0.33399917  0.40504384  0.81711756  1
  O2-  O402  1  0.33285240  0.65950391  0.14032846  1
  O2-  O403  1  0.34130572  0.66830005  0.47633654  1
  O2-  O404  1  0.33985220  0.67270542  0.81075961  1
  O2-  O405  1  0.34039580  0.89810917  0.14625917  1
  O2-  O406  1  0.33271452  0.91300111  0.48001081  1
  O2-  O407  1  0.34209216  0.92266743  0.82726780  1
  O2-  O408  1  0.57184207  0.12761400  0.12456249  1
  O2-  O409  1  0.57714816  0.13429809  0.48069861  1
  O2-  O410  1  0.56201038  0.15675627  0.82524815  1
  O2-  O411  1  0.60744289  0.43796635  0.15048382  1
  O2-  O412  1  0.57441647  0.44405178  0.47642228  1
  O2-  O413  1  0.58229002  0.42215829  0.81562738  1
  O2-  O414  1  0.58427072  0.67019879  0.14447988  1
  O2-  O415  1  0.58326105  0.66548871  0.47444295  1
  O2-  O416  1  0.59304127  0.67939388  0.83354153  1
  O2-  O417  1  0.58346414  0.89989269  0.12712504  1
  O2-  O418  1  0.56545539  0.88264930  0.47605025  1
  O2-  O419  1  0.57699755  0.90603348  0.81410248  1
  O2-  O420  1  0.84213972  0.16206529  0.13918049  1
  O2-  O421  1  0.82698813  0.17922255  0.46511242  1
  O2-  O422  1  0.78754133  0.17915848  0.80706683  1
  O2-  O423  1  0.83926508  0.41673562  0.14999316  1
  O2-  O424  1  0.82635336  0.40455731  0.48085552  1
  O2-  O425  1  0.83814902  0.38846519  0.80357097  1
  O2-  O426  1  0.83136200  0.65764055  0.14850915  1
  O2-  O427  1  0.83541225  0.65194969  0.47426616  1
  O2-  O428  1  0.82604832  0.66536532  0.80581329  1
  O2-  O429  1  0.83111779  0.91121536  0.15033139  1
  O2-  O430  1  0.82604790  0.93135406  0.47474854  1
  O2-  O431  1  0.86270465  0.94705321  0.83914711  1
  O2-  O432  1  0.18357950  0.09756451  0.19924128  1
  O2-  O433  1  0.19213832  0.02271906  0.53346844  1
  O2-  O434  1  0.16974502  0.08389806  0.84937786  1
  O2-  O435  1  0.17382332  0.32283069  0.17354899  1
  O2-  O436  1  0.15855933  0.33275315  0.51672866  1
  O2-  O437  1  0.15888499  0.31148438  0.85858174  1
  O2-  O438  1  0.16820339  0.57731398  0.18050891  1
  O2-  O439  1  0.17793636  0.59720326  0.51697928  1
  O2-  O440  1  0.17458289  0.58001905  0.85597936  1
  O2-  O441  1  0.16595616  0.82560605  0.19403765  1
  O2-  O442  1  0.16159663  0.81548500  0.51221446  1
  O2-  O443  1  0.17872809  0.84065291  0.85372752  1
  O2-  O444  1  0.43890737  0.11946545  0.20153725  1
  O2-  O445  1  0.41661744  0.07927233  0.52180309  1
  O2-  O446  1  0.40949944  0.08364319  0.88509097  1
  O2-  O447  1  0.42790961  0.33724435  0.18454644  1
  O2-  O448  1  0.40537561  0.34260149  0.51026435  1
  O2-  O449  1  0.41737274  0.32479468  0.84951962  1
  O2-  O450  1  0.41939656  0.57993567  0.18427961  1
  O2-  O451  1  0.41138147  0.57554456  0.52071421  1
  O2-  O452  1  0.41215057  0.57657841  0.84309224  1
  O2-  O453  1  0.42707219  0.82525389  0.17737819  1
  O2-  O454  1  0.41916713  0.82807973  0.52497253  1
  O2-  O455  1  0.41838084  0.83697859  0.86153441  1
  O2-  O456  1  0.66810757  0.05697128  0.15890888  1
  O2-  O457  1  0.64843007  0.04179127  0.54780915  1
  O2-  O458  1  0.65048095  0.06622762  0.86215947  1
  O2-  O459  1  0.66896620  0.34524771  0.20656591  1
  O2-  O460  1  0.67074480  0.30484444  0.52288296  1
  O2-  O461  1  0.67437166  0.38105151  0.86994563  1
  O2-  O462  1  0.67108651  0.59082244  0.18962763  1
  O2-  O463  1  0.68920708  0.61407292  0.52336126  1
  O2-  O464  1  0.66634510  0.58366298  0.84653496  1
  O2-  O465  1  0.66348537  0.83136285  0.18751336  1
  O2-  O466  1  0.65984370  0.83125447  0.51191762  1
  O2-  O467  1  0.68167765  0.84104312  0.84163841  1
  O2-  O468  1  0.92412055  0.08082236  0.18569743  1
  O2-  O469  1  0.89615472  0.09098348  0.52635597  1
  O2-  O470  1  0.90277818  0.03973784  0.85531194  1
  O2-  O471  1  0.92139908  0.32717446  0.18622462  1
  O2-  O472  1  0.90995554  0.33249174  0.52544101  1
  O2-  O473  1  0.93762036  0.33078071  0.85912244  1
  O2-  O474  1  0.92577296  0.58071913  0.18529979  1
  O2-  O475  1  0.91520277  0.56817488  0.52332464  1
  O2-  O476  1  0.82464091  0.51142520  0.86746676  1
  O2-  O477  1  0.90849401  0.82306700  0.18590701  1
  O2-  O478  1  0.90500862  0.85281108  0.53151482  1
  O2-  O479  1  0.94279928  0.84884960  0.84569568  1
  O2-  O480  1  0.16561834  0.08335955  0.32637318  1
  O2-  O481  1  0.15887778  0.07283383  0.64876565  1
  O2-  O482  1  0.15918667  0.07701907  0.97307373  1
  O2-  O483  1  0.17905374  0.32696616  0.29981548  1
  O2-  O484  1  0.11211634  0.33337085  0.63051865  1
  O2-  O485  1  0.14608932  0.31448487  0.97672743  1
  O2-  O486  1  0.16216632  0.57876423  0.30508352  1
  O2-  O487  1  0.20502726  0.61313362  0.63985135  1
  O2-  O488  1  0.16340568  0.57782020  0.98172775  1
  O2-  O489  1  0.16236627  0.82067589  0.31658565  1
  O2-  O490  1  0.14876452  0.82276045  0.63724901  1
  O2-  O491  1  0.14254147  0.82449675  0.96700250  1
  O2-  O492  1  0.41856652  0.08023396  0.31979913  1
  O2-  O493  1  0.41451171  0.08528769  0.64663545  1
  O2-  O494  1  0.41510148  0.08689983  0.95193450  1
  O2-  O495  1  0.41923378  0.33607536  0.31174436  1
  O2-  O496  1  0.42918690  0.31064655  0.62451057  1
  O2-  O497  1  0.40123304  0.32133443  0.96868817  1
  O2-  O498  1  0.40996860  0.58006040  0.30967627  1
  O2-  O499  1  0.42888194  0.58247324  0.64435347  1
  O2-  O500  1  0.40551895  0.57616107  0.97094016  1
  O2-  O501  1  0.41543793  0.82616414  0.30680824  1
  O2-  O502  1  0.40293359  0.81961735  0.63924911  1
  O2-  O503  1  0.41929019  0.84160772  0.99190684  1
  O2-  O504  1  0.65364810  0.08258895  0.32624868  1
  O2-  O505  1  0.66347173  0.08190727  0.66826389  1
  O2-  O506  1  0.66113938  0.08511361  0.98250520  1
  O2-  O507  1  0.66602748  0.33864336  0.33183133  1
  O2-  O508  1  0.66418239  0.32939217  0.64649051  1
  O2-  O509  1  0.66487281  0.31582735  0.97945042  1
  O2-  O510  1  0.66773015  0.58755144  0.31032022  1
  O2-  O511  1  0.68800847  0.60411040  0.63617157  1
  O2-  O512  1  0.68011855  0.60972624  0.96949750  1
  O2-  O513  1  0.66291907  0.83436154  0.31139550  1
  O2-  O514  1  0.68287539  0.84176110  0.66945628  1
  O2-  O515  1  0.66430126  0.84692586  1.01375266  1
  O2-  O516  1  0.90958576  0.07966597  0.30862181  1
  O2-  O517  1  0.90006773  0.08076792  0.64841168  1
  O2-  O518  1  0.91080329  0.07383663  0.97067462  1
  O2-  O519  1  0.91212689  0.33263704  0.31072310  1
  O2-  O520  1  0.89149935  0.31345717  0.64781694  1
  O2-  O521  1  0.92707048  0.33187952  0.98132732  1
  O2-  O522  1  0.92167208  0.58443635  0.31686924  1
  O2-  O523  1  0.91801672  0.57443289  0.64638007  1
  O2-  O524  1  0.90458533  0.56654810  0.97850419  1
  O2-  O525  1  0.91067703  0.82712992  0.30903441  1
  O2-  O526  1  0.92256427  0.83512711  0.65919953  1
  O2-  O527  1  0.91684372  0.83323277  0.99411366  1
  O2-  O528  1  0.07878918  0.16001574  0.01856895  1
  O2-  O529  1  0.07432844  0.16662925  0.35550543  1
  O2-  O530  1  0.05833452  0.14917333  0.68686569  1
  O2-  O531  1  0.09483706  0.41368989  0.02082443  1
  O2-  O532  1  0.06362058  0.41830320  0.36378468  1
  O2-  O533  1  0.06164096  0.45194989  0.67485525  1
  O2-  O534  1  0.08114840  0.66874567  0.01182046  1
  O2-  O535  1  0.07313940  0.66512911  0.35605652  1
  O2-  O536  1  0.08932495  0.65418988  0.68495472  1
  O2-  O537  1  0.07599409  0.90764206  0.01170417  1
  O2-  O538  1  0.07310261  0.90615475  0.35803793  1
  O2-  O539  1  0.08874136  0.91391148  0.68945023  1
  O2-  O540  1  0.32536281  0.15776218  0.01231875  1
  O2-  O541  1  0.33663541  0.16831615  0.35873995  1
  O2-  O542  1  0.31495882  0.16051434  0.69144505  1
  O2-  O543  1  0.33735088  0.41038004  0.01034197  1
  O2-  O544  1  0.33261236  0.41961980  0.35124927  1
  O2-  O545  1  0.40701558  0.44500656  0.70995630  1
  O2-  O546  1  0.32553332  0.66209168  0.01658840  1
  O2-  O547  1  0.32896392  0.66239713  0.35155485  1
  O2-  O548  1  0.35604649  0.67502085  0.68422792  1
  O2-  O549  1  0.32102477  0.87630271  0.02652240  1
  O2-  O550  1  0.33171143  0.90573245  0.35329013  1
  O2-  O551  1  0.36975714  0.94028487  0.70071727  1
  O2-  O552  1  0.57373516  0.15566160  -0.00010711  1
  O2-  O553  1  0.58071866  0.16975900  0.36417807  1
  O2-  O554  1  0.57058592  0.16989031  0.70436822  1
  O2-  O555  1  0.55775816  0.44909956  0.02076224  1
  O2-  O556  1  0.58171618  0.42425589  0.35751625  1
  O2-  O557  1  0.58926485  0.42157291  0.68118958  1
  O2-  O558  1  0.56122846  0.65525934  0.01871131  1
  O2-  O559  1  0.57761719  0.66624073  0.35029476  1
  O2-  O560  1  0.59094714  0.65651169  0.68279975  1
  O2-  O561  1  0.63663644  0.90391914  0.01188066  1
  O2-  O562  1  0.57778926  0.91099488  0.35828900  1
  O2-  O563  1  0.56969111  0.91511721  0.69315419  1
  O2-  O564  1  0.83678448  0.16106317  0.01497555  1
  O2-  O565  1  0.83322438  0.16829881  0.34892565  1
  O2-  O566  1  0.81834797  0.14316026  0.70211623  1
  O2-  O567  1  0.83717819  0.40517441  0.02709678  1
  O2-  O568  1  0.84020204  0.42123221  0.35752298  1
  O2-  O569  1  0.82776928  0.41154435  0.68573108  1
  O2-  O570  1  0.83181204  0.66001184  0.02585132  1
  O2-  O571  1  0.83262429  0.66055034  0.34824975  1
  O2-  O572  1  0.83397748  0.66703331  0.68610145  1
  O2-  O573  1  0.83149998  0.91546722  0.03007205  1
  O2-  O574  1  0.82969727  0.91326926  0.35107468  1
  O2-  O575  1  0.89455358  0.95628409  0.71744229  1
