# generated using pymatgen
data_H2O
_symmetry_space_group_name_H-M   'P 1'
_cell_length_a   17.99704217
_cell_length_b   17.99381243
_cell_length_c   22.00263172
_cell_angle_alpha   89.99163146
_cell_angle_beta   90.00710038
_cell_angle_gamma   120.02817426
_symmetry_Int_Tables_number   1
_chemical_formula_structural   H2O
_chemical_formula_sum   'H384 O192'
_cell_volume   6168.87843643
_cell_formula_units_Z   192
loop_
 _symmetry_equiv_pos_site_id
 _symmetry_equiv_pos_as_xyz
  1  'x, y, z'
loop_
 _atom_type_symbol
 _atom_type_oxidation_number
  H+  1.0
  O2-  -2.0
loop_
 _atom_site_type_symbol
 _atom_site_label
 _atom_site_symmetry_multiplicity
 _atom_site_fract_x
 _atom_site_fract_y
 _atom_site_fract_z
 _atom_site_occupancy
  H+  H0  1  0.53093682  0.58444163  0.46616752  1
  H+  H1  1  0.83956140  0.68073329  0.80156181  1
  H+  H2  1  0.33328919  0.64939609  0.10588256  1
  H+  H3  1  0.38090276  0.11247694  0.65342384  1
  H+  H4  1  0.87754739  0.25399091  0.39090097  1
  H+  H5  1  0.52480906  0.12961958  0.49359371  1
  H+  H6  1  0.86049816  0.23073299  0.82465953  1
  H+  H7  1  0.12988178  0.27810227  0.49954696  1
  H+  H8  1  0.62442164  0.46586562  0.48439201  1
  H+  H9  1  0.09563268  0.13656416  0.50330885  1
  H+  H10  1  0.60929894  0.72352730  0.82632946  1
  H+  H11  1  0.11934890  0.47420099  0.82491179  1
  H+  H12  1  0.61722876  0.13407986  0.49234945  1
  H+  H13  1  0.60657246  0.46904245  0.82923414  1
  H+  H14  1  0.63697428  0.26644943  0.51056033  1
  H+  H15  1  0.69080833  0.09392098  0.27967957  1
  H+  H16  1  0.11527679  0.38519620  0.82918100  1
  H+  H17  1  0.50255436  0.62477057  0.17099783  1
  H+  H18  1  0.37732547  0.60068531  0.67039388  1
  H+  H19  1  0.59680666  0.00162479  0.35374284  1
  H+  H20  1  0.95683848  0.59738228  0.33122816  1
  H+  H21  1  0.98113133  0.36562686  0.83946417  1
  H+  H22  1  0.71018048  0.36550576  0.32501879  1
  H+  H23  1  0.13330955  0.85593649  0.51670187  1
  H+  H24  1  0.09862311  0.14359832  0.67641658  1
  H+  H25  1  0.85705485  0.97727995  0.49785146  1
  H+  H26  1  0.47756408  0.60573920  -0.00287866  1
  H+  H27  1  0.86287705  0.46450207  0.49527764  1
  H+  H28  1  0.10921954  0.65228223  0.16090990  1
  H+  H29  1  -0.02545544  0.62841144  0.00894094  1
  H+  H30  1  0.11371545  -0.03353380  0.50541197  1
  H+  H31  1  0.66677134  0.13207543  0.33488636  1
  H+  H32  1  0.09509933  0.14886547  0.83634804  1
  H+  H33  1  0.38652158  0.21949349  0.16085795  1
  H+  H34  1  0.53851817  0.12237088  0.82233084  1
  H+  H35  1  0.72367349  0.60468703  0.65219054  1
  H+  H36  1  0.16862352  0.25337537  0.32874030  1
  H+  H37  1  0.15133661  0.07677654  0.45074707  1
  H+  H38  1  0.37551415  0.26812834  0.51477396  1
  H+  H39  1  0.52018571  0.62140023  0.66641965  1
  H+  H40  1  0.38014182  0.98415856  0.33077036  1
  H+  H41  1  0.35869649  0.37891592  0.01326674  1
  H+  H42  1  0.65029530  0.78018028  0.98590898  1
  H+  H43  1  0.36815821  0.62539346  0.83944014  1
  H+  H44  1  0.65408771  0.10266000  0.84703388  1
  H+  H45  1  0.58301704  0.91014164  0.76192704  1
  H+  H46  1  0.74682899  0.60423565  0.81028735  1
  H+  H47  1  0.31289344  0.90901973  0.06981540  1
  H+  H48  1  0.48318631  0.84334552  0.82905035  1
  H+  H49  1  1.01064386  0.88048550  1.01617357  1
  H+  H50  1  0.36684081  0.62585513  0.16586668  1
  H+  H51  1  0.13874172  0.55257978  0.15486925  1
  H+  H52  1  0.37066791  0.14916843  0.81169604  1
  H+  H53  1  0.11536368  0.71050798  0.83078130  1
  H+  H54  1  0.22285194  0.36490858  0.49469326  1
  H+  H55  1  0.10218651  -0.00087295  0.99745122  1
  H+  H56  1  0.15022465  0.30820471  0.65199520  1
  H+  H57  1  0.85634258  0.35276212  0.33427994  1
  H+  H58  1  0.83217032  0.91334419  0.62213481  1
  H+  H59  1  0.21758017  0.34946508  0.00339406  1
  H+  H60  1  0.35631315  0.17899929  0.43463035  1
  H+  H61  1  0.67398611  0.56684044  0.56690274  1
  H+  H62  1  0.77988902  0.89390146  0.15064349  1
  H+  H63  1  0.35581093  0.38043006  0.50033208  1
  H+  H64  1  0.88506994  0.51064841  0.17400651  1
  H+  H65  1  0.51574149  0.91216829  0.34189363  1
  H+  H66  1  0.41861851  0.53439350  0.16398156  1
  H+  H67  1  0.36921892  0.71957508  0.67734314  1
  H+  H68  1  0.61348135  0.38447866  0.67578993  1
  H+  H69  1  0.62023009  0.36334996  0.31937652  1
  H+  H70  1  0.65218387  0.59883485  0.50566303  1
  H+  H71  1  0.22754916  0.15748573  0.81767538  1
  H+  H72  1  0.73764214  0.12773706  0.49526346  1
  H+  H73  1  0.52919644  0.12888770  0.15954926  1
  H+  H74  1  0.27051655  0.63211735  0.49556186  1
  H+  H75  1  0.24030904  0.87433685  0.32566195  1
  H+  H76  1  0.62760040  0.62469588  0.83682034  1
  H+  H77  1  0.37717745  0.61234185  0.51120167  1
  H+  H78  1  0.89203079  0.13588927  0.37376503  1
  H+  H79  1  0.85766514  0.37076822  0.16883011  1
  H+  H80  1  0.98035865  0.33987947  0.64851952  1
  H+  H81  1  0.11654511  0.45394899  0.66670772  1
  H+  H82  1  0.86520339  0.98517630  0.35183998  1
  H+  H83  1  0.11676031  0.09782805  0.34977024  1
  H+  H84  1  0.28919162  0.83369886  0.44999761  1
  H+  H85  1  0.13420279  0.76864099  0.66313009  1
  H+  H86  1  0.62833003  0.52656440  0.00505039  1
  H+  H87  1  0.11891103  0.51589775  -0.00380936  1
  H+  H88  1  0.19487144  0.21834995  0.62150224  1
  H+  H89  1  0.90819568  0.57292326  0.23172721  1
  H+  H90  1  0.79885477  0.12977043  0.00976806  1
  H+  H91  1  0.88335365  0.87179163  -0.00058607  1
  H+  H92  1  0.27679730  0.16202952  0.65829673  1
  H+  H93  1  0.61550821  0.22529806  0.15846523  1
  H+  H94  1  0.27143375  0.63096988  0.34078801  1
  H+  H95  1  0.85532005  0.37185393  0.48854772  1
  H+  H96  1  0.37333540  0.17337937  0.07387196  1
  H+  H97  1  0.72264396  0.33562624  0.99782827  1
  H+  H98  1  0.87352649  0.01350812  0.66187071  1
  H+  H99  1  0.49534066  0.11281462  0.32491470  1
  H+  H100  1  0.36254431  0.39057857  0.83727253  1
  H+  H101  1  0.87792247  0.12393856  0.82875483  1
  H+  H102  1  0.73466378  0.87964295  0.31976679  1
  H+  H103  1  0.02292092  0.87874513  0.50943312  1
  H+  H104  1  0.38866172  0.13111702  0.15690139  1
  H+  H105  1  0.38506087  0.01768005  0.50213847  1
  H+  H106  1  0.88238427  0.12857880  0.51217480  1
  H+  H107  1  0.61548909  0.88096933  0.67021848  1
  H+  H108  1  0.89112807  0.61735463  0.50922522  1
  H+  H109  1  0.89623273  0.88007547  0.16636879  1
  H+  H110  1  0.27791456  0.62945315  0.84012231  1
  H+  H111  1  0.95490172  0.33331459  0.49388814  1
  H+  H112  1  0.03354783  0.54777495  0.37682287  1
  H+  H113  1  0.87375752  0.85558169  0.66070209  1
  H+  H114  1  0.66148029  0.81780032  0.60342789  1
  H+  H115  1  0.86043903  0.22199270  0.66647385  1
  H+  H116  1  0.96384931  0.85774462  0.32398299  1
  H+  H117  1  0.11122757  0.38294579  1.01696533  1
  H+  H118  1  0.51767162  0.65169625  0.32827684  1
  H+  H119  1  0.13712993  0.61043884  0.51269682  1
  H+  H120  1  0.37291443  0.28412278  0.83901795  1
  H+  H121  1  0.88069626  0.98714342  0.00676857  1
  H+  H122  1  0.16653836  0.33471069  0.90591125  1
  H+  H123  1  0.48155668  0.36732405  0.66887663  1
  H+  H124  1  0.61361582  0.64087496  1.00415495  1
  H+  H125  1  0.62570852  0.61909083  0.33977861  1
  H+  H126  1  0.72556550  0.35546834  0.50873201  1
  H+  H127  1  0.77255975  0.38173430  0.82836931  1
  H+  H128  1  0.88545134  0.52539277  0.65755960  1
  H+  H129  1  0.73024956  0.11189307  0.65730512  1
  H+  H130  1  -0.03556050  0.34081458  0.19168778  1
  H+  H131  1  0.02226902  0.15042936  0.35181002  1
  H+  H132  1  0.38808338  0.33714424  0.17363187  1
  H+  H133  1  0.92983902  1.13335571  0.00644554  1
  H+  H134  1  0.64651069  0.76059994  0.50215511  1
  H+  H135  1  0.15116987  1.06931019  0.29479942  1
  H+  H136  1  0.12236340  0.10471975  0.19573460  1
  H+  H137  1  0.37841389  0.63743103  1.01216040  1
  H+  H138  1  0.36587130  0.13395058  0.49363471  1
  H+  H139  1  0.07893983  0.40598114  0.07749449  1
  H+  H140  1  0.15514312  0.78403807  0.32861059  1
  H+  H141  1  0.39851267  1.01451097  0.17336943  1
  H+  H142  1  0.10597044  0.38684676  0.48680777  1
  H+  H143  1  0.67554364  0.07396315  0.94394028  1
  H+  H144  1  0.87145165  0.12584530  0.16716973  1
  H+  H145  1  0.40760097  0.08575027  0.84519456  1
  H+  H146  1  0.63879562  0.26797274  0.83401249  1
  H+  H147  1  -0.03307341  0.85284799  0.66611908  1
  H+  H148  1  0.25725083  0.35468213  0.16489223  1
  H+  H149  1  0.40055158  0.27667040  0.99921649  1
  H+  H150  1  0.87064103  0.77547775  0.32248895  1
  H+  H151  1  0.85114357  0.12906344  0.67480909  1
  H+  H152  1  0.77716317  0.40588902  0.67399941  1
  H+  H153  1  0.77137889  0.37480842  0.16412624  1
  H+  H154  1  0.41654253  0.33492669  0.93998424  1
  H+  H155  1  0.08937977  0.95735963  0.34855993  1
  H+  H156  1  0.39926325  -0.00545035  0.84817114  1
  H+  H157  1  0.38268929  0.51845030  0.84734305  1
  H+  H158  1  0.62303377  0.97282136  0.00560795  1
  H+  H159  1  0.61613026  0.52478070  0.35117634  1
  H+  H160  1  0.61710700  0.97137054  0.66679925  1
  H+  H161  1  0.87550593  0.91009997  0.80688903  1
  H+  H162  1  0.47159338  0.36161241  0.84069502  1
  H+  H163  1  0.36144904  0.85991100  0.83276372  1
  H+  H164  1  0.65999861  0.10851765  1.00605055  1
  H+  H165  1  0.83794346  0.66884223  0.40168376  1
  H+  H166  1  0.61473002  0.37444099  0.48413882  1
  H+  H167  1  0.78495925  0.63095531  0.50015497  1
  H+  H168  1  0.73086471  0.86295814  0.82515164  1
  H+  H169  1  0.15650531  0.61264969  0.83958258  1
  H+  H170  1  0.85421012  0.73293011  0.00750257  1
  H+  H171  1  0.32943918  0.28864178  0.30214180  1
  H+  H172  1  0.73991706  0.11493029  0.18132286  1
  H+  H173  1  0.22884555  0.60527089  0.66347838  1
  H+  H174  1  0.27427001  0.86297633  0.84013132  1
  H+  H175  1  1.00307721  0.88493289  0.84110980  1
  H+  H176  1  0.49086087  0.86454238  -0.02130859  1
  H+  H177  1  0.62161351  0.88460353  0.99590577  1
  H+  H178  1  0.64251293  0.59013837  0.22548645  1
  H+  H179  1  0.00613923  0.14909911  0.82687721  1
  H+  H180  1  0.92283748  0.32954077  0.93590161  1
  H+  H181  1  0.62212912  0.22211911  0.00751495  1
  H+  H182  1  0.38246212  0.85447250  0.31516098  1
  H+  H183  1  0.37952363  0.76130969  0.16686304  1
  H+  H184  1  0.11095343  -0.03588036  0.67431827  1
  H+  H185  1  0.11363230  0.89531420  0.16071984  1
  H+  H186  1  0.04073488  0.61073452  0.82292329  1
  H+  H187  1  0.61437948  0.87793635  0.81989428  1
  H+  H188  1  0.87403387  0.60962184  0.32661572  1
  H+  H189  1  0.27397238  0.88676398  0.16451975  1
  H+  H190  1  0.65396554  0.11800127  0.18212498  1
  H+  H191  1  0.25274389  0.34667196  0.32462201  1
  H+  H192  1  0.14558349  0.96590516  0.82380054  1
  H+  H193  1  0.51862404  0.40368360  0.01732108  1
  H+  H194  1  0.39624193  0.52464335  0.32913045  1
  H+  H195  1  0.46323350  0.10207847  0.65438749  1
  H+  H196  1  0.89228778  0.36600467  0.84145534  1
  H+  H197  1  0.88600668  0.86041503  0.51159079  1
  H+  H198  1  0.12562510  0.53043440  0.32654253  1
  H+  H199  1  0.87055750  0.72497563  0.50072254  1
  H+  H200  1  0.63470590  0.35403481  0.84113054  1
  H+  H201  1  0.63571991  0.74422461  0.15888631  1
  H+  H202  1  0.12298897  0.24288636  0.17297605  1
  H+  H203  1  0.37825874  0.38718248  0.68561107  1
  H+  H204  1  0.27225158  0.86615435  0.67955683  1
  H+  H205  1  0.64014178  0.85627424  0.16452173  1
  H+  H206  1  0.71469706  0.65683368  0.87409088  1
  H+  H207  1  0.87782129  0.25321220  0.18570268  1
  H+  H208  1  0.13228400  0.02405203  0.19212172  1
  H+  H209  1  0.13182281  0.27833668  0.84488651  1
  H+  H210  1  0.95990083  0.10465832  0.66553918  1
  H+  H211  1  0.88392726  1.03865157  0.81953510  1
  H+  H212  1  1.00115564  0.11843837  0.16548183  1
  H+  H213  1  0.31378694  0.14111228  1.01425292  1
  H+  H214  1  0.09560528  0.72618057  0.00875755  1
  H+  H215  1  0.85957826  0.46987986  0.83695154  1
  H+  H216  1  0.41289495  0.12155423  0.32429062  1
  H+  H217  1  0.09827515  0.90884719  0.76531587  1
  H+  H218  1  0.38563745  0.84365273  0.66523723  1
  H+  H219  1  0.57860584  0.43024924  0.07724706  1
  H+  H220  1  0.72188925  0.59264180  0.18854365  1
  H+  H221  1  0.65546972  0.03156666  0.50466855  1
  H+  H222  1  0.41197735  0.11269185  0.99642907  1
  H+  H223  1  0.73955189  0.87066260  0.98699261  1
  H+  H224  1  0.84655909  0.61483576  0.16007281  1
  H+  H225  1  0.38682876  0.51498851  0.00153400  1
  H+  H226  1  0.34175762  0.41877898  0.19759148  1
  H+  H227  1  0.38055446  0.76496758  0.32115619  1
  H+  H228  1  0.53023860  0.12151369  1.01400415  1
  H+  H229  1  0.60873447  0.71091168  0.66541938  1
  H+  H230  1  0.41554767  0.18707734  0.80809920  1
  H+  H231  1  0.20963403  0.85669541  0.99981070  1
  H+  H232  1  1.00656104  0.13837594  0.50579127  1
  H+  H233  1  0.64935110  0.28146085  0.66008161  1
  H+  H234  1  0.51978862  0.63386551  0.83529990  1
  H+  H235  1  0.11057877  0.72264303  0.49851892  1
  H+  H236  1  -0.01726516  0.61446174  0.51036375  1
  H+  H237  1  0.11093596  0.59964384  0.99029932  1
  H+  H238  1  0.39667264  0.78145777  -0.01778711  1
  H+  H239  1  0.09058349  0.35425598  0.31058474  1
  H+  H240  1  0.05271048  0.31064094  0.31670984  1
  H+  H241  1  0.02717382  0.63282478  0.66842509  1
  H+  H242  1  0.51793666  0.86408897  0.15107183  1
  H+  H243  1  0.84252685  0.47266460  0.33974477  1
  H+  H244  1  0.58030004  0.16945920  0.61029646  1
  H+  H245  1  0.62107282  0.00348549  0.84956987  1
  H+  H246  1  0.07879153  0.03061811  0.83812122  1
  H+  H247  1  0.41867419  0.82451575  0.56983799  1
  H+  H248  1  0.13092483  0.78135543  0.17336130  1
  H+  H249  1  0.47958341  0.85266567  0.66111831  1
  H+  H250  1  0.63368320  0.35436423  0.16933562  1
  H+  H251  1  0.54039223  0.89355846  0.50627484  1
  H+  H252  1  0.13776667  0.84075029  0.84237030  1
  H+  H253  1  0.50604180  0.38503215  0.33588591  1
  H+  H254  1  0.39921698  0.24985538  0.33933985  1
  H+  H255  1  0.22311585  0.85460473  0.51418941  1
  H+  H256  1  0.13983036  0.60405092  0.66045178  1
  H+  H257  1  0.52319975  0.37357879  0.16852624  1
  H+  H258  1  0.88029384  0.22364415  0.00827255  1
  H+  H259  1  0.89113098  0.61950584  0.64858223  1
  H+  H260  1  0.10723334  0.35404755  0.17328391  1
  H+  H261  1  0.36033421  0.63102394  0.34049545  1
  H+  H262  1  0.36626312  0.86758582  0.49546648  1
  H+  H263  1  0.09573400  0.87499613  0.33351148  1
  H+  H264  1  0.62439266  0.88594472  0.50846646  1
  H+  H265  1  0.10055424  0.62677390  0.34425351  1
  H+  H266  1  0.34625256  0.96445068  0.00981225  1
  H+  H267  1  0.85415835  0.36593449  1.00811339  1
  H+  H268  1  0.38942790  0.27828998  0.66883583  1
  H+  H269  1  0.36036825  0.47226176  0.49918063  1
  H+  H270  1  1.02398738  0.89677131  0.16139705  1
  H+  H271  1  0.85537688  0.58753847  0.84845047  1
  H+  H272  1  0.38461232  0.73823091  0.83714815  1
  H+  H273  1  0.76254055  0.63409418  0.35454058  1
  H+  H274  1  0.07601672  0.17352211  0.41252026  1
  H+  H275  1  0.95118885  0.63196498  0.86635161  1
  H+  H276  1  0.73178171  0.85204488  0.50678315  1
  H+  H277  1  0.86269965  0.72431530  0.66414915  1
  H+  H278  1  0.97807872  0.35853199  0.99803305  1
  H+  H279  1  0.76492452  0.63998747  0.00497311  1
  H+  H280  1  -0.01263468  0.40730622  0.35226478  1
  H+  H281  1  0.90654561  0.81473444  0.84560243  1
  H+  H282  1  0.39250424  0.76817778  0.50908084  1
  H+  H283  1  0.12378999  0.26483779  0.99824917  1
  H+  H284  1  0.10533859  0.43748622  0.19038427  1
  H+  H285  1  0.86510715  0.89536950  0.34200424  1
  H+  H286  1  0.87391581  0.63027546  1.00753306  1
  H+  H287  1  0.26973420  0.38637945  0.83484318  1
  H+  H288  1  0.17036330  0.57864413  0.56921473  1
  H+  H289  1  0.57055383  0.40719602  0.39353999  1
  H+  H290  1  0.41070461  0.82230711  0.22434273  1
  H+  H291  1  0.06511736  0.16425333  0.73872354  1
  H+  H292  1  0.06335133  0.14799470  0.10562571  1
  H+  H293  1  0.17951780  0.09575288  0.99015907  1
  H+  H294  1  0.39700090  0.56614916  0.60853322  1
  H+  H295  1  0.10268610  0.47188032  0.49796938  1
  H+  H296  1  0.35254043  0.42414551  0.40346988  1
  H+  H297  1  0.17328359  0.30016986  0.23251429  1
  H+  H298  1  0.65488952  0.57535239  0.93931365  1
  H+  H299  1  0.92017747  0.58365468  0.57974055  1
  H+  H300  1  0.05339198  0.43823234  0.40908026  1
  H+  H301  1  0.82318043  0.39377037  0.06683866  1
  H+  H302  1  0.66025383  0.30388199  0.93824289  1
  H+  H303  1  0.61192131  0.46264481  0.17460803  1
  H+  H304  1  0.41327970  0.31696570  0.24043039  1
  H+  H305  1  0.92161143  0.84874325  0.94132866  1
  H+  H306  1  0.08682360  0.65888850  0.72800386  1
  H+  H307  1  0.61364312  0.47346118  0.67376475  1
  H+  H308  1  0.82489709  0.64565023  0.71350094  1
  H+  H309  1  0.07431397  0.65208517  0.44224170  1
  H+  H310  1  0.89775680  0.58015583  0.95318177  1
  H+  H311  1  0.07082540  0.11227634  0.00373046  1
  H+  H312  1  0.24683851  0.23650247  0.77737930  1
  H+  H313  1  0.58944693  0.67849354  0.06167675  1
  H+  H314  1  0.81448343  0.41278526  0.39976519  1
  H+  H315  1  0.67184878  0.33934182  0.60174717  1
  H+  H316  1  0.61403994  0.23349536  0.34049262  1
  H+  H317  1  0.59032107  0.17351274  0.40047239  1
  H+  H318  1  0.91254638  0.05905263  0.22557824  1
  H+  H319  1  0.41373086  0.57537859  0.90869538  1
  H+  H320  1  0.23353627  0.11506991  0.49017731  1
  H+  H321  1  0.57813382  0.89268478  0.09173350  1
  H+  H322  1  0.11458228  0.87695514  0.67342083  1
  H+  H323  1  0.16840221  0.84002911  0.23266322  1
  H+  H324  1  0.36920284  0.47983353  0.68202355  1
  H+  H325  1  0.06604916  0.66735325  0.06986723  1
  H+  H326  1  0.89957327  0.08615233  0.57153373  1
  H+  H327  1  0.33644037  0.66131710  0.73820510  1
  H+  H328  1  0.63147074  0.60148740  0.65200634  1
  H+  H329  1  0.35599771  0.92491141  0.38922756  1
  H+  H330  1  0.89280145  0.31380537  0.28462178  1
  H+  H331  1  0.01340079  0.63688136  0.16291091  1
  H+  H332  1  0.33087710  0.65971844  0.43561918  1
  H+  H333  1  0.07814866  0.91774956  0.07339173  1
  H+  H334  1  0.16492976  0.58518120  0.26489940  1
  H+  H335  1  0.83928489  0.92714774  0.06603457  1
  H+  H336  1  0.86933481  0.98803342  0.15320085  1
  H+  H337  1  0.35849217  0.87723266  0.15821849  1
  H+  H338  1  0.12000574  0.85566238  0.99654106  1
  H+  H339  1  0.67762693  0.08166689  0.59416718  1
  H+  H340  1  0.68051314  0.83739103  0.88930174  1
  H+  H341  1  0.40237331  0.32847859  0.57398088  1
  H+  H342  1  0.83350908  0.91794362  0.74566412  1
  H+  H343  1  0.38206482  0.39319762  0.34253801  1
  H+  H344  1  0.83578709  0.91918156  0.43822616  1
  H+  H345  1  0.72195396  0.84686937  0.66121623  1
  H+  H346  1  0.46622770  0.23500812  0.37956774  1
  H+  H347  1  0.58913847  0.16231184  0.08131784  1
  H+  H348  1  0.58646057  0.15855726  0.75981625  1
  H+  H349  1  0.17707146  0.13292361  0.58592711  1
  H+  H350  1  0.58100128  0.69589590  0.38319387  1
  H+  H351  1  0.15532198  0.81193744  0.90707468  1
  H+  H352  1  0.46912856  0.62942185  0.52991661  1
  H+  H353  1  0.12699303  0.06350351  0.90172374  1
  H+  H354  1  0.82563467  0.17267028  0.76505787  1
  H+  H355  1  0.32757453  0.88638470  0.74011928  1
  H+  H356  1  0.43582189  0.06893902  0.94091610  1
  H+  H357  1  0.16577033  0.82944585  0.60490289  1
  H+  H358  1  0.84799002  0.16405495  0.10814303  1
  H+  H359  1  0.23228633  0.62149695  0.17283436  1
  H+  H360  1  0.31403176  0.17146543  0.72441063  1
  H+  H361  1  0.68283006  0.84345638  0.22604380  1
  H+  H362  1  0.18071176  0.32409363  0.58408390  1
  H+  H363  1  0.33044984  0.40812281  0.07310181  1
  H+  H364  1  0.16871887  0.57805307  0.90410470  1
  H+  H365  1  0.42980738  0.82059247  0.89714980  1
  H+  H366  1  0.43434549  0.07772715  0.23202823  1
  H+  H367  1  0.62193696  0.12960773  0.65153303  1
  H+  H368  1  0.41047226  0.07456976  0.56278599  1
  H+  H369  1  0.64121759  0.65799198  0.14597578  1
  H+  H370  1  0.41971029  0.57978534  0.26667463  1
  H+  H371  1  0.91037937  0.82672763  0.57219790  1
  H+  H372  1  0.91794349  0.84747290  0.22758143  1
  H+  H373  1  0.42788639  0.72212644  0.04896427  1
  H+  H374  1  0.91540672  0.31088187  0.59154537  1
  H+  H375  1  0.88520492  0.11378975  0.30497231  1
  H+  H376  1  0.81287350  0.65043868  0.10693328  1
  H+  H377  1  0.65839154  0.32359250  0.22991705  1
  H+  H378  1  0.08489322  0.39786403  0.72533127  1
  H+  H379  1  0.83817642  0.43750412  0.73306959  1
  H+  H380  1  0.64297749  0.79713469  0.31351818  1
  H+  H381  1  0.61205467  0.60917403  0.42506194  1
  H+  H382  1  0.58044186  0.41396646  0.76821264  1
  H+  H383  1  0.34241140  0.42033678  0.74868005  1
  O2-  O384  1  0.06688852  0.15124379  0.15020472  1
  O2-  O385  1  0.06754082  0.16880089  0.49031369  1
  O2-  O386  1  0.07231342  0.18248897  0.81698010  1
  O2-  O387  1  0.07866575  0.38900933  0.16255881  1
  O2-  O388  1  0.07066319  0.41449883  0.47834140  1
  O2-  O389  1  0.08565403  0.41398956  0.81064074  1
  O2-  O390  1  0.07275121  0.67482994  0.14529882  1
  O2-  O391  1  0.07781755  0.65984434  0.48750418  1
  O2-  O392  1  0.09626513  0.65493143  0.80765437  1
  O2-  O393  1  0.08502475  0.92581683  0.14371049  1
  O2-  O394  1  0.08546566  0.90347331  0.50248831  1
  O2-  O395  1  0.10192813  0.90773611  0.81138526  1
  O2-  O396  1  0.36418635  0.16446396  0.13769752  1
  O2-  O397  1  0.33776353  0.16616729  0.47835029  1
  O2-  O398  1  0.27378128  0.20582233  0.79464078  1
  O2-  O399  1  0.32206164  0.39234870  0.15771710  1
  O2-  O400  1  0.33214200  0.41525195  0.47975082  1
  O2-  O401  1  0.33115614  0.41867627  0.81930124  1
  O2-  O402  1  0.32861739  0.64717903  0.15118142  1
  O2-  O403  1  0.33187110  0.66099185  0.48128278  1
  O2-  O404  1  0.33950648  0.65868256  0.82301980  1
  O2-  O405  1  0.33324892  0.91415751  0.14729411  1
  O2-  O406  1  0.32671584  0.88488222  0.47361729  1
  O2-  O407  1  0.33347462  0.89408639  0.82321878  1
  O2-  O408  1  0.58914610  0.16468732  0.14159029  1
  O2-  O409  1  0.58600309  0.16547847  0.48125056  1
  O2-  O410  1  0.59366855  0.16582698  0.80374806  1
  O2-  O411  1  0.58309884  0.40713225  0.15152047  1
  O2-  O412  1  0.59180842  0.40879738  0.46504619  1
  O2-  O413  1  0.57634744  0.41001375  0.81410130  1
  O2-  O414  1  0.60270401  0.68111106  0.14128037  1
  O2-  O415  1  0.59026056  0.62990971  0.46021501  1
  O2-  O416  1  0.57841397  0.66060084  0.81757973  1
  O2-  O417  1  0.57610114  0.88128912  0.13587047  1
  O2-  O418  1  0.60346529  0.92703792  0.50820826  1
  O2-  O419  1  0.57714965  0.90224700  0.80742173  1
  O2-  O420  1  0.84358085  0.16141851  0.15308146  1
  O2-  O421  1  0.85459538  0.20613812  0.47507764  1
  O2-  O422  1  0.82585157  0.17069743  0.81028262  1
  O2-  O423  1  0.83271922  0.40441215  0.15075606  1
  O2-  O424  1  0.82789855  0.40711489  0.47738445  1
  O2-  O425  1  0.83367800  0.41587357  0.81395935  1
  O2-  O426  1  0.80836145  0.63834139  0.15068397  1
  O2-  O427  1  0.84643991  0.66439518  0.48549745  1
  O2-  O428  1  0.80577875  0.61887418  0.79500525  1
  O2-  O429  1  0.83956273  0.92611664  0.13393994  1
  O2-  O430  1  0.83428884  0.91711434  0.48417087  1
  O2-  O431  1  0.83290169  0.92368287  0.79052669  1
  O2-  O432  1  0.15096926  0.07692447  0.21617543  1
  O2-  O433  1  0.16850384  0.08483320  0.49360268  1
  O2-  O434  1  0.13413667  0.07122374  0.85608077  1
  O2-  O435  1  0.16024153  0.30512178  0.18874264  1
  O2-  O436  1  0.16295554  0.34016890  0.51047223  1
  O2-  O437  1  0.17105245  0.33843590  0.86068642  1
  O2-  O438  1  0.16992885  0.59993404  0.18318613  1
  O2-  O439  1  0.16897009  0.58034549  0.52351010  1
  O2-  O440  1  0.18290667  0.58158391  0.85901207  1
  O2-  O441  1  0.16737597  0.84165478  0.18741282  1
  O2-  O442  1  0.16322515  0.82190692  0.52884646  1
  O2-  O443  1  0.16099379  0.80664596  0.86177153  1
  O2-  O444  1  0.43482768  0.07604527  0.18637308  1
  O2-  O445  1  0.41616015  0.07695461  0.51671851  1
  O2-  O446  1  0.43646751  0.05609815  0.86145227  1
  O2-  O447  1  0.42343901  0.31626014  0.19312013  1
  O2-  O448  1  0.39399385  0.32685369  0.52968313  1
  O2-  O449  1  0.41314739  0.33894027  0.85914110  1
  O2-  O450  1  0.44088018  0.58956307  0.18465384  1
  O2-  O451  1  0.40900733  0.58448416  0.53040978  1
  O2-  O452  1  0.41422837  0.57900336  0.86296062  1
  O2-  O453  1  0.40942467  0.82266715  0.17840228  1
  O2-  O454  1  0.42023359  0.82834291  0.52426331  1
  O2-  O455  1  0.42264341  0.80982664  0.84838198  1
  O2-  O456  1  0.68294549  0.09035600  0.20145708  1
  O2-  O457  1  0.68038633  0.09456390  0.51422417  1
  O2-  O458  1  0.63631431  0.05443003  0.87500595  1
  O2-  O459  1  0.66270846  0.32221755  0.18453520  1
  O2-  O460  1  0.66631477  0.32700371  0.52609158  1
  O2-  O461  1  0.66741009  0.32575259  0.85384560  1
  O2-  O462  1  0.66648130  0.55535131  0.21163961  1
  O2-  O463  1  0.68405045  0.57128661  0.52147498  1
  O2-  O464  1  0.67157039  0.60430993  0.85402840  1
  O2-  O465  1  0.67898148  0.83417529  0.17999847  1
  O2-  O466  1  0.67127743  0.81642006  0.52221262  1
  O2-  O467  1  0.67269379  0.83188951  0.84413767  1
  O2-  O468  1  0.91365472  0.07328101  0.18290259  1
  O2-  O469  1  0.90325710  0.08953539  0.52586623  1
  O2-  O470  1  0.91272876  0.09515081  0.83957028  1
  O2-  O471  1  0.90362958  0.31304967  0.20405703  1
  O2-  O472  1  0.89555355  0.30744754  0.51061883  1
  O2-  O473  1  0.92231789  0.33649503  0.85760162  1
  O2-  O474  1  0.91300980  0.57257751  0.18653500  1
  O2-  O475  1  0.92029281  0.58379226  0.52569370  1
  O2-  O476  1  0.89702776  0.57921417  0.87375029  1
  O2-  O477  1  0.92877296  0.85339732  0.18318271  1
  O2-  O478  1  0.91269225  0.82683850  0.52654711  1
  O2-  O479  1  0.94613063  0.87411602  0.85673548  1
  O2-  O480  1  0.14554750  0.06456869  0.34024745  1
  O2-  O481  1  0.19078018  0.15980175  0.62608060  1
  O2-  O482  1  0.12108625  0.05804085  0.97619273  1
  O2-  O483  1  0.21464480  0.29447999  0.30097452  1
  O2-  O484  1  0.19274201  0.30733193  0.62467988  1
  O2-  O485  1  0.15889106  0.32574062  0.98587525  1
  O2-  O486  1  0.16941910  0.58762006  0.30975825  1
  O2-  O487  1  0.17003437  0.57383667  0.64585786  1
  O2-  O488  1  0.14220225  0.57171029  0.97484888  1
  O2-  O489  1  0.17875438  0.84131724  0.31153104  1
  O2-  O490  1  0.16338598  0.83038108  0.65059944  1
  O2-  O491  1  0.14837422  0.82310000  0.98240731  1
  O2-  O492  1  0.43467572  0.08417494  0.30811510  1
  O2-  O493  1  0.40591945  0.07907886  0.63624775  1
  O2-  O494  1  0.43457848  0.07336493  0.98605127  1
  O2-  O495  1  0.39219631  0.31595173  0.30611604  1
  O2-  O496  1  0.41885382  0.34107408  0.65790326  1
  O2-  O497  1  0.41569664  0.33558673  0.98515190  1
  O2-  O498  1  0.41776184  0.58421267  0.31141926  1
  O2-  O499  1  0.40235513  0.56549035  0.65367304  1
  O2-  O500  1  0.41566907  0.57437009  0.98403529  1
  O2-  O501  1  0.40746286  0.82032263  0.29880309  1
  O2-  O502  1  0.41862545  0.81663775  0.64739824  1
  O2-  O503  1  0.43197872  0.83473625  0.95910140  1
  O2-  O504  1  0.69392461  0.09769592  0.32504558  1
  O2-  O505  1  0.66981497  0.07765193  0.63924173  1
  O2-  O506  1  0.68826541  0.07832544  0.98896019  1
  O2-  O507  1  0.65113784  0.33254922  0.30702486  1
  O2-  O508  1  0.67328787  0.34221858  0.64767093  1
  O2-  O509  1  0.66028153  0.29940927  0.98312730  1
  O2-  O510  1  0.64875775  0.58733458  0.36259745  1
  O2-  O511  1  0.66230023  0.56844284  0.64052964  1
  O2-  O512  1  0.66304106  0.58647865  0.98333676  1
  O2-  O513  1  0.68002195  0.85530224  0.29690053  1
  O2-  O514  1  0.65928031  0.81907339  0.64855808  1
  O2-  O515  1  0.68095493  0.83899980  0.96823371  1
  O2-  O516  1  0.90528459  0.10288765  0.34327098  1
  O2-  O517  1  0.89991447  0.07427655  0.64790872  1
  O2-  O518  1  0.96106368  0.10283499  0.99121402  1
  O2-  O519  1  0.89194519  0.32475494  0.32905407  1
  O2-  O520  1  0.91903987  0.31207023  0.63651314  1
  O2-  O521  1  0.91894341  0.32449192  0.98130230  1
  O2-  O522  1  0.89998311  0.57505645  0.31132898  1
  O2-  O523  1  0.92168612  0.58688083  0.63603911  1
  O2-  O524  1  0.90647247  0.59590161  0.99711594  1
  O2-  O525  1  0.90242108  0.83612491  0.30936530  1
  O2-  O526  1  0.90806726  0.82107876  0.64978229  1
  O2-  O527  1  0.91070205  0.83652410  0.98511388  1
  O2-  O528  1  0.04725378  0.14872391  0.01942241  1
  O2-  O529  1  0.08095951  0.17119268  0.36745936  1
  O2-  O530  1  0.05516205  0.15484662  0.69427087  1
  O2-  O531  1  0.08096023  0.41262237  0.03279604  1
  O2-  O532  1  0.03945617  0.45808600  0.37007105  1
  O2-  O533  1  0.08883896  0.39376157  0.68071035  1
  O2-  O534  1  0.06006942  0.66459090  0.02403505  1
  O2-  O535  1  0.04988497  0.61001879  0.37068648  1
  O2-  O536  1  0.08760813  0.66216206  0.68290688  1
  O2-  O537  1  0.07330820  0.91319758  0.02644837  1
  O2-  O538  1  0.05682717  0.89297997  0.35050360  1
  O2-  O539  1  0.08376167  0.90676175  0.69200007  1
  O2-  O540  1  0.37410992  0.17622998  0.02479200  1
  O2-  O541  1  0.40688228  0.20362694  0.36552684  1
  O2-  O542  1  0.32958310  0.17269196  0.68129578  1
  O2-  O543  1  0.32804304  0.40933290  0.02832807  1
  O2-  O544  1  0.35823769  0.43003353  0.35816904  1
  O2-  O545  1  0.34794683  0.41993851  0.70236078  1
  O2-  O546  1  0.37068249  0.68297208  0.03302057  1
  O2-  O547  1  0.33097242  0.66091372  0.35762222  1
  O2-  O548  1  0.33534236  0.65852208  0.69329887  1
  O2-  O549  1  0.30272142  0.90754730  0.02516063  1
  O2-  O550  1  0.34422369  0.92273312  0.34537737  1
  O2-  O551  1  0.32929594  0.88095249  0.69558399  1
  O2-  O552  1  0.59103040  0.15734014  0.03068443  1
  O2-  O553  1  0.59044954  0.17337314  0.35525216  1
  O2-  O554  1  0.59000314  0.16367632  0.65331123  1
  O2-  O555  1  0.57745907  0.44179785  0.03287739  1
  O2-  O556  1  0.56700062  0.41519665  0.34799921  1
  O2-  O557  1  0.58283923  0.41396670  0.69214406  1
  O2-  O558  1  0.58325274  0.67274424  0.01652695  1
  O2-  O559  1  0.58040125  0.68878538  0.33905963  1
  O2-  O560  1  0.58254495  0.64798552  0.67259346  1
  O2-  O561  1  0.58622208  0.90903335  0.01159696  1
  O2-  O562  1  0.54020606  0.95939179  0.37116813  1
  O2-  O563  1  0.58603116  0.91246588  0.68491615  1
  O2-  O564  1  0.85902482  0.16433548  0.02485469  1
  O2-  O565  1  0.89401284  0.21786546  0.41621729  1
  O2-  O566  1  0.82288394  0.16280793  0.68585322  1
  O2-  O567  1  0.81762059  0.38970142  0.02197505  1
  O2-  O568  1  0.80964271  0.41186684  0.35449070  1
  O2-  O569  1  0.83664029  0.44587787  0.68857876  1
  O2-  O570  1  0.82571905  0.67128778  0.02098142  1
  O2-  O571  1  0.82625440  0.66380767  0.35733598  1
  O2-  O572  1  0.83340909  0.65855463  0.66968196  1
  O2-  O573  1  0.84168214  0.92671823  0.01858523  1
  O2-  O574  1  0.83527907  0.92356406  0.36256496  1
  O2-  O575  1  0.82848054  0.89945500  0.66536671  1
