# generated using pymatgen
data_H2O
_symmetry_space_group_name_H-M   'P 1'
_cell_length_a   17.99236562
_cell_length_b   17.99041509
_cell_length_c   22.00019354
_cell_angle_alpha   89.96471682
_cell_angle_beta   90.03073438
_cell_angle_gamma   119.98983121
_symmetry_Int_Tables_number   1
_chemical_formula_structural   H2O
_chemical_formula_sum   'H384 O192'
_cell_volume   6167.80989072
_cell_formula_units_Z   192
loop_
 _symmetry_equiv_pos_site_id
 _symmetry_equiv_pos_as_xyz
  1  'x, y, z'
loop_
 _atom_type_symbol
 _atom_type_oxidation_number
  H+  1.0
  O2-  -2.0
loop_
 _atom_site_type_symbol
 _atom_site_label
 _atom_site_symmetry_multiplicity
 _atom_site_fract_x
 _atom_site_fract_y
 _atom_site_fract_z
 _atom_site_occupancy
  H+  H0  1  -0.02063031  0.60964340  0.16984443  1
  H+  H1  1  0.97025535  0.10969566  0.17598842  1
  H+  H2  1  0.86437133  0.23348919  0.67003452  1
  H+  H3  1  0.89019612  0.27678669  0.33348377  1
  H+  H4  1  0.26873384  0.38069232  0.50364911  1
  H+  H5  1  0.60629676  0.40440206  0.34527411  1
  H+  H6  1  0.77682716  0.39381563  0.50183880  1
  H+  H7  1  0.11561636  0.96665059  0.82501499  1
  H+  H8  1  0.65213941  0.28822678  0.84645534  1
  H+  H9  1  0.88766420  0.86067788  0.51030075  1
  H+  H10  1  0.38303673  0.60765187  0.66120723  1
  H+  H11  1  0.72734516  0.39308905  0.31824605  1
  H+  H12  1  0.66458878  0.35766245  0.26055777  1
  H+  H13  1  0.36187628  0.65570637  0.33915771  1
  H+  H14  1  0.55157316  0.93190885  0.49949837  1
  H+  H15  1  0.47213000  0.86917215  0.33002163  1
  H+  H16  1  0.64537155  0.11468171  0.66402797  1
  H+  H17  1  0.62638061  0.51353399  -0.00122629  1
  H+  H18  1  0.66671896  0.62334491  0.55993077  1
  H+  H19  1  0.11674040  0.73583571  0.34557481  1
  H+  H20  1  0.27585963  0.72059267  0.71096335  1
  H+  H21  1  0.45256102  0.03398171  0.85110021  1
  H+  H22  1  0.15655748  0.54583659  0.15967232  1
  H+  H23  1  0.36206426  0.74201803  0.50082814  1
  H+  H24  1  0.36926423  0.20119124  0.00332404  1
  H+  H25  1  0.81679277  0.89388923  0.11712746  1
  H+  H26  1  0.35986386  0.46881880  0.49991167  1
  H+  H27  1  0.13619990  0.22354757  0.01413846  1
  H+  H28  1  0.63462804  0.53141083  0.33274788  1
  H+  H29  1  0.84946171  0.59708331  0.00452562  1
  H+  H30  1  0.86810274  0.71714366  0.78719123  1
  H+  H31  1  0.22395966  0.37263572  0.66200045  1
  H+  H32  1  0.47456887  0.26573177  0.94247367  1
  H+  H33  1  0.36884129  0.54704049  -0.00132270  1
  H+  H34  1  0.23133530  0.87306639  0.32941237  1
  H+  H35  1  0.51599410  0.89528151  0.83697323  1
  H+  H36  1  0.02558644  0.62017824  0.68216959  1
  H+  H37  1  -0.01315639  0.37380896  0.84095512  1
  H+  H38  1  0.38507805  0.08865484  0.99744023  1
  H+  H39  1  0.46937106  0.61212182  -0.00428339  1
  H+  H40  1  0.23419661  0.09630797  0.99502413  1
  H+  H41  1  0.47639746  0.11384787  0.50173767  1
  H+  H42  1  0.59932839  0.78924137  0.53393643  1
  H+  H43  1  0.89924230  0.76800122  0.32914253  1
  H+  H44  1  0.88503691  0.76717564  0.00206865  1
  H+  H45  1  0.90149433  0.52550599  0.32970439  1
  H+  H46  1  0.11534171  0.63226023  0.84032416  1
  H+  H47  1  0.87258696  0.39472628  0.82853712  1
  H+  H48  1  0.38617903  0.77634387  0.85703166  1
  H+  H49  1  0.33745486  0.17115365  0.39509523  1
  H+  H50  1  0.60631248  0.38809997  0.16076201  1
  H+  H51  1  0.88971915  0.36088988  0.66122651  1
  H+  H52  1  0.86215591  0.15522192  0.02275634  1
  H+  H53  1  0.36415605  0.38473360  0.82094582  1
  H+  H54  1  0.87898092  0.63576469  0.69141076  1
  H+  H55  1  0.13700711  0.88107811  0.00982967  1
  H+  H56  1  0.86380752  0.72365750  0.49600438  1
  H+  H57  1  0.13332865  0.09604589  0.16980214  1
  H+  H58  1  0.63963092  0.35641031  0.65868502  1
  H+  H59  1  0.14945203  0.63576793  1.00431981  1
  H+  H60  1  0.52486236  0.64614578  0.80965944  1
  H+  H61  1  0.72280071  0.11818215  0.00103188  1
  H+  H62  1  0.76103331  0.12743656  0.16813270  1
  H+  H63  1  0.61592747  0.49301828  0.50384007  1
  H+  H64  1  0.11003541  0.63116379  0.49900386  1
  H+  H65  1  0.61324234  0.70591517  0.48368273  1
  H+  H66  1  0.71801015  0.12176883  0.84567253  1
  H+  H67  1  0.89294002  0.52470225  0.66681424  1
  H+  H68  1  0.85370625  0.13215530  0.16686693  1
  H+  H69  1  0.57497891  0.41171080  1.06845510  1
  H+  H70  1  0.74715966  0.59694227  0.01272269  1
  H+  H71  1  0.21378209  0.84464190  0.84600878  1
  H+  H72  1  0.89093386  0.77250022  0.66613281  1
  H+  H73  1  0.35512684  0.38114907  0.67144586  1
  H+  H74  1  0.78425123  0.39636300  0.67245680  1
  H+  H75  1  0.62260697  0.39666214  0.83625120  1
  H+  H76  1  0.23949898  0.61966458  0.85373015  1
  H+  H77  1  0.84750607  0.15718455  0.81326132  1
  H+  H78  1  0.37318207  0.62789013  0.13843878  1
  H+  H79  1  0.13704526  0.73192692  0.00339798  1
  H+  H80  1  0.14413470  0.13963894  0.02012726  1
  H+  H81  1  0.14829655  0.10848143  0.84032655  1
  H+  H82  1  0.88120810  0.28020175  0.99729572  1
  H+  H83  1  0.02953689  0.14107291  0.34502832  1
  H+  H84  1  0.97911046  0.89855900  0.96520107  1
  H+  H85  1  0.11387606  0.13988101  0.66651059  1
  H+  H86  1  0.56641864  0.92165855  0.07142589  1
  H+  H87  1  0.52575340  0.87656447  0.16588135  1
  H+  H88  1  0.11420705  0.38953277  0.48967280  1
  H+  H89  1  0.52986242  0.38386929  0.82239277  1
  H+  H90  1  0.37993712  0.89812149  0.15498654  1
  H+  H91  1  0.21908753  0.84223399  0.65655051  1
  H+  H92  1  0.91732179  0.82646294  0.60331782  1
  H+  H93  1  0.11484225  0.56711379  0.69557346  1
  H+  H94  1  0.38823705  0.76802286  0.65214039  1
  H+  H95  1  0.61963888  0.15248837  0.49868413  1
  H+  H96  1  0.88375243  0.52005719  0.98609973  1
  H+  H97  1  0.38236434  0.26196545  0.82673536  1
  H+  H98  1  0.11077152  0.88163880  0.15850459  1
  H+  H99  1  0.23186206  0.10064129  0.83999565  1
  H+  H100  1  0.13215834  0.23624097  0.81854226  1
  H+  H101  1  0.64248239  0.61601754  0.17819044  1
  H+  H102  1  0.84966135  -0.01380344  0.94189123  1
  H+  H103  1  0.10509686  0.33594905  0.97386099  1
  H+  H104  1  0.26773099  0.88524364  0.49850065  1
  H+  H105  1  -0.01315495  0.61719104  0.33094369  1
  H+  H106  1  0.92663185  0.08002781  1.05239096  1
  H+  H107  1  0.13987829  0.34420273  0.23439360  1
  H+  H108  1  0.25872831  0.12911261  0.67206765  1
  H+  H109  1  0.85161600  0.38341792  0.16165774  1
  H+  H110  1  0.86906561  0.48206680  0.82582463  1
  H+  H111  1  0.61832529  0.61995495  0.49077298  1
  H+  H112  1  0.77236924  0.88442754  0.50142531  1
  H+  H113  1  0.24832280  0.62570888  0.69617296  1
  H+  H114  1  0.61202934  0.44660386  0.67362977  1
  H+  H115  1  0.62652576  0.90989618  0.50207372  1
  H+  H116  1  0.88697255  0.61599623  0.51386508  1
  H+  H117  1  0.62886617  0.02944238  0.84530867  1
  H+  H118  1  0.09164901  0.17226567  0.40194645  1
  H+  H119  1  0.72816596  0.86533636  0.18234546  1
  H+  H120  1  0.33503733  0.15334446  0.06769903  1
  H+  H121  1  0.14201535  0.87328407  0.33523727  1
  H+  H122  1  0.36747788  0.23209095  0.49276179  1
  H+  H123  1  0.39399468  0.76220211  0.16599366  1
  H+  H124  1  0.88770938  1.02050248  0.50253989  1
  H+  H125  1  0.73334367  0.84916495  0.03055594  1
  H+  H126  1  0.86299117  0.63033099  0.34461124  1
  H+  H127  1  0.89436850  0.27886798  0.50589999  1
  H+  H128  1  0.59517684  -0.01639001  1.01343919  1
  H+  H129  1  0.52627631  0.88670222  0.67380088  1
  H+  H130  1  0.87411411  -0.02225985  0.66906610  1
  H+  H131  1  0.24736027  0.63197121  1.01209930  1
  H+  H132  1  0.03003781  0.13618287  0.49500782  1
  H+  H133  1  0.38863230  0.52654895  0.83923735  1
  H+  H134  1  1.10833898  0.42198212  0.32696741  1
  H+  H135  1  0.61071523  0.63905160  0.33464180  1
  H+  H136  1  0.85602761  0.24702657  0.83034638  1
  H+  H137  1  0.89020284  0.61177474  0.82199604  1
  H+  H138  1  0.66716469  0.28405397  0.65991960  1
  H+  H139  1  0.13754033  0.27301120  0.51015904  1
  H+  H140  1  0.10967282  0.39963080  0.13518551  1
  H+  H141  1  0.60236103  0.62471564  1.01473529  1
  H+  H142  1  0.36598202  0.12408072  0.81913444  1
  H+  H143  1  0.59914154  0.06763377  0.31967526  1
  H+  H144  1  0.62099643  0.73447885  0.16859261  1
  H+  H145  1  0.97745357  0.86079977  0.16527548  1
  H+  H146  1  0.83305035  0.16797318  0.40234375  1
  H+  H147  1  0.74076411  0.37652681  0.84594364  1
  H+  H148  1  0.12508029  0.39830853  0.81594178  1
  H+  H149  1  0.36258393  0.22981139  0.33605909  1
  H+  H150  1  0.02641284  0.88235880  0.67250624  1
  H+  H151  1  0.78718508  0.14930668  0.49746909  1
  H+  H152  1  0.55713148  0.63844008  0.67157496  1
  H+  H153  1  0.61014068  0.51183405  0.85234003  1
  H+  H154  1  0.05538186  0.77652965  0.21788704  1
  H+  H155  1  0.72313038  0.87528519  0.85045147  1
  H+  H156  1  0.81054322  0.96311120  -0.03814652  1
  H+  H157  1  -0.01401307  0.12276697  0.65401107  1
  H+  H158  1  0.42595249  0.58804088  0.11079309  1
  H+  H159  1  1.02379372  0.63646605  0.49960115  1
  H+  H160  1  0.22368415  0.11026557  0.33192096  1
  H+  H161  1  0.65344628  0.57583791  0.94080384  1
  H+  H162  1  0.39192614  0.12171337  0.31861434  1
  H+  H163  1  0.61600053  0.14232041  0.01034175  1
  H+  H164  1  0.72818290  0.61560216  0.33069622  1
  H+  H165  1  0.82709051  0.91577848  0.43961279  1
  H+  H166  1  0.44267677  0.82517687  0.47776819  1
  H+  H167  1  0.31835704  0.64064354  0.43894830  1
  H+  H168  1  0.23319174  0.11636197  0.50497487  1
  H+  H169  1  0.95186089  0.12440379  0.76563674  1
  H+  H170  1  0.77102633  0.63845447  0.49819137  1
  H+  H171  1  0.38656809  0.02230328  0.49949719  1
  H+  H172  1  0.38597938  0.60354722  0.50855761  1
  H+  H173  1  0.44162771  0.08309203  0.64943251  1
  H+  H174  1  0.52491961  0.13592161  0.00935024  1
  H+  H175  1  0.77414899  0.63190085  0.16455169  1
  H+  H176  1  0.02035933  0.38287345  -0.00925084  1
  H+  H177  1  0.37468969  0.26632085  0.66039338  1
  H+  H178  1  0.77137711  0.13756158  0.34382543  1
  H+  H179  1  0.63773918  0.28628944  0.50991467  1
  H+  H180  1  0.12897251  0.51220684  0.50254123  1
  H+  H181  1  0.06313741  0.24301260  0.94533401  1
  H+  H182  1  0.13152303  0.01888871  0.65686164  1
  H+  H183  1  0.11658368  0.63900418  0.15232064  1
  H+  H184  1  0.95219378  0.34785043  0.17906940  1
  H+  H185  1  0.33282235  0.47927623  0.32015015  1
  H+  H186  1  0.86449586  0.88697923  0.17509966  1
  H+  H187  1  0.61888708  0.88973191  0.16116379  1
  H+  H188  1  0.53793349  0.15756513  0.83114116  1
  H+  H189  1  0.39705027  0.03242470  0.16673368  1
  H+  H190  1  0.35716883  0.47208045  0.67225497  1
  H+  H191  1  0.13500368  0.77034979  0.50720858  1
  H+  H192  1  0.86179448  0.47721650  0.16197677  1
  H+  H193  1  0.88261517  0.75014024  0.97038151  1
  H+  H194  1  0.26060574  0.61557590  0.34556379  1
  H+  H195  1  0.91744557  0.32975931  0.60172425  1
  H+  H196  1  0.39767760  0.00498631  0.99236615  1
  H+  H197  1  0.13484157  0.10980379  0.33628075  1
  H+  H198  1  0.11940622  -0.01773468  0.34798311  1
  H+  H199  1  0.26143349  0.61586980  0.50078044  1
  H+  H200  1  0.10709891  0.20824571  0.17801315  1
  H+  H201  1  0.86879004  0.11505105  0.73632135  1
  H+  H202  1  0.11259840  0.88747169  0.49725827  1
  H+  H203  1  0.63525990  0.87467675  0.85252226  1
  H+  H204  1  0.42461246  0.42100680  1.04540482  1
  H+  H205  1  0.36098951  0.52165684  0.30457250  1
  H+  H206  1  0.37164170  0.64075611  0.83559532  1
  H+  H207  1  0.62078246  0.14721569  0.83683210  1
  H+  H208  1  0.46982059  0.36556881  0.17252644  1
  H+  H209  1  0.26406054  0.38005999  0.18446455  1
  H+  H210  1  0.61169984  0.97853227  0.67726483  1
  H+  H211  1  0.61481740  0.38601647  0.01159195  1
  H+  H212  1  0.34365396  0.47432408  0.16891071  1
  H+  H213  1  0.51901579  0.36406834  0.66692630  1
  H+  H214  1  0.35212680  0.87777437  0.49372330  1
  H+  H215  1  0.42440709  0.43925930  0.01473000  1
  H+  H216  1  0.85791284  -0.01579053  0.35067187  1
  H+  H217  1  0.19222427  0.45771676  0.09601265  1
  H+  H218  1  0.89014723  0.36609943  0.51074819  1
  H+  H219  1  0.61759770  -0.03098801  0.33656045  1
  H+  H220  1  0.35226879  0.75391610  0.04665761  1
  H+  H221  1  0.87167368  0.13959386  0.49201380  1
  H+  H222  1  0.11320495  0.87852346  0.67036962  1
  H+  H223  1  0.40416402  0.83980161  0.91370662  1
  H+  H224  1  0.36027791  0.87433561  0.65228945  1
  H+  H225  1  0.84126104  -0.01179417  0.80616956  1
  H+  H226  1  0.36683648  0.13860137  0.16017934  1
  H+  H227  1  0.97687537  0.61229543  0.83946226  1
  H+  H228  1  0.65122009  0.19418786  0.34156322  1
  H+  H229  1  0.39060171  0.03378951  0.32174059  1
  H+  H230  1  0.61316292  0.65224701  0.80605333  1
  H+  H231  1  0.88982457  0.11926697  0.33089348  1
  H+  H232  1  0.64720163  0.87872445  0.67189639  1
  H+  H233  1  0.35994496  0.22450718  0.15875088  1
  H+  H234  1  0.02645163  0.38964938  0.49163019  1
  H+  H235  1  0.13891740  0.61924715  0.32445524  1
  H+  H236  1  0.61683067  0.40411039  0.50153372  1
  H+  H237  1  0.63835823  0.27630304  0.99759795  1
  H+  H238  1  0.36409805  0.89961089  0.34170017  1
  H+  H239  1  0.97840645  0.86406008  0.50932433  1
  H+  H240  1  0.89732399  0.12295992  0.64808273  1
  H+  H241  1  0.55702237  0.17173022  0.68675844  1
  H+  H242  1  0.24818650  0.85794947  0.99219811  1
  H+  H243  1  0.81855260  0.18525620  0.73190333  1
  H+  H244  1  0.73176971  0.11261671  0.66044997  1
  H+  H245  1  0.53097642  0.64771079  0.16578094  1
  H+  H246  1  0.34309404  -0.04693980  0.65223233  1
  H+  H247  1  0.08667337  0.67185476  0.40325942  1
  H+  H248  1  0.89047930  0.77062038  0.16905806  1
  H+  H249  1  0.88968414  0.52857276  0.51558743  1
  H+  H250  1  0.12916364  0.75530502  0.66299313  1
  H+  H251  1  0.63830815  0.77013961  0.32992707  1
  H+  H252  1  0.23615861  0.36832756  0.82908766  1
  H+  H253  1  0.12079159  0.13914374  0.49829955  1
  H+  H254  1  0.15114825  0.53003600  0.85448447  1
  H+  H255  1  0.73875224  0.88005132  0.66445257  1
  H+  H256  1  0.32444583  0.34951324  0.34959757  1
  H+  H257  1  0.37952551  0.36303459  0.17491927  1
  H+  H258  1  0.72169340  0.36745039  0.16942733  1
  H+  H259  1  0.63371059  0.85664654  0.33021535  1
  H+  H260  1  0.63418363  0.27642318  0.17352539  1
  H+  H261  1  0.10932780  0.71795133  0.83666586  1
  H+  H262  1  0.34707077  0.87390164  0.83924285  1
  H+  H263  1  0.13177108  -0.02919297  1.00657180  1
  H+  H264  1  0.88088250  0.02162879  0.17828262  1
  H+  H265  1  0.98181089  0.84396927  0.81809755  1
  H+  H266  1  0.91709096  0.92947649  0.94194985  1
  H+  H267  1  0.76968518  0.89392538  0.34832561  1
  H+  H268  1  0.86878853  0.88615343  0.67092750  1
  H+  H269  1  0.62755204  0.72939391  0.65448304  1
  H+  H270  1  0.33216410  -0.04627112  0.83296335  1
  H+  H271  1  0.24599580  0.40882810  0.02078223  1
  H+  H272  1  0.73785700  0.59121476  0.66801403  1
  H+  H273  1  0.49595174  0.67904254  0.30012903  1
  H+  H274  1  0.62593536  1.01588778  0.17364426  1
  H+  H275  1  0.86455289  0.25967485  0.17937850  1
  H+  H276  1  0.60959370  0.47851898  0.16186726  1
  H+  H277  1  0.16457781  0.32943653  0.88341023  1
  H+  H278  1  0.34465840  0.12526026  0.66554037  1
  H+  H279  1  0.77432026  0.38920088  0.00810095  1
  H+  H280  1  0.45154178  0.88773826  1.01004158  1
  H+  H281  1  0.46676343  0.37147534  0.33108121  1
  H+  H282  1  0.93471234  0.09388050  0.98275712  1
  H+  H283  1  0.82481600  -0.09253897  0.77221502  1
  H+  H284  1  0.05073964  0.14635864  0.83380387  1
  H+  H285  1  0.52485318  0.14127413  0.16304394  1
  H+  H286  1  0.65833796  0.05190028  0.50597563  1
  H+  H287  1  0.62732316  0.87794375  0.00281340  1
  H+  H288  1  0.84077807  0.42096854  0.73377342  1
  H+  H289  1  0.36634802  0.14236023  0.48950794  1
  H+  H290  1  0.65656082  0.07609237  0.26232283  1
  H+  H291  1  0.76351895  0.33007333  0.37510980  1
  H+  H292  1  0.12731215  0.84886239  0.84486059  1
  H+  H293  1  0.42022017  0.81694203  0.58872851  1
  H+  H294  1  0.35695343  0.91967699  0.09016113  1
  H+  H295  1  0.81677355  0.62896406  0.07526671  1
  H+  H296  1  0.10514732  0.72149721  0.15541256  1
  H+  H297  1  0.67349101  0.34009080  0.93926914  1
  H+  H298  1  0.40979108  0.83791828  0.27354443  1
  H+  H299  1  0.09375100  0.91245963  0.76290791  1
  H+  H300  1  0.67892797  0.10138624  0.56906508  1
  H+  H301  1  0.09105171  0.16992773  0.72792816  1
  H+  H302  1  0.12531763  0.98259711  0.15069515  1
  H+  H303  1  0.63958357  0.27538184  0.34509271  1
  H+  H304  1  0.16234750  0.33724643  0.56754423  1
  H+  H305  1  0.13689616  0.43913062  0.64828328  1
  H+  H306  1  0.90122004  0.58309177  0.92823595  1
  H+  H307  1  0.58046952  0.66095279  0.07331141  1
  H+  H308  1  0.47546484  0.60233860  0.50696491  1
  H+  H309  1  0.09996303  0.91249110  0.07870780  1
  H+  H310  1  0.61093086  0.18276952  0.74511543  1
  H+  H311  1  0.16872974  0.28611837  0.26072355  1
  H+  H312  1  0.57840599  0.43036649  0.40787160  1
  H+  H313  1  0.92269333  0.59001387  0.61016451  1
  H+  H314  1  0.14359916  0.02565969  0.50582639  1
  H+  H315  1  0.66548927  0.85311690  0.58183978  1
  H+  H316  1  0.42994999  0.63753975  0.24665077  1
  H+  H317  1  0.93086597  0.82598254  0.26948503  1
  H+  H318  1  0.88754782  0.37179041  0.99413669  1
  H+  H319  1  0.16498771  0.08085752  0.59793917  1
  H+  H320  1  0.58560410  0.17069820  0.10429916  1
  H+  H321  1  0.39801852  0.07441502  0.58555114  1
  H+  H322  1  0.92208909  0.08337544  0.55943523  1
  H+  H323  1  0.08272172  0.65125732  0.74283962  1
  H+  H324  1  0.92642249  0.58308754  0.23318725  1
  H+  H325  1  0.19261505  0.59586575  0.94656971  1
  H+  H326  1  0.67073873  0.58325764  0.23637227  1
  H+  H327  1  0.14670556  0.82664388  0.24523134  1
  H+  H328  1  0.41347583  0.57767458  0.60321386  1
  H+  H329  1  0.23440179  0.63917584  0.15430729  1
  H+  H330  1  0.92677282  0.34464309  0.90138848  1
  H+  H331  1  0.15166501  0.55546909  0.56741281  1
  H+  H332  1  0.33584440  0.67658002  0.78206576  1
  H+  H333  1  0.29128223  0.42928377  0.08547652  1
  H+  H334  1  0.44712404  0.76523509  0.22434057  1
  H+  H335  1  0.17119992  0.06917303  0.93678508  1
  H+  H336  1  0.55896364  0.55513901  0.87852959  1
  H+  H337  1  0.41987626  0.08776446  0.22978137  1
  H+  H338  1  0.83655522  0.41836108  0.44356266  1
  H+  H339  1  0.13069142  0.29133671  0.66195928  1
  H+  H340  1  0.59091554  0.92134606  0.39988253  1
  H+  H341  1  0.66369218  0.83340867  0.23849223  1
  H+  H342  1  0.33167681  0.92679864  0.40069752  1
  H+  H343  1  0.57423784  0.65750136  0.39474556  1
  H+  H344  1  0.17552336  0.82916586  0.93752258  1
  H+  H345  1  0.09489931  0.66748922  0.06141994  1
  H+  H346  1  0.80561345  0.82165468  0.02954685  1
  H+  H347  1  0.42602743  0.07220243  0.90630149  1
  H+  H348  1  0.69205410  0.55636966  0.60445665  1
  H+  H349  1  0.83320054  0.66038899  0.40398501  1
  H+  H350  1  0.67543694  0.34492212  0.56874624  1
  H+  H351  1  0.85670099  0.37037782  0.34708254  1
  H+  H352  1  0.41699120  0.58509668  0.90007121  1
  H+  H353  1  0.40886598  0.32717826  0.60168612  1
  H+  H354  1  0.03395112  0.88693557  0.34509004  1
  H+  H355  1  0.90819073  0.33328024  0.27486180  1
  H+  H356  1  0.30446611  0.38054992  0.41261236  1
  H+  H357  1  0.83592311  0.42325442  0.06595844  1
  H+  H358  1  0.10661117  0.45543269  0.76883200  1
  H+  H359  1  0.91660823  0.08605694  0.27272826  1
  H+  H360  1  0.47815931  0.36987791  0.51133437  1
  H+  H361  1  0.33526207  0.41822839  0.76313089  1
  H+  H362  1  0.96875055  0.13250589  0.89358565  1
  H+  H363  1  0.62813033  0.10815933  0.17380901  1
  H+  H364  1  0.19119403  0.34422036  0.35259895  1
  H+  H365  1  0.09524874  0.16545302  0.11270314  1
  H+  H366  1  0.86374756  0.63111867  0.16374446  1
  H+  H367  1  0.22645041  0.10302589  0.16275315  1
  H+  H368  1  0.82035155  0.17731440  0.07646448  1
  H+  H369  1  0.32837652  0.14968250  0.76136057  1
  H+  H370  1  0.38471989  0.36144514  0.51057029  1
  H+  H371  1  0.17295076  0.59816068  0.26424779  1
  H+  H372  1  0.95497022  0.08524006  0.89109812  1
  H+  H373  1  0.48745286  0.33917851  0.98623703  1
  H+  H374  1  0.57266832  0.92213662  0.77554582  1
  H+  H375  1  0.90420317  0.82734928  0.85875909  1
  H+  H376  1  0.59860717  0.19127829  0.44056084  1
  H+  H377  1  0.41503366  0.31872751  0.88575961  1
  H+  H378  1  0.66339204  0.08746969  0.94078588  1
  H+  H379  1  0.66956216  0.85885260  0.94491553  1
  H+  H380  1  0.08585350  0.91941817  0.43751299  1
  H+  H381  1  0.41228826  0.33817813  0.26899542  1
  H+  H382  1  0.10227015  0.43113815  0.03312573  1
  H+  H383  1  0.15940841  0.82433364  0.56840349  1
  O2-  O384  1  0.07697007  0.15253868  0.15645867  1
  O2-  O385  1  0.09185577  0.17108545  0.48398128  1
  O2-  O386  1  0.10172268  0.17243824  0.80785141  1
  O2-  O387  1  0.14001501  0.45488610  0.11458296  1
  O2-  O388  1  0.08573536  0.42131807  0.47497255  1
  O2-  O389  1  0.09592123  0.43279393  0.81079726  1
  O2-  O390  1  0.08029891  0.66400235  0.13639232  1
  O2-  O391  1  0.08364492  0.66476527  0.48304754  1
  O2-  O392  1  0.08232333  0.65701081  0.82121828  1
  O2-  O393  1  0.09128448  0.91597100  0.13397951  1
  O2-  O394  1  0.08421040  0.92006711  0.48368009  1
  O2-  O395  1  0.09014329  0.90760009  0.80835581  1
  O2-  O396  1  0.33321830  0.16473440  0.14270164  1
  O2-  O397  1  0.33533667  0.17218987  0.47589083  1
  O2-  O398  1  0.33268513  0.15146967  0.80726393  1
  O2-  O399  1  0.31648660  0.41245636  0.15896077  1
  O2-  O400  1  0.32937901  0.40695940  0.48796667  1
  O2-  O401  1  0.33582055  0.41814724  0.80903603  1
  O2-  O402  1  0.32981094  0.68287891  0.12163593  1
  O2-  O403  1  0.32219328  0.64710728  0.48530266  1
  O2-  O404  1  0.34079107  0.67411479  0.82668901  1
  O2-  O405  1  0.35782462  0.93142491  0.13511781  1
  O2-  O406  1  0.32845178  0.91525045  0.48281237  1
  O2-  O407  1  0.30887588  0.89377538  0.82121707  1
  O2-  O408  1  0.58716553  0.17059630  0.14975577  1
  O2-  O409  1  0.58381635  0.17717574  0.48419980  1
  O2-  O410  1  0.59859935  0.18433961  0.81810496  1
  O2-  O411  1  0.57601684  0.41849635  0.14574249  1
  O2-  O412  1  0.58429596  0.43223032  0.48741267  1
  O2-  O413  1  0.59169429  0.42606072  0.82201937  1
  O2-  O414  1  0.59201636  0.67234231  0.15551158  1
  O2-  O415  1  0.57835436  0.64580025  0.47233637  1
  O2-  O416  1  0.57421729  0.66401951  0.78230577  1
  O2-  O417  1  0.58399823  0.91654275  0.14827784  1
  O2-  O418  1  0.60565000  0.94588001  0.47993237  1
  O2-  O419  1  0.57531378  0.92924466  0.82055633  1
  O2-  O420  1  0.82202483  0.16262657  0.15400541  1
  O2-  O421  1  0.84475409  0.17394883  0.47800006  1
  O2-  O422  1  0.81530705  0.18857017  0.81325454  1
  O2-  O423  1  0.82713659  0.41800958  0.14464642  1
  O2-  O424  1  0.83863717  0.42278739  0.48872419  1
  O2-  O425  1  0.83846194  0.42041646  0.81246152  1
  O2-  O426  1  0.83303018  0.65937535  0.14556946  1
  O2-  O427  1  0.83238499  0.66278247  0.48219301  1
  O2-  O428  1  0.83961892  0.65543123  0.77136937  1
  O2-  O429  1  0.83274684  0.91562516  0.16037339  1
  O2-  O430  1  0.83152766  0.91267852  0.48621551  1
  O2-  O431  1  0.82357783  0.92776302  0.81359927  1
  O2-  O432  1  0.16488753  0.06388971  0.17337254  1
  O2-  O433  1  0.17366682  0.08570099  0.52235864  1
  O2-  O434  1  0.17229106  0.07372001  0.85685698  1
  O2-  O435  1  0.16431115  0.30853255  0.22082468  1
  O2-  O436  1  0.16624589  0.33499241  0.52254235  1
  O2-  O437  1  0.17210112  0.33585050  0.83844705  1
  O2-  O438  1  0.17705946  0.60439356  0.17563266  1
  O2-  O439  1  0.15837613  0.57128495  0.52411347  1
  O2-  O440  1  0.17999323  0.58920851  0.87166215  1
  O2-  O441  1  0.11502757  0.80841032  0.20444560  1
  O2-  O442  1  0.16430648  0.83066742  0.52310500  1
  O2-  O443  1  0.15354109  0.81661900  0.86379495  1
  O2-  O444  1  0.42289692  0.09200211  0.18338910  1
  O2-  O445  1  0.41471161  0.08303815  0.51446070  1
  O2-  O446  1  0.43119990  0.07320579  0.85994968  1
  O2-  O447  1  0.40971961  0.33213162  0.18809622  1
  O2-  O448  1  0.41716064  0.33214967  0.52449346  1
  O2-  O449  1  0.41022673  0.32249195  0.84123406  1
  O2-  O450  1  0.40426290  0.59422408  0.15008400  1
  O2-  O451  1  0.41663456  0.57450965  0.52507745  1
  O2-  O452  1  0.41824915  0.58668561  0.85413731  1
  O2-  O453  1  0.43425778  0.80249505  0.19845163  1
  O2-  O454  1  0.39852595  0.80783898  0.50887979  1
  O2-  O455  1  0.41087548  0.83800463  0.86901625  1
  O2-  O456  1  0.65670489  0.07644023  0.19031616  1
  O2-  O457  1  0.68330515  0.11032388  0.52379613  1
  O2-  O458  1  0.65837114  0.08970450  0.86250545  1
  O2-  O459  1  0.66169848  0.33844083  0.18572591  1
  O2-  O460  1  0.67175573  0.34722821  0.52309818  1
  O2-  O461  1  0.68126575  0.34727299  0.86371244  1
  O2-  O462  1  0.67119459  0.58297027  0.19056232  1
  O2-  O463  1  0.67241102  0.59799164  0.52196754  1
  O2-  O464  1  0.61744167  0.56634979  0.87294049  1
  O2-  O465  1  0.66545857  0.83536988  0.19268075  1
  O2-  O466  1  0.65120180  0.84550701  0.53555559  1
  O2-  O467  1  0.66657917  0.84885720  0.87138620  1
  O2-  O468  1  0.90928749  0.08384540  0.18984063  1
  O2-  O469  1  0.92006371  0.08283452  0.51419340  1
  O2-  O470  1  0.89091145  0.10116865  0.77349715  1
  O2-  O471  1  0.89298532  0.32212814  0.19278242  1
  O2-  O472  1  0.92263034  0.33739865  0.52419316  1
  O2-  O473  1  0.92659933  0.34509400  0.85578563  1
  O2-  O474  1  0.92031840  0.58148168  0.18794795  1
  O2-  O475  1  0.92014073  0.58915686  0.53058786  1
  O2-  O476  1  0.91392307  0.58458873  0.84906380  1
  O2-  O477  1  0.92119316  0.82996180  0.18582966  1
  O2-  O478  1  0.91833374  0.83089002  0.52548991  1
  O2-  O479  1  0.91851353  0.80636792  0.82211650  1
  O2-  O480  1  0.16147794  0.07499333  0.32322456  1
  O2-  O481  1  0.15967154  0.08030144  0.64364660  1
  O2-  O482  1  0.17215893  0.06585009  0.98213728  1
  O2-  O483  1  0.13086821  0.32923850  0.33768659  1
  O2-  O484  1  0.16350369  0.35123355  0.64741784  1
  O2-  O485  1  0.11918636  0.29067053  0.95685316  1
  O2-  O486  1  0.16555102  0.58665254  0.30826129  1
  O2-  O487  1  0.14624146  0.53306715  0.69938184  1
  O2-  O488  1  0.18916037  0.60058103  0.99223599  1
  O2-  O489  1  0.16917175  0.84033825  0.31700983  1
  O2-  O490  1  0.15570859  0.81435679  0.64656288  1
  O2-  O491  1  0.18399189  0.83167561  0.98302195  1
  O2-  O492  1  0.42166441  0.09147587  0.30260680  1
  O2-  O493  1  0.38605024  0.06521158  0.63117293  1
  O2-  O494  1  0.42213933  0.06750632  0.97926423  1
  O2-  O495  1  0.40803326  0.33545865  0.31416538  1
  O2-  O496  1  0.40688255  0.32732586  0.64731801  1
  O2-  O497  1  0.44263403  0.29075566  0.96062807  1
  O2-  O498  1  0.45138507  0.68372778  0.27666692  1
  O2-  O499  1  0.40609582  0.57163540  0.64839043  1
  O2-  O500  1  0.41361055  0.59310927  0.97431894  1
  O2-  O501  1  0.41224970  0.84880414  0.31753800  1
  O2-  O502  1  0.42538383  0.82476834  0.63362130  1
  O2-  O503  1  0.38966103  0.85291075  0.99630773  1
  O2-  O504  1  0.65577021  0.07698393  0.30895459  1
  O2-  O505  1  0.67068498  0.08198463  0.64534849  1
  O2-  O506  1  0.66209742  0.08764171  0.98621166  1
  O2-  O507  1  0.66661718  0.36706323  0.30580385  1
  O2-  O508  1  0.68528113  0.34153262  0.64335651  1
  O2-  O509  1  0.66979465  0.33821971  0.98505879  1
  O2-  O510  1  0.66895918  0.58919259  0.31304947  1
  O2-  O511  1  0.68560874  0.54604828  0.64835063  1
  O2-  O512  1  0.66277661  0.57519336  0.98649692  1
  O2-  O513  1  0.66743464  0.83083795  0.31410143  1
  O2-  O514  1  0.67806337  0.85414386  0.64951441  1
  O2-  O515  1  0.67425866  0.86836992  0.99032588  1
  O2-  O516  1  0.91916673  0.08750308  0.31784068  1
  O2-  O517  1  0.92525250  0.08945336  0.63828147  1
  O2-  O518  1  0.93698725  0.12237914  1.02098616  1
  O2-  O519  1  0.91511626  0.33728050  0.31950014  1
  O2-  O520  1  0.91245412  0.32361169  0.64700465  1
  O2-  O521  1  0.91446986  0.33829867  0.97836388  1
  O2-  O522  1  0.92681017  0.58354289  0.31312625  1
  O2-  O523  1  0.92504492  0.58777510  0.65563004  1
  O2-  O524  1  0.90259273  0.58052303  0.97357594  1
  O2-  O525  1  0.93853903  0.82659904  0.31384189  1
  O2-  O526  1  0.92018626  0.83117664  0.64892592  1
  O2-  O527  1  0.96280259  0.91866202  0.92923230  1
  O2-  O528  1  0.13871110  0.18357007  0.04359563  1
  O2-  O529  1  0.09074921  0.16937568  0.35693217  1
  O2-  O530  1  0.08535238  0.17142754  0.68309127  1
  O2-  O531  1  0.08338140  0.40456594  -0.00718920  1
  O2-  O532  1  0.14735233  0.40728696  0.30585843  1
  O2-  O533  1  0.12385825  0.48643752  0.64119059  1
  O2-  O534  1  0.10677173  0.66940013  0.01646618  1
  O2-  O535  1  0.08555851  0.67390365  0.35786233  1
  O2-  O536  1  0.08552469  0.64268211  0.69804254  1
  O2-  O537  1  0.10377298  0.91001120  0.02446628  1
  O2-  O538  1  0.09296138  0.91999349  0.36350035  1
  O2-  O539  1  0.08817768  0.91393224  0.68515377  1
  O2-  O540  1  0.33424193  0.14362387  0.02235479  1
  O2-  O541  1  0.33632353  0.16890906  0.34986571  1
  O2-  O542  1  0.32001653  0.15679265  0.68680891  1
  O2-  O543  1  0.27101747  0.45279312  0.05217383  1
  O2-  O544  1  0.28247859  0.36047117  0.37081217  1
  O2-  O545  1  0.32496976  0.41110347  0.68780535  1
  O2-  O546  1  0.33447122  0.69279837  0.05421463  1
  O2-  O547  1  0.31434872  0.63080756  0.36841500  1
  O2-  O548  1  0.30014271  0.68355473  0.70321311  1
  O2-  O549  1  0.34900835  0.90455289  0.01444835  1
  O2-  O550  1  0.33252668  0.92970132  0.35564214  1
  O2-  O551  1  0.32158388  0.89425822  0.66764284  1
  O2-  O552  1  0.58478647  0.17264460  0.02456647  1
  O2-  O553  1  0.64871580  0.23407162  0.37040923  1
  O2-  O554  1  0.61260561  0.18019849  0.69907491  1
  O2-  O555  1  0.57664669  0.40977145  0.02281832  1
  O2-  O556  1  0.57393244  0.43091539  0.36237846  1
  O2-  O557  1  0.57798734  0.38366113  0.68159415  1
  O2-  O558  1  0.56388071  0.64457696  0.03051066  1
  O2-  O559  1  0.57886755  0.66772272  0.34964993  1
  O2-  O560  1  0.59792440  0.67033155  0.63904577  1
  O2-  O561  1  0.55551959  0.92364255  0.02708644  1
  O2-  O562  1  0.58346206  0.91144778  0.35538178  1
  O2-  O563  1  0.58187103  0.91985940  0.69550338  1
  O2-  O564  1  0.82421346  0.17969348  0.03102626  1
  O2-  O565  1  0.83177536  0.16850618  0.35658717  1
  O2-  O566  1  0.83057085  0.17216768  0.69009837  1
  O2-  O567  1  0.83630066  0.42140290  0.02050816  1
  O2-  O568  1  0.81422897  0.38657131  0.36586334  1
  O2-  O569  1  0.84469664  0.42389233  0.68839495  1
  O2-  O570  1  0.80131533  0.60172199  0.03339889  1
  O2-  O571  1  0.83195338  0.65982791  0.35827903  1
  O2-  O572  1  0.84670576  0.66599422  0.70487263  1
  O2-  O573  1  0.77513743  0.83977904  0.05658021  1
  O2-  O574  1  0.82425534  0.92745737  0.37086051  1
  O2-  O575  1  0.84038234  0.91868985  0.68510589  1
