# generated using pymatgen
data_H2O
_symmetry_space_group_name_H-M   'P 1'
_cell_length_a   18.00060119
_cell_length_b   18.00012034
_cell_length_c   22.00315771
_cell_angle_alpha   89.99608523
_cell_angle_beta   90.00602239
_cell_angle_gamma   120.02252658
_symmetry_Int_Tables_number   1
_chemical_formula_structural   H2O
_chemical_formula_sum   'H384 O192'
_cell_volume   6172.76058910
_cell_formula_units_Z   192
loop_
 _symmetry_equiv_pos_site_id
 _symmetry_equiv_pos_as_xyz
  1  'x, y, z'
loop_
 _atom_type_symbol
 _atom_type_oxidation_number
  H+  1.0
  O2-  -2.0
loop_
 _atom_site_type_symbol
 _atom_site_label
 _atom_site_symmetry_multiplicity
 _atom_site_fract_x
 _atom_site_fract_y
 _atom_site_fract_z
 _atom_site_occupancy
  H+  H0  1  0.89807981  0.79373506  0.85548997  1
  H+  H1  1  0.16947376  0.62400757  0.19447444  1
  H+  H2  1  0.36012855  0.21602503  0.84336397  1
  H+  H3  1  0.63149559  0.74251604  1.00056997  1
  H+  H4  1  0.13949416  0.36311980  0.17216553  1
  H+  H5  1  0.77709429  0.21567715  0.78643738  1
  H+  H6  1  0.36357483  0.21959361  0.48573421  1
  H+  H7  1  0.62992240  0.94818936  0.01981784  1
  H+  H8  1  0.52534839  0.88568015  0.48312130  1
  H+  H9  1  0.38029659  0.78672924  -0.01158363  1
  H+  H10  1  1.02497395  0.89319085  0.33978905  1
  H+  H11  1  0.84918574  0.45623985  0.84960288  1
  H+  H12  1  0.60584979  0.37769214  1.00453503  1
  H+  H13  1  0.88192072  0.12450292  0.32662419  1
  H+  H14  1  0.53149741  0.63785019  0.33458580  1
  H+  H15  1  0.12574019  0.79249822  0.32681112  1
  H+  H16  1  0.13119293  0.35555006  0.98626727  1
  H+  H17  1  0.26580862  0.88181471  0.84523676  1
  H+  H18  1  0.36954506  0.01195002  0.15942145  1
  H+  H19  1  0.27214318  0.88386542  0.49504670  1
  H+  H20  1  0.62699980  0.26558296  0.51159548  1
  H+  H21  1  0.91445153  0.81517016  0.50986312  1
  H+  H22  1  0.51414186  0.39200870  0.15706763  1
  H+  H23  1  0.37838761  0.36130880  0.17331006  1
  H+  H24  1  0.62574997  0.52159555  0.16628797  1
  H+  H25  1  0.35253818  0.63855708  0.66682234  1
  H+  H26  1  0.12150577  0.98147422  0.83716346  1
  H+  H27  1  0.85728801  0.21990504  0.67193112  1
  H+  H28  1  0.88707061  0.26519721  0.00083679  1
  H+  H29  1  0.07813443  0.41474659  0.76761440  1
  H+  H30  1  0.11066654  0.72437552  0.83853012  1
  H+  H31  1  0.37639600  0.40389886  1.01504627  1
  H+  H32  1  0.12631508  0.73117235  0.49412177  1
  H+  H33  1  0.02110175  0.35449925  0.31990636  1
  H+  H34  1  0.14057511  0.27019116  0.50690805  1
  H+  H35  1  0.92168323  0.25682740  0.31554463  1
  H+  H36  1  0.01409632  0.63338237  0.15042035  1
  H+  H37  1  0.15518387  0.66821923  0.34051197  1
  H+  H38  1  0.71468776  0.60967690  0.86635066  1
  H+  H39  1  0.10591093  0.46924685  0.67088626  1
  H+  H40  1  0.86831005  -0.01815192  0.81697614  1
  H+  H41  1  0.00487380  0.66745244  0.34453194  1
  H+  H42  1  0.02901508  0.63099698  0.67658756  1
  H+  H43  1  0.61275451  0.63316681  0.48837486  1
  H+  H44  1  1.05924060  0.90508843  1.00373752  1
  H+  H45  1  0.11409428  -0.02164348  0.14832617  1
  H+  H46  1  0.75457569  0.88449954  0.65199451  1
  H+  H47  1  0.82597020  0.70635563  0.46248039  1
  H+  H48  1  0.97961602  0.11394272  0.16900988  1
  H+  H49  1  0.13195488  0.35762425  0.83502389  1
  H+  H50  1  0.87001947  0.73972771  0.32788342  1
  H+  H51  1  0.37803610  0.27212703  0.16790199  1
  H+  H52  1  0.72144297  0.10315204  0.65836910  1
  H+  H53  1  0.77979685  0.64924664  -0.00024799  1
  H+  H54  1  0.41766661  0.08540466  0.60696493  1
  H+  H55  1  0.26959197  0.64599254  0.82051790  1
  H+  H56  1  0.37914004  0.50264706  0.83897743  1
  H+  H57  1  0.38056998  0.10482692  0.88239053  1
  H+  H58  1  0.63678694  0.61157618  1.01448912  1
  H+  H59  1  0.97450511  0.70346672  0.55254645  1
  H+  H60  1  0.11146519  0.13453100  0.82895430  1
  H+  H61  1  0.50750415  0.36480235  0.69855332  1
  H+  H62  1  0.48823981  0.14770376  0.02062888  1
  H+  H63  1  0.63703839  0.35311164  0.86004031  1
  H+  H64  1  0.47555693  0.11114286  0.66711190  1
  H+  H65  1  0.40430871  0.34025231  0.54506623  1
  H+  H66  1  0.26729697  0.88268874  0.14668571  1
  H+  H67  1  0.21724056  0.85616351  0.65400370  1
  H+  H68  1  0.87550718  0.89810463  0.81811953  1
  H+  H69  1  0.32466026  0.40258886  0.76749177  1
  H+  H70  1  0.38700673  0.60703667  0.49862712  1
  H+  H71  1  0.03626476  0.90062102  0.67878509  1
  H+  H72  1  0.03671177  0.64725095  0.49584873  1
  H+  H73  1  0.88286380  0.76665398  0.18925619  1
  H+  H74  1  0.35001450  0.96838078  0.66698278  1
  H+  H75  1  0.55229641  0.84947259  0.68363772  1
  H+  H76  1  0.74779121  0.40688557  0.50004452  1
  H+  H77  1  0.69788788  0.51366179  0.63829177  1
  H+  H78  1  0.13168459  0.61275609  -0.01025799  1
  H+  H79  1  0.36527265  0.13136083  0.49316139  1
  H+  H80  1  0.75684946  0.36820936  0.85110348  1
  H+  H81  1  0.37073507  0.86094038  0.32048914  1
  H+  H82  1  0.77204226  0.87780806  0.17250840  1
  H+  H83  1  0.98349293  0.10650718  0.32726022  1
  H+  H84  1  0.34665250  0.13107556  0.15564710  1
  H+  H85  1  0.63737035  0.83367940  1.00621539  1
  H+  H86  1  0.46633749  0.59218503  0.83421195  1
  H+  H87  1  0.11275239  0.22787363  0.15734581  1
  H+  H88  1  0.26385445  0.88977894  0.33934725  1
  H+  H89  1  0.61429394  -0.02741681  0.33058759  1
  H+  H90  1  0.61387915  0.97132714  0.18965598  1
  H+  H91  1  0.34593176  0.87900477  0.65474709  1
  H+  H92  1  0.11283833  0.72453801  0.67369751  1
  H+  H93  1  0.14221387  0.26041853  0.32345407  1
  H+  H94  1  0.86230919  0.64654358  0.48539528  1
  H+  H95  1  0.35578265  0.97538726  0.34012067  1
  H+  H96  1  0.26993194  0.64138948  1.00376032  1
  H+  H97  1  0.74286865  0.11407015  0.31065794  1
  H+  H98  1  0.64160645  0.61857856  0.32281197  1
  H+  H99  1  0.22495202  0.11272536  0.84632232  1
  H+  H100  1  0.36018856  0.64528965  0.99771602  1
  H+  H101  1  0.61165835  0.13563712  0.67573081  1
  H+  H102  1  0.22140630  0.11787985  0.17028915  1
  H+  H103  1  0.89001668  0.62819291  0.30540954  1
  H+  H104  1  0.56293882  0.14350404  0.17213899  1
  H+  H105  1  0.45355459  0.85159326  0.31791595  1
  H+  H106  1  0.36178917  0.12666633  0.68532615  1
  H+  H107  1  0.38190983  0.77664226  0.83100824  1
  H+  H108  1  0.62292109  0.23004878  0.83570191  1
  H+  H109  1  0.98954269  0.30793712  0.51044926  1
  H+  H110  1  0.89212081  0.56522955  0.80500685  1
  H+  H111  1  0.73850084  0.09159220  0.99891438  1
  H+  H112  1  0.78403086  0.38723081  0.16447647  1
  H+  H113  1  0.35524136  0.38284266  0.47755119  1
  H+  H114  1  0.58401127  0.66385268  0.10157449  1
  H+  H115  1  0.65672371  0.17788599  0.01802975  1
  H+  H116  1  0.58201800  0.45997059  0.70670567  1
  H+  H117  1  0.60507844  0.46634003  0.84913476  1
  H+  H118  1  0.11424197  0.13137809  0.33669300  1
  H+  H119  1  0.83790684  0.35180972  0.35519956  1
  H+  H120  1  0.12104828  0.47762051  0.15665245  1
  H+  H121  1  0.65861649  0.57831313  0.22792767  1
  H+  H122  1  0.24951682  0.61954729  0.16550577  1
  H+  H123  1  0.37741592  0.24835557  0.68601230  1
  H+  H124  1  0.47696021  0.11041124  0.50898992  1
  H+  H125  1  0.90198690  0.60843596  0.66035430  1
  H+  H126  1  0.57789020  0.40298363  0.79213461  1
  H+  H127  1  0.60860170  0.63820170  0.66791011  1
  H+  H128  1  0.11065727  0.13381552  0.00672410  1
  H+  H129  1  0.47426802  0.86257574  0.83266968  1
  H+  H130  1  0.57881970  0.16587325  0.43632608  1
  H+  H131  1  0.14984918  0.03031341  0.98319708  1
  H+  H132  1  0.88124975  0.53938394  0.32116709  1
  H+  H133  1  0.85569456  0.24160368  0.82892691  1
  H+  H134  1  0.42519208  0.30393834  0.62821811  1
  H+  H135  1  0.68445025  0.91034639  0.63681123  1
  H+  H136  1  0.41125503  0.58301820  0.92318474  1
  H+  H137  1  0.84604966  0.92492567  0.72875627  1
  H+  H138  1  1.10156001  0.72340095  0.98050592  1
  H+  H139  1  0.61871089  0.48211624  0.33435710  1
  H+  H140  1  0.13979980  0.46137343  0.33469789  1
  H+  H141  1  0.90095133  0.88378298  0.65849980  1
  H+  H142  1  0.36696918  0.73210391  0.15231006  1
  H+  H143  1  0.87197050  0.13452673  0.16744787  1
  H+  H144  1  0.63541189  0.02646239  0.50051302  1
  H+  H145  1  0.10980717  0.22355585  0.82596102  1
  H+  H146  1  0.38286689  0.86431251  0.15986018  1
  H+  H147  1  0.84953016  0.45458834  0.00829309  1
  H+  H148  1  0.87765396  -0.01328715  0.66832829  1
  H+  H149  1  0.14822234  0.02950866  0.50739222  1
  H+  H150  1  0.13785541  0.27207708  0.66272606  1
  H+  H151  1  0.71512055  0.59081474  0.48436891  1
  H+  H152  1  0.36808116  0.76287670  0.64513899  1
  H+  H153  1  0.86795029  0.12968676  0.01173637  1
  H+  H154  1  0.39791668  0.51990718  0.32214222  1
  H+  H155  1  0.83322674  0.30807985  0.35296855  1
  H+  H156  1  0.60087901  0.46028062  0.48790919  1
  H+  H157  1  0.22764602  0.12746933  -0.00867213  1
  H+  H158  1  0.63116577  0.76246651  0.17618193  1
  H+  H159  1  0.22338221  0.11010874  0.32198774  1
  H+  H160  1  0.47588396  0.63535914  0.97737908  1
  H+  H161  1  0.64245595  0.07099181  0.99731861  1
  H+  H162  1  0.27566501  0.64006165  0.49055380  1
  H+  H163  1  0.61338646  0.47378932  1.01026211  1
  H+  H164  1  0.88436272  0.35995855  0.85352945  1
  H+  H165  1  0.88385173  0.85670751  0.18795683  1
  H+  H166  1  0.59687849  0.36940368  0.49429271  1
  H+  H167  1  0.36304615  0.01231578  0.97503686  1
  H+  H168  1  0.38833809  0.02128604  0.51004699  1
  H+  H169  1  0.64190713  0.77649856  0.32905522  1
  H+  H170  1  0.52639088  0.59869526  0.03062134  1
  H+  H171  1  0.75574679  0.41236422  0.33988206  1
  H+  H172  1  0.36551713  0.24017514  0.00800644  1
  H+  H173  1  0.13629660  0.77264295  0.16815658  1
  H+  H174  1  0.92484792  0.60588174  0.56811379  1
  H+  H175  1  0.62827833  0.01764473  0.65679169  1
  H+  H176  1  0.02252717  0.38640761  0.82935024  1
  H+  H177  1  0.12968609  0.85733066  0.66118047  1
  H+  H178  1  0.16993674  0.32184037  0.26318425  1
  H+  H179  1  0.35299983  0.89004211  -0.01221868  1
  H+  H180  1  0.46308689  0.62892590  0.66540279  1
  H+  H181  1  -0.00995193  0.87765799  0.84353327  1
  H+  H182  1  0.77458557  0.89007599  0.33579066  1
  H+  H183  1  0.96687119  0.60007048  0.98733832  1
  H+  H184  1  0.46717328  0.35314433  0.85261293  1
  H+  H185  1  0.61027586  0.78305630  0.67394555  1
  H+  H186  1  0.57538206  0.59989375  0.64995300  1
  H+  H187  1  0.86017554  0.96614693  0.16739306  1
  H+  H188  1  0.62760659  0.35341499  0.67330746  1
  H+  H189  1  0.89181125  0.86542849  0.33007095  1
  H+  H190  1  0.27177654  0.38527188  0.67151218  1
  H+  H191  1  0.58983459  0.82277318  0.86673013  1
  H+  H192  1  0.61025734  0.13384917  0.49435779  1
  H+  H193  1  0.13478968  0.52219474  0.83946716  1
  H+  H194  1  0.87715568  0.35466660  0.67556537  1
  H+  H195  1  0.14124939  0.51943583  0.50177831  1
  H+  H196  1  0.62162305  0.98415710  0.82499074  1
  H+  H197  1  0.81961020  0.29353905  0.47411856  1
  H+  H198  1  0.12268461  0.38406642  0.49570597  1
  H+  H199  1  0.10743176  0.38126046  0.67335484  1
  H+  H200  1  0.51739196  0.13255916  0.33673591  1
  H+  H201  1  0.14108202  0.60926367  0.50085366  1
  H+  H202  1  0.86512733  0.32830497  0.46838791  1
  H+  H203  1  0.84655151  0.44481286  0.49158365  1
  H+  H204  1  0.66513831  0.57986995  0.64694747  1
  H+  H205  1  0.87198635  0.91656818  0.49070911  1
  H+  H206  1  0.89096467  0.05030078  0.50123382  1
  H+  H207  1  0.45452785  0.85737915  0.64779103  1
  H+  H208  1  0.86189539  0.64752663  0.86051981  1
  H+  H209  1  0.35178079  0.21272117  0.33289959  1
  H+  H210  1  0.26215338  0.63585902  0.66334103  1
  H+  H211  1  0.11317850  0.62788580  0.33303307  1
  H+  H212  1  0.89255646  0.11454002  0.65823987  1
  H+  H213  1  0.63088631  0.27901562  0.32374496  1
  H+  H214  1  1.02003612  0.13151383  1.00810411  1
  H+  H215  1  0.39603350  0.63850879  0.34990893  1
  H+  H216  1  0.87471657  0.38873394  0.16326400  1
  H+  H217  1  0.37617985  0.34958080  0.84349777  1
  H+  H218  1  0.89023284  0.01647184  0.32496113  1
  H+  H219  1  0.77587162  0.88219651  0.99840127  1
  H+  H220  1  0.80967029  0.65013271  0.66626271  1
  H+  H221  1  0.56989632  0.24237267  0.02352866  1
  H+  H222  1  0.13173252  0.60749631  0.65734169  1
  H+  H223  1  0.88601445  0.51293848  0.66444926  1
  H+  H224  1  0.28091341  0.38384536  0.33018592  1
  H+  H225  1  0.39633295  0.61961365  0.17067601  1
  H+  H226  1  0.98887161  0.36097845  0.16804146  1
  H+  H227  1  0.91866483  0.32745509  0.90894196  1
  H+  H228  1  0.27267025  0.12768932  0.68553801  1
  H+  H229  1  0.76393157  0.38348651  0.68742570  1
  H+  H230  1  0.63822418  0.86233594  0.49508266  1
  H+  H231  1  0.37490860  0.86030324  0.49761753  1
  H+  H232  1  0.37304129  0.75992094  0.49690609  1
  H+  H233  1  0.37305887  0.49100081  1.01080637  1
  H+  H234  1  0.92556163  0.58600805  0.22600238  1
  H+  H235  1  0.87110916  0.89787820  1.00501969  1
  H+  H236  1  0.66076149  0.28227254  0.16924865  1
  H+  H237  1  0.13167485  0.11588753  0.17168431  1
  H+  H238  1  0.33233202  0.67202276  0.33954908  1
  H+  H239  1  0.88140194  0.01889260  0.99241052  1
  H+  H240  1  0.03015873  0.13730383  0.67368910  1
  H+  H241  1  0.11158061  0.98586811  0.33559761  1
  H+  H242  1  0.38077287  0.10811844  0.32302803  1
  H+  H243  1  0.13217723  0.36934891  0.33825748  1
  H+  H244  1  0.22967352  0.36552078  0.17271097  1
  H+  H245  1  0.13135022  0.89113446  0.97142658  1
  H+  H246  1  0.60604688  0.72102740  0.83478637  1
  H+  H247  1  0.15648829  0.32353810  0.89537440  1
  H+  H248  1  0.36427761  0.48050019  0.16666057  1
  H+  H249  1  0.48028682  0.36877796  -0.00159301  1
  H+  H250  1  0.13193630  0.85923102  0.86726715  1
  H+  H251  1  0.12711414  0.26512250  0.98697558  1
  H+  H252  1  0.89391333  0.52175977  0.16818143  1
  H+  H253  1  0.47243398  0.35846248  0.49203270  1
  H+  H254  1  0.37600181  0.34470628  0.32437060  1
  H+  H255  1  0.89330470  0.11861276  0.83840882  1
  H+  H256  1  0.33794496  0.42688468  0.10499031  1
  H+  H257  1  0.14277700  0.86779819  0.50334898  1
  H+  H258  1  0.85836827  0.63414202  0.16442110  1
  H+  H259  1  0.64106946  0.17553992  0.98594892  1
  H+  H260  1  0.11171475  0.47637233  0.00525839  1
  H+  H261  1  0.09344882  0.62396526  0.12846681  1
  H+  H262  1  0.61317420  0.88421281  0.33414004  1
  H+  H263  1  0.18561160  0.59325792  0.32085026  1
  H+  H264  1  0.44566875  0.10608198  0.14946131  1
  H+  H265  1  0.90771240  0.79778235  0.64933119  1
  H+  H266  1  0.62760390  0.36704145  0.31944425  1
  H+  H267  1  0.26309194  0.37114108  0.82609246  1
  H+  H268  1  0.88046692  0.35121189  0.00084094  1
  H+  H269  1  0.62537609  0.60513127  0.85313636  1
  H+  H270  1  0.69586992  0.34041201  1.00480491  1
  H+  H271  1  0.03385243  0.13898536  0.49314502  1
  H+  H272  1  0.04270922  0.90967302  0.49003209  1
  H+  H273  1  0.98050799  0.11630442  0.83822530  1
  H+  H274  1  0.11950759  0.89525407  0.14489663  1
  H+  H275  1  0.35814675  0.38102820  0.67558504  1
  H+  H276  1  0.12276498  0.13805314  0.49369732  1
  H+  H277  1  0.23544879  0.11719405  0.50842964  1
  H+  H278  1  0.90261936  0.79270407  0.99422135  1
  H+  H279  1  0.35410453  0.89299936  0.82828310  1
  H+  H280  1  0.66357463  0.12004310  0.21758090  1
  H+  H281  1  0.78617638  0.13698892  0.17988589  1
  H+  H282  1  0.61118467  0.13616847  0.83239816  1
  H+  H283  1  0.83360619  0.15642217  0.07176505  1
  H+  H284  1  0.13276059  0.61005595  0.84211269  1
  H+  H285  1  0.92410961  0.08193499  0.23028880  1
  H+  H286  1  0.98238824  0.61876741  0.83647469  1
  H+  H287  1  0.72205266  0.11218814  0.84477896  1
  H+  H288  1  0.35759641  0.47367783  0.48131666  1
  H+  H289  1  0.32635588  0.15213261  0.39329389  1
  H+  H290  1  0.61107283  0.63502568  0.16395564  1
  H+  H291  1  0.22782788  0.36031925  0.50506857  1
  H+  H292  1  0.67546025  0.57090841  0.54958660  1
  H+  H293  1  0.73088030  0.62025738  0.31447102  1
  H+  H294  1  0.65793185  0.57899918  0.95235663  1
  H+  H295  1  0.94563813  0.27539107  0.57362213  1
  H+  H296  1  0.41003285  0.84052044  0.92726352  1
  H+  H297  1  0.58497903  0.91647920  0.42441079  1
  H+  H298  1  0.16426656  0.58105083  0.93371056  1
  H+  H299  1  0.40443920  0.82684253  0.56148749  1
  H+  H300  1  0.32568096  0.16774641  0.09560875  1
  H+  H301  1  0.09045935  0.40655225  0.43501119  1
  H+  H302  1  0.33765339  0.67114356  0.09265542  1
  H+  H303  1  0.08890744  0.41864745  0.09634171  1
  H+  H304  1  0.61734123  0.72518480  0.48870631  1
  H+  H305  1  0.76977699  0.63466865  0.16561456  1
  H+  H306  1  0.39863518  0.31270512  0.26335290  1
  H+  H307  1  0.17712007  0.08751897  0.60450551  1
  H+  H308  1  0.08887310  0.67463395  0.77293069  1
  H+  H309  1  0.35694975  0.14714623  -0.00030740  1
  H+  H310  1  0.26135860  0.88472871  -0.02090008  1
  H+  H311  1  0.80158406  0.45848317  0.40237916  1
  H+  H312  1  0.32821783  0.91394843  0.43309987  1
  H+  H313  1  0.08680635  0.16466366  0.73445073  1
  H+  H314  1  0.92821133  0.08992543  0.59916625  1
  H+  H315  1  0.91745948  0.08693643  0.93703532  1
  H+  H316  1  0.15895101  0.57615703  0.59635335  1
  H+  H317  1  0.89811853  0.26931919  0.17389441  1
  H+  H318  1  0.40153810  0.83364470  0.22431537  1
  H+  H319  1  0.82805308  0.15766404  0.72755810  1
  H+  H320  1  0.60825476  0.13785564  0.33684033  1
  H+  H321  1  0.83484574  0.66136225  0.37613162  1
  H+  H322  1  0.61135791  0.66997875  0.77470256  1
  H+  H323  1  0.64543844  0.80407323  0.91416237  1
  H+  H324  1  0.67671552  0.84029919  0.55367907  1
  H+  H325  1  0.81970479  0.41011061  0.74874734  1
  H+  H326  1  0.96684374  0.35661625  0.67261792  1
  H+  H327  1  0.65127880  0.32383461  0.57264812  1
  H+  H328  1  0.16631833  0.33000535  0.60236073  1
  H+  H329  1  0.08173220  0.16717308  0.09770202  1
  H+  H330  1  0.82977178  0.40192861  0.06956594  1
  H+  H331  1  0.64000987  0.91183209  0.80081202  1
  H+  H332  1  0.09697322  0.92889296  0.42858366  1
  H+  H333  1  0.88204375  0.70036562  0.71702479  1
  H+  H334  1  0.52221483  0.89033158  0.17261220  1
  H+  H335  1  0.16833768  0.83551766  0.22641164  1
  H+  H336  1  0.33530677  0.15036517  0.78824012  1
  H+  H337  1  0.38616477  0.53158273  0.66668004  1
  H+  H338  1  0.34784937  0.67265827  0.43400175  1
  H+  H339  1  0.58832202  0.66793222  0.39533562  1
  H+  H340  1  0.42656454  0.58546855  0.26517822  1
  H+  H341  1  0.92700798  0.15219292  0.51794732  1
  H+  H342  1  0.16336827  0.83383552  0.56584892  1
  H+  H343  1  0.08698129  0.16262329  0.39783703  1
  H+  H344  1  0.41050632  0.07724522  0.26422049  1
  H+  H345  1  0.57522017  0.17693007  0.10378452  1
  H+  H346  1  0.93872552  0.86344563  0.94360029  1
  H+  H347  1  0.16316349  0.08945621  0.90332248  1
  H+  H348  1  0.65973365  0.08087185  0.56156463  1
  H+  H349  1  0.14419349  0.11553925  0.66341299  1
  H+  H350  1  0.83421639  0.92651890  0.39548570  1
  H+  H351  1  0.58219674  0.41593891  0.39008317  1
  H+  H352  1  0.67150941  0.06422743  0.90568959  1
  H+  H353  1  0.63170372  0.85261667  0.18172295  1
  H+  H354  1  0.86534455  0.64524799  -0.00307507  1
  H+  H355  1  0.95145249  0.32419219  0.25237745  1
  H+  H356  1  0.91948759  0.83375944  0.26696954  1
  H+  H357  1  0.81716938  0.66382898  0.80625711  1
  H+  H358  1  0.32131090  0.91481397  0.08426706  1
  H+  H359  1  0.09805824  0.92093636  0.77879572  1
  H+  H360  1  0.67879779  0.33870722  0.22942623  1
  H+  H361  1  0.94050757  0.87328520  0.56789250  1
  H+  H362  1  0.32154851  0.67859483  0.75813681  1
  H+  H363  1  0.77679075  0.90164596  0.48675595  1
  H+  H364  1  0.60156007  0.90326075  0.08384564  1
  H+  H365  1  0.12793900  0.98279426  0.67937503  1
  H+  H366  1  0.14254952  0.88426467  0.31810787  1
  H+  H367  1  0.41242667  0.33627368  0.94232596  1
  H+  H368  1  0.65549941  0.31944768  0.92539801  1
  H+  H369  1  0.07749641  0.67964010  0.04741827  1
  H+  H370  1  0.63251795  0.26759051  0.66847986  1
  H+  H371  1  0.06654735  0.69455303  0.40291971  1
  H+  H372  1  0.57278205  0.41836802  0.09742596  1
  H+  H373  1  0.58861480  0.16861575  0.73748147  1
  H+  H374  1  0.90035088  0.56199456  0.93399665  1
  H+  H375  1  0.33306364  0.41623476  0.39172308  1
  H+  H376  1  0.55991901  0.91991545  0.72746943  1
  H+  H377  1  0.16367358  0.08704524  0.26141439  1
  H+  H378  1  0.02316145  0.38585607  0.00865819  1
  H+  H379  1  0.47388489  0.60573634  0.49059467  1
  H+  H380  1  0.20721738  0.56288796  0.26076671  1
  H+  H381  1  0.55845619  0.74467126  0.73607087  1
  H+  H382  1  0.48534021  0.61826104  0.17176203  1
  H+  H383  1  0.66880595  0.83078068  0.26779964  1
  O2-  O384  1  0.08027896  0.16692057  0.14363656  1
  O2-  O385  1  0.09351302  0.16805529  0.47609271  1
  O2-  O386  1  0.07908595  0.16193009  0.81144250  1
  O2-  O387  1  0.08845594  0.41731231  0.14251456  1
  O2-  O388  1  0.08917038  0.41098302  0.47986714  1
  O2-  O389  1  0.08207737  0.41719074  0.81302634  1
  O2-  O390  1  0.07483843  0.66611662  0.13115536  1
  O2-  O391  1  0.09505331  0.67029139  0.47925935  1
  O2-  O392  1  0.08036761  0.66696863  0.81794398  1
  O2-  O393  1  0.09624200  0.92685427  0.12343826  1
  O2-  O394  1  0.10137820  0.92905203  0.47463841  1
  O2-  O395  1  0.09373119  0.91957028  0.82385616  1
  O2-  O396  1  0.32245417  0.16673955  0.14129786  1
  O2-  O397  1  0.33253750  0.15756377  0.47522041  1
  O2-  O398  1  0.33187351  0.15327087  0.83303432  1
  O2-  O399  1  0.33075106  0.42047026  0.15098995  1
  O2-  O400  1  0.32179441  0.41137617  0.46748082  1
  O2-  O401  1  0.32459737  0.39800401  0.81262519  1
  O2-  O402  1  0.33880585  0.67060889  0.13867760  1
  O2-  O403  1  0.33813554  0.67707982  0.47994827  1
  O2-  O404  1  0.32717191  0.68305501  0.80288489  1
  O2-  O405  1  0.32713215  0.91521853  0.12931543  1
  O2-  O406  1  0.33259932  0.91127158  0.47888356  1
  O2-  O407  1  0.31751389  0.91845370  0.82151018  1
  O2-  O408  1  0.60671382  0.17218553  0.14122002  1
  O2-  O409  1  0.57854481  0.16524412  0.48156950  1
  O2-  O410  1  0.60169924  0.17754952  0.80956379  1
  O2-  O411  1  0.57373560  0.42733408  0.14215868  1
  O2-  O412  1  0.56769378  0.39887363  0.47529286  1
  O2-  O413  1  0.57593606  0.40460662  0.83691343  1
  O2-  O414  1  0.58110112  0.66678524  0.14927399  1
  O2-  O415  1  0.58472749  0.66500650  0.47333144  1
  O2-  O416  1  0.58336513  0.66213951  0.81387709  1
  O2-  O417  1  0.58562985  0.91749145  0.16642843  1
  O2-  O418  1  0.58577127  0.91461204  0.47030987  1
  O2-  O419  1  0.59513642  0.92725954  0.80196744  1
  O2-  O420  1  0.83928072  0.16542376  0.15560392  1
  O2-  O421  1  0.85059615  0.16969600  0.39871317  1
  O2-  O422  1  0.81024885  0.19148755  0.80408039  1
  O2-  O423  1  0.84557984  0.41811059  0.14628481  1
  O2-  O424  1  0.80118418  0.45867279  0.48584111  1
  O2-  O425  1  0.81875690  0.39882726  0.83146709  1
  O2-  O426  1  0.83228931  0.67012278  0.15719106  1
  O2-  O427  1  0.81777138  0.64880240  0.45948123  1
  O2-  O428  1  0.82707096  0.67432506  0.84962347  1
  O2-  O429  1  0.83324577  0.90389129  0.16098870  1
  O2-  O430  1  0.83752899  0.94045800  0.47349286  1
  O2-  O431  1  0.84457167  0.92451759  0.79786629  1
  O2-  O432  1  0.16287697  0.08779549  0.18901725  1
  O2-  O433  1  0.17554632  0.08847927  0.52540946  1
  O2-  O434  1  0.16253468  0.08524629  0.85706331  1
  O2-  O435  1  0.16816579  0.33168140  0.18748184  1
  O2-  O436  1  0.16921441  0.32972528  0.52415169  1
  O2-  O437  1  0.15944348  0.32430985  0.84875419  1
  O2-  O438  1  0.18998750  0.58405866  0.18645618  1
  O2-  O439  1  0.17241346  0.58041084  0.51660723  1
  O2-  O440  1  0.16490223  0.58178313  0.85633104  1
  O2-  O441  1  0.17230492  0.83290507  0.18122540  1
  O2-  O442  1  0.16970850  0.83507214  0.52022958  1
  O2-  O443  1  0.15366642  0.81950500  0.87864649  1
  O2-  O444  1  0.39880144  0.07193184  0.17753082  1
  O2-  O445  1  0.41664475  0.08112775  0.52548173  1
  O2-  O446  1  0.42114594  0.09050582  0.90341861  1
  O2-  O447  1  0.40839742  0.33014102  0.18687725  1
  O2-  O448  1  0.40790732  0.32868875  0.50241931  1
  O2-  O449  1  0.40494253  0.32039538  0.86326903  1
  O2-  O450  1  0.42367643  0.58853442  0.18836723  1
  O2-  O451  1  0.41263854  0.57019276  0.50208222  1
  O2-  O452  1  0.40933095  0.56341262  0.85304230  1
  O2-  O453  1  0.41115668  0.83461584  0.17899367  1
  O2-  O454  1  0.40560532  0.82754596  0.51299540  1
  O2-  O455  1  0.41630035  0.83626372  0.84950340  1
  O2-  O456  1  0.68635191  0.08289695  0.23042024  1
  O2-  O457  1  0.65878303  0.08517810  0.51675631  1
  O2-  O458  1  0.66429889  0.07141590  0.86119888  1
  O2-  O459  1  0.69260786  0.34133477  0.18533565  1
  O2-  O460  1  0.65015674  0.32567360  0.52749286  1
  O2-  O461  1  0.66727481  0.32332160  0.87476129  1
  O2-  O462  1  0.65944372  0.58289927  0.18284242  1
  O2-  O463  1  0.65920377  0.56668866  0.50655586  1
  O2-  O464  1  0.65175872  0.57265369  0.87047849  1
  O2-  O465  1  0.66240765  0.82237151  0.19468004  1
  O2-  O466  1  0.67158640  0.83425246  0.50875545  1
  O2-  O467  1  0.63375788  0.80624044  0.86811135  1
  O2-  O468  1  0.91925567  0.08442703  0.18535283  1
  O2-  O469  1  0.93461715  0.10131474  0.52381366  1
  O2-  O470  1  0.91911997  0.08597028  0.85364310  1
  O2-  O471  1  0.93183724  0.33009786  0.18961869  1
  O2-  O472  1  0.94697093  0.25615147  0.53241119  1
  O2-  O473  1  0.91820419  0.33096067  0.86311526  1
  O2-  O474  1  0.92511410  0.58397438  0.18010441  1
  O2-  O475  1  0.94009625  0.64721202  0.53374928  1
  O2-  O476  1  0.91754832  0.58582598  0.84498409  1
  O2-  O477  1  0.91373959  0.82697187  0.20563785  1
  O2-  O478  1  0.93986343  0.87503581  0.52165335  1
  O2-  O479  1  0.92948466  0.85680202  0.85739220  1
  O2-  O480  1  0.16245137  0.08518172  0.30776073  1
  O2-  O481  1  0.17637798  0.08623693  0.65006888  1
  O2-  O482  1  0.16764444  0.09337323  0.97573546  1
  O2-  O483  1  0.17481799  0.32153132  0.30875181  1
  O2-  O484  1  0.16629400  0.33281801  0.64788025  1
  O2-  O485  1  0.15325131  0.32160911  0.96592289  1
  O2-  O486  1  0.21006068  0.55874709  0.30589082  1
  O2-  O487  1  0.15760585  0.57344642  0.64173636  1
  O2-  O488  1  0.16276912  0.58150296  0.97937134  1
  O2-  O489  1  0.16755259  0.84773940  0.30555793  1
  O2-  O490  1  0.15334868  0.82308394  0.64209790  1
  O2-  O491  1  0.15609229  0.81949416  0.94601184  1
  O2-  O492  1  0.41374694  0.07892802  0.30907094  1
  O2-  O493  1  0.41500691  0.08339130  0.65221476  1
  O2-  O494  1  0.39366734  0.07829022  0.96703444  1
  O2-  O495  1  0.38964253  0.30163389  0.30801468  1
  O2-  O496  1  0.41180646  0.31137771  0.66985787  1
  O2-  O497  1  0.41635777  0.33975254  0.98744368  1
  O2-  O498  1  0.43017402  0.58225888  0.31063114  1
  O2-  O499  1  0.40511485  0.58965449  0.65057327  1
  O2-  O500  1  0.41492001  0.59690074  0.96860203  1
  O2-  O501  1  0.39661344  0.83025452  0.29953563  1
  O2-  O502  1  0.39830038  0.82356233  0.62642270  1
  O2-  O503  1  0.40506350  0.84550387  0.97206837  1
  O2-  O504  1  0.68109995  0.08670674  0.29756229  1
  O2-  O505  1  0.66083806  0.07841704  0.64418613  1
  O2-  O506  1  0.67984949  0.05129213  0.98067556  1
  O2-  O507  1  0.66035528  0.33703476  0.30587467  1
  O2-  O508  1  0.66108137  0.32967933  0.65446071  1
  O2-  O509  1  0.64007508  0.32025001  0.98511364  1
  O2-  O510  1  0.66770513  0.58489875  0.30676878  1
  O2-  O511  1  0.71265629  0.57318991  0.63113362  1
  O2-  O512  1  0.66881726  0.58165814  0.99647439  1
  O2-  O513  1  0.67082436  0.83717148  0.31379943  1
  O2-  O514  1  0.69497756  0.86230044  0.63305125  1
  O2-  O515  1  0.66119603  0.80246036  0.98245783  1
  O2-  O516  1  0.92384897  0.07793998  0.30918619  1
  O2-  O517  1  0.92596545  0.08666959  0.64493067  1
  O2-  O518  1  0.91557125  0.08397880  0.98197846  1
  O2-  O519  1  0.96083709  0.31714605  0.29885542  1
  O2-  O520  1  0.90528175  0.32309154  0.66032419  1
  O2-  O521  1  0.91585415  0.32541179  0.98537141  1
  O2-  O522  1  0.92136456  0.59553513  0.29998388  1
  O2-  O523  1  0.92196420  0.57006102  0.64442819  1
  O2-  O524  1  0.90401395  0.56391986  0.97832240  1
  O2-  O525  1  0.92389368  0.83676850  0.31688962  1
  O2-  O526  1  0.93699325  0.85980295  0.64034326  1
  O2-  O527  1  0.93535452  0.85646121  0.98819042  1
  O2-  O528  1  0.08061837  0.16416119  0.02295092  1
  O2-  O529  1  0.08295767  0.16143103  0.35238407  1
  O2-  O530  1  0.09062543  0.16686780  0.68877244  1
  O2-  O531  1  0.08433537  0.41683273  0.02229837  1
  O2-  O532  1  0.10187098  0.40211681  0.35140293  1
  O2-  O533  1  0.07627692  0.41036283  0.68891878  1
  O2-  O534  1  0.07332617  0.66669681  0.00331627  1
  O2-  O535  1  0.04856713  0.71714758  0.36872002  1
  O2-  O536  1  0.08829932  0.66569053  0.69258601  1
  O2-  O537  1  0.11868844  0.93516888  -0.01133297  1
  O2-  O538  1  0.08662894  0.92706150  0.35394772  1
  O2-  O539  1  0.09503527  0.92263766  0.69518703  1
  O2-  O540  1  0.33026534  0.17717384  0.01971513  1
  O2-  O541  1  0.32456821  0.14983399  0.34819997  1
  O2-  O542  1  0.33147734  0.15526549  0.70432002  1
  O2-  O543  1  0.35187705  0.43724419  0.03384990  1
  O2-  O544  1  0.34048031  0.41720724  0.34644350  1
  O2-  O545  1  0.33199097  0.41543637  0.68787779  1
  O2-  O546  1  0.33089379  0.67365979  0.01766987  1
  O2-  O547  1  0.37565887  0.67637679  0.36824547  1
  O2-  O548  1  0.32332680  0.67298539  0.67612690  1
  O2-  O549  1  0.31813630  0.91906819  -0.00020535  1
  O2-  O550  1  0.32355239  0.91597062  0.35715683  1
  O2-  O551  1  0.31291070  0.90539700  0.66987922  1
  O2-  O552  1  0.52590887  0.19191270  0.04983784  1
  O2-  O553  1  0.57689555  0.16445555  0.35410138  1
  O2-  O554  1  0.58288022  0.16675467  0.69135616  1
  O2-  O555  1  0.57586419  0.41133663  0.01942327  1
  O2-  O556  1  0.58798928  0.42022123  0.34569649  1
  O2-  O557  1  0.57019011  0.40116245  0.71050422  1
  O2-  O558  1  0.58227444  0.65029743  0.03441496  1
  O2-  O559  1  0.59213899  0.67188168  0.35007971  1
  O2-  O560  1  0.55192362  0.75233357  0.69288998  1
  O2-  O561  1  0.60128569  0.89174525  0.04006909  1
  O2-  O562  1  0.58144578  0.91425017  0.34772753  1
  O2-  O563  1  0.55310064  0.90536357  0.68320134  1
  O2-  O564  1  0.83346231  0.15716804  0.02663308  1
  O2-  O565  1  0.85307928  0.16314072  0.33465890  1
  O2-  O566  1  0.82943297  0.15662996  0.68271027  1
  O2-  O567  1  0.82420689  0.39519622  0.02423974  1
  O2-  O568  1  0.81105515  0.45628216  0.35836825  1
  O2-  O569  1  0.82385420  0.41564506  0.70361193  1
  O2-  O570  1  0.84298037  0.68485067  -0.00649217  1
  O2-  O571  1  0.83550757  0.67388546  0.33261441  1
  O2-  O572  1  0.87222948  0.68807481  0.67370346  1
  O2-  O573  1  0.83520987  0.92575592  0.00923381  1
  O2-  O574  1  0.83588511  0.92136986  0.35039874  1
  O2-  O575  1  0.84631840  0.92455109  0.68147508  1
