# generated using pymatgen
data_H2O
_symmetry_space_group_name_H-M   'P 1'
_cell_length_a   17.98803062
_cell_length_b   17.98458449
_cell_length_c   21.98791483
_cell_angle_alpha   89.99295792
_cell_angle_beta   89.99009528
_cell_angle_gamma   120.03115371
_symmetry_Int_Tables_number   1
_chemical_formula_structural   H2O
_chemical_formula_sum   'H384 O192'
_cell_volume   6158.32016244
_cell_formula_units_Z   192
loop_
 _symmetry_equiv_pos_site_id
 _symmetry_equiv_pos_as_xyz
  1  'x, y, z'
loop_
 _atom_type_symbol
 _atom_type_oxidation_number
  H+  1.0
  O2-  -2.0
loop_
 _atom_site_type_symbol
 _atom_site_label
 _atom_site_symmetry_multiplicity
 _atom_site_fract_x
 _atom_site_fract_y
 _atom_site_fract_z
 _atom_site_occupancy
  H+  H0  1  0.38270589  0.47036764  0.15703887  1
  H+  H1  1  0.20907462  0.60899964  1.00198358  1
  H+  H2  1  0.39062769  0.62258891  0.31659328  1
  H+  H3  1  0.46249740  0.86025481  -0.00553094  1
  H+  H4  1  0.51370148  0.13846883  0.50504458  1
  H+  H5  1  0.66913476  0.82001840  0.32568947  1
  H+  H6  1  0.65481009  0.09250554  0.26953681  1
  H+  H7  1  0.24415333  0.58820953  0.85471006  1
  H+  H8  1  0.21698324  0.11720250  0.81600802  1
  H+  H9  1  0.35412087  0.88313367  0.83456014  1
  H+  H10  1  0.14287908  0.87295505  0.16978396  1
  H+  H11  1  0.77058486  0.11730392  0.83083904  1
  H+  H12  1  0.12790597  0.10251677  0.50453128  1
  H+  H13  1  0.59015911  0.88333788  1.00681699  1
  H+  H14  1  0.10345728  0.72013496  0.83489919  1
  H+  H15  1  0.91482353  0.82862770  0.58804162  1
  H+  H16  1  0.89075235  0.36687093  0.17572921  1
  H+  H17  1  0.41188169  0.35985320  0.99252709  1
  H+  H18  1  0.85188262  0.48322600  0.85287420  1
  H+  H19  1  0.10114224  0.37214781  0.33630822  1
  H+  H20  1  0.39773981  0.01044223  0.67146899  1
  H+  H21  1  0.78317004  0.15410391  0.66913475  1
  H+  H22  1  0.60682477  0.72327564  0.64812478  1
  H+  H23  1  0.11603294  0.21084611  0.00532307  1
  H+  H24  1  0.23180123  0.60985410  0.32240178  1
  H+  H25  1  0.51051519  0.53912018  0.82358065  1
  H+  H26  1  0.12651544  0.84728036  0.66624417  1
  H+  H27  1  0.13216527  0.76952242  0.49537156  1
  H+  H28  1  0.27465804  0.64561788  0.47851311  1
  H+  H29  1  0.41181017  0.13065752  0.78599284  1
  H+  H30  1  0.73717676  0.60699983  0.50975567  1
  H+  H31  1  0.98305041  0.86039485  0.49733579  1
  H+  H32  1  0.89760631  0.78546252  0.99497392  1
  H+  H33  1  0.55997350  0.82048039  0.80037237  1
  H+  H34  1  0.02023983  0.30132533  0.63893327  1
  H+  H35  1  0.51795498  0.63591682  0.65734842  1
  H+  H36  1  0.62816357  0.11095679  0.99512510  1
  H+  H37  1  0.53366646  0.65808952  0.32336121  1
  H+  H38  1  0.12051446  0.22072576  0.48254280  1
  H+  H39  1  0.52518296  0.13480337  0.01323263  1
  H+  H40  1  0.09397610  0.91568653  0.43419035  1
  H+  H41  1  0.12074567  0.97995874  0.16146302  1
  H+  H42  1  -0.05290031  0.08535811  0.65755868  1
  H+  H43  1  0.62770474  0.23382415  0.82103939  1
  H+  H44  1  0.07494329  0.43294807  0.77076645  1
  H+  H45  1  0.85307605  0.47507815  0.35146961  1
  H+  H46  1  1.01692543  0.38085526  0.33890096  1
  H+  H47  1  0.39125679  1.02583400  0.18454103  1
  H+  H48  1  0.41995543  0.09307422  0.27645893  1
  H+  H49  1  0.08083555  0.41010397  0.11621170  1
  H+  H50  1  0.67776630  0.85585201  0.23123843  1
  H+  H51  1  0.91141564  0.88027623  0.99674066  1
  H+  H52  1  0.77303608  0.88238562  0.17059446  1
  H+  H53  1  0.21380014  0.84576768  0.67338260  1
  H+  H54  1  0.30342298  0.41097660  0.08263666  1
  H+  H55  1  0.47562503  0.86665951  0.83850834  1
  H+  H56  1  0.43413054  0.57394642  0.55341163  1
  H+  H57  1  0.37998964  0.52173779  0.64917593  1
  H+  H58  1  0.65180787  0.70715012  0.88572134  1
  H+  H59  1  0.02185080  0.63438244  0.48796224  1
  H+  H60  1  0.38426318  0.74513178  0.63823579  1
  H+  H61  1  0.62794936  0.13618276  0.82256260  1
  H+  H62  1  0.19106126  0.25085076  0.60656790  1
  H+  H63  1  0.38527495  0.27713660  0.52033014  1
  H+  H64  1  0.61892795  0.12885568  0.16921189  1
  H+  H65  1  0.68923411  0.86064716  1.01657724  1
  H+  H66  1  0.01671116  0.13323920  0.16906465  1
  H+  H67  1  0.67680596  0.86888494  0.58258718  1
  H+  H68  1  0.12472287  0.76373079  0.99883115  1
  H+  H69  1  0.72018346  0.60372546  0.32874622  1
  H+  H70  1  0.36314531  0.14080161  0.34619520  1
  H+  H71  1  0.22469499  0.11170677  0.33001617  1
  H+  H72  1  0.32446170  0.07336884  0.86762038  1
  H+  H73  1  0.86276231  0.38917662  0.66104487  1
  H+  H74  1  0.34663275  0.72440438  0.00743253  1
  H+  H75  1  0.25082732  0.36474965  0.47850858  1
  H+  H76  1  0.36857420  0.22099022  0.16623345  1
  H+  H77  1  0.88661304  0.52311136  0.51162371  1
  H+  H78  1  0.97212361  0.61919134  1.00224203  1
  H+  H79  1  0.76453376  0.13787290  0.16726917  1
  H+  H80  1  0.82278014  0.17306251  0.10644488  1
  H+  H81  1  0.88473938  0.36063786  0.33371122  1
  H+  H82  1  0.87521228  0.31710729  0.79759269  1
  H+  H83  1  0.10787864  0.63234697  0.47601960  1
  H+  H84  1  0.38490483  0.03335174  0.33515764  1
  H+  H85  1  0.38834098  0.53313470  0.31580948  1
  H+  H86  1  0.88613805  0.77465398  0.83584257  1
  H+  H87  1  0.41430421  0.59522843  1.09912532  1
  H+  H88  1  0.66202897  0.73988236  0.46581153  1
  H+  H89  1  0.62162668  0.77014496  0.99354589  1
  H+  H90  1  0.94765324  0.10857556  0.50807282  1
  H+  H91  1  0.47103687  0.95001285  0.62822358  1
  H+  H92  1  0.95695329  0.35812237  0.98202457  1
  H+  H93  1  0.71590903  0.35505801  0.84821666  1
  H+  H94  1  0.47053165  0.36116759  0.66504462  1
  H+  H95  1  0.32323313  0.16608604  0.57892277  1
  H+  H96  1  0.54520799  0.90043442  0.66302524  1
  H+  H97  1  0.38631301  0.61367008  0.63866403  1
  H+  H98  1  0.12880282  0.53002150  0.17969612  1
  H+  H99  1  0.86573771  0.64972438  0.01173073  1
  H+  H100  1  0.24357280  0.44897459  0.06440227  1
  H+  H101  1  0.89263943  0.78034670  0.17800615  1
  H+  H102  1  0.62226645  1.01886030  -0.00584724  1
  H+  H103  1  0.81491402  0.91023920  0.01160065  1
  H+  H104  1  0.36305774  0.73453182  0.48162784  1
  H+  H105  1  0.84981928  0.86135290  0.81257543  1
  H+  H106  1  0.62276381  0.47603723  0.16953940  1
  H+  H107  1  0.34949420  0.38364563  0.32977619  1
  H+  H108  1  0.44375601  0.87212971  0.58397357  1
  H+  H109  1  0.90146973  0.07665784  0.23338223  1
  H+  H110  1  0.62981026  0.64753123  0.16628281  1
  H+  H111  1  0.02057752  0.38052811  0.17429343  1
  H+  H112  1  0.64916652  0.78526163  0.17670593  1
  H+  H113  1  0.64041584  0.26578332  0.18185442  1
  H+  H114  1  0.47139180  0.36629613  0.32955028  1
  H+  H115  1  0.85600231  0.87046031  0.66166407  1
  H+  H116  1  0.12948158  0.11103597  0.83441492  1
  H+  H117  1  1.03828223  0.37619821  0.48958585  1
  H+  H118  1  0.49658317  0.61485486  0.17141047  1
  H+  H119  1  0.54575896  0.12836208  0.67197760  1
  H+  H120  1  0.57425115  0.58255479  0.43156109  1
  H+  H121  1  0.64252727  0.62548957  0.32402968  1
  H+  H122  1  0.88233594  0.53056451  0.99846511  1
  H+  H123  1  0.15876790  0.90224277  0.35034838  1
  H+  H124  1  0.12392462  1.01534816  0.66177373  1
  H+  H125  1  0.20099696  0.35221236  1.00024067  1
  H+  H126  1  0.39006263  0.78221174  0.82946525  1
  H+  H127  1  0.38175236  0.22665040  0.02248761  1
  H+  H128  1  0.39214057  1.02173649  -0.00368525  1
  H+  H129  1  0.36503722  0.73216273  0.33220646  1
  H+  H130  1  0.74264791  0.59965419  0.84439505  1
  H+  H131  1  0.35767576  -0.10477218  0.34032029  1
  H+  H132  1  0.76759036  0.39102563  0.00563349  1
  H+  H133  1  0.66844616  0.58601392  0.23671713  1
  H+  H134  1  0.61863678  0.46111609  0.82892900  1
  H+  H135  1  0.36960465  0.16513389  0.73792593  1
  H+  H136  1  0.57320162  0.17064643  0.43944727  1
  H+  H137  1  0.23009500  0.11118374  0.17578997  1
  H+  H138  1  0.47250362  0.87267639  0.17514021  1
  H+  H139  1  0.64211539  0.27297010  0.65900862  1
  H+  H140  1  0.02175331  0.88655211  0.82625492  1
  H+  H141  1  0.16795614  0.07678516  0.26972410  1
  H+  H142  1  0.36214759  0.88866140  0.16738049  1
  H+  H143  1  0.62136622  0.34273139  0.83470399  1
  H+  H144  1  0.49210693  0.88712008  0.49890357  1
  H+  H145  1  0.88264839  0.29080176  0.66822633  1
  H+  H146  1  0.89028676  0.61446767  0.50946557  1
  H+  H147  1  0.13941606  0.51856091  0.49164974  1
  H+  H148  1  0.79631124  0.88402565  0.45215900  1
  H+  H149  1  0.08743420  0.48229521  1.02209588  1
  H+  H150  1  0.96590226  0.14716279  1.02606725  1
  H+  H151  1  0.51622567  0.14431210  0.35260770  1
  H+  H152  1  0.63231808  0.61010307  0.65959856  1
  H+  H153  1  0.31532264  0.41829470  0.75293448  1
  H+  H154  1  0.61503385  0.91109867  0.34313934  1
  H+  H155  1  0.18107831  0.68608517  0.60876657  1
  H+  H156  1  0.27196316  0.88745531  0.01044928  1
  H+  H157  1  0.03448277  0.89241517  0.00080852  1
  H+  H158  1  0.86010200  0.20289599  0.83031331  1
  H+  H159  1  0.09003719  0.11870104  0.67560172  1
  H+  H160  1  0.20941399  0.34067376  0.32513465  1
  H+  H161  1  0.61610085  0.47036410  0.49995808  1
  H+  H162  1  0.63340783  0.26996110  0.99949920  1
  H+  H163  1  0.35802070  0.87849278  0.68101787  1
  H+  H164  1  0.53108294  0.13077531  0.17065587  1
  H+  H165  1  0.39365277  0.11492048  0.18162439  1
  H+  H166  1  0.33877435  0.15832499  0.10859226  1
  H+  H167  1  0.88507390  0.09539854  0.85299931  1
  H+  H168  1  0.77896762  0.65388176  1.01236645  1
  H+  H169  1  0.52155987  0.38516586  0.50053198  1
  H+  H170  1  0.63269089  0.35902835  0.66053548  1
  H+  H171  1  0.62808230  0.01688018  0.84347003  1
  H+  H172  1  0.38676961  0.28958157  0.78972742  1
  H+  H173  1  0.11773594  0.24690558  0.32711365  1
  H+  H174  1  0.85444381  0.39071887  -0.00000256  1
  H+  H175  1  0.86028764  0.48599502  0.66080851  1
  H+  H176  1  0.60702711  0.23356233  0.35354654  1
  H+  H177  1  0.78016934  0.51900393  0.21398496  1
  H+  H178  1  1.01576499  0.87871774  0.66678509  1
  H+  H179  1  0.13001210  0.01225030  0.50603734  1
  H+  H180  1  0.38051107  0.36934865  0.81135545  1
  H+  H181  1  0.10533020  0.32798642  0.98849088  1
  H+  H182  1  0.12059455  0.25555860  0.17870052  1
  H+  H183  1  0.47415003  0.87825850  0.33261424  1
  H+  H184  1  0.75578520  0.13229911  1.00623603  1
  H+  H185  1  0.12920012  0.86165677  0.84594800  1
  H+  H186  1  0.33175797  0.24145278  0.68847970  1
  H+  H187  1  0.70062328  0.04457368  0.21825276  1
  H+  H188  1  0.26431243  0.62273569  0.87874064  1
  H+  H189  1  0.61346254  0.98652204  0.16109808  1
  H+  H190  1  0.37431313  0.37750945  0.15317603  1
  H+  H191  1  0.27121248  0.38075997  0.65377165  1
  H+  H192  1  0.36225902  0.39299045  0.66830717  1
  H+  H193  1  0.85092106  0.47117310  0.16517307  1
  H+  H194  1  0.87167044  0.12321061  1.00983531  1
  H+  H195  1  0.12463083  0.26511466  0.83417480  1
  H+  H196  1  0.61086996  0.47150234  0.67161548  1
  H+  H197  1  0.85526850  0.39608276  0.85393502  1
  H+  H198  1  0.06448179  0.31367206  0.62803114  1
  H+  H199  1  0.14250484  0.51952239  0.32437224  1
  H+  H200  1  -0.03390818  0.60737953  0.66403604  1
  H+  H201  1  0.06262469  0.14967159  0.77303423  1
  H+  H202  1  0.39671728  0.11267252  0.99924006  1
  H+  H203  1  0.13900213  0.10941641  0.17754506  1
  H+  H204  1  0.42767728  0.10614229  0.68936543  1
  H+  H205  1  0.08010491  0.58269451  0.86317853  1
  H+  H206  1  0.76560143  0.38866563  0.66101726  1
  H+  H207  1  0.63890265  0.14001785  0.66246116  1
  H+  H208  1  0.83780175  0.41897397  0.44420385  1
  H+  H209  1  0.73014798  0.62141178  0.17757650  1
  H+  H210  1  0.73160322  0.85781798  0.63625232  1
  H+  H211  1  0.67901409  0.71137741  0.85865295  1
  H+  H212  1  0.11292310  0.64136607  0.17308833  1
  H+  H213  1  0.39850953  0.87905181  0.49863091  1
  H+  H214  1  0.16605926  0.58570832  0.54656836  1
  H+  H215  1  0.62850368  0.39644095  0.01321369  1
  H+  H216  1  0.77013342  0.88618525  0.81926502  1
  H+  H217  1  0.66469178  0.32972539  0.27738719  1
  H+  H218  1  0.43301839  0.70177717  0.77702428  1
  H+  H219  1  0.86799972  0.64731557  0.82480055  1
  H+  H220  1  0.48567789  0.35637789  0.17580703  1
  H+  H221  1  0.37565551  0.53570891  1.04223934  1
  H+  H222  1  -0.03145762  0.35508683  0.82638464  1
  H+  H223  1  0.99152885  0.83555256  0.33735489  1
  H+  H224  1  0.60790762  -0.00461576  0.34368439  1
  H+  H225  1  0.16164553  0.11264917  0.98854408  1
  H+  H226  1  0.52124365  0.63956219  1.02961803  1
  H+  H227  1  0.41427103  0.51480645  0.82100952  1
  H+  H228  1  0.64774425  0.53476302  1.00576100  1
  H+  H229  1  0.10358666  0.12041741  0.33830248  1
  H+  H230  1  0.85167850  0.96008598  0.66493722  1
  H+  H231  1  0.88327099  0.76759266  0.64804899  1
  H+  H232  1  0.85801911  0.21135240  0.33985090  1
  H+  H233  1  0.77042991  0.38370848  0.34982987  1
  H+  H234  1  0.65754945  0.02516315  0.64813991  1
  H+  H235  1  0.36308868  -0.02129923  0.49757599  1
  H+  H236  1  0.10738478  0.50369465  0.67477128  1
  H+  H237  1  0.60924721  0.63984786  0.00970999  1
  H+  H238  1  0.52069034  0.38383744  0.81578618  1
  H+  H239  1  0.88841622  0.12830498  0.17934911  1
  H+  H240  1  0.64583061  0.60113876  0.50659006  1
  H+  H241  1  0.25719442  0.12354165  0.52580147  1
  H+  H242  1  0.60657423  0.47738111  0.34338731  1
  H+  H243  1  0.96920369  0.61707872  0.84552729  1
  H+  H244  1  0.00261394  0.43351021  0.05940192  1
  H+  H245  1  0.88333603  0.27440178  0.17712768  1
  H+  H246  1  0.00720346  0.10290943  0.34561586  1
  H+  H247  1  0.62702909  0.12464100  0.33118774  1
  H+  H248  1  0.12884063  -0.02891400  0.34186364  1
  H+  H249  1  0.76924352  0.63551001  0.67303765  1
  H+  H250  1  0.84303153  0.07514127  0.32897088  1
  H+  H251  1  0.76243964  0.13400781  0.33925773  1
  H+  H252  1  0.51258890  0.66122997  0.80418565  1
  H+  H253  1  0.74365828  0.91969283  0.31500125  1
  H+  H254  1  0.52204738  0.60438842  0.48406466  1
  H+  H255  1  0.35085589  0.64189545  0.03100962  1
  H+  H256  1  0.12899507  0.86247637  -0.00521890  1
  H+  H257  1  0.38385005  0.11006320  0.53031519  1
  H+  H258  1  0.66769845  0.57946300  0.60362216  1
  H+  H259  1  0.62526800  0.88499704  0.66466206  1
  H+  H260  1  0.11534700  0.88131248  0.49474041  1
  H+  H261  1  0.12144809  0.35081874  0.18349223  1
  H+  H262  1  -0.01791168  0.87077332  0.17554666  1
  H+  H263  1  0.21800925  0.85782692  0.84816381  1
  H+  H264  1  0.24558663  0.14970388  0.68994132  1
  H+  H265  1  0.10927957  0.64201020  1.01728520  1
  H+  H266  1  0.14225120  0.77881908  0.17592854  1
  H+  H267  1  0.26203523  0.65420613  0.16958267  1
  H+  H268  1  0.24107672  0.65447728  0.63616040  1
  H+  H269  1  0.86787179  0.72648007  0.48563204  1
  H+  H270  1  0.38336573  0.27708707  0.32933173  1
  H+  H271  1  0.84268105  0.22396557  1.00232539  1
  H+  H272  1  0.26323103  0.38933315  0.81653043  1
  H+  H273  1  0.32807676  0.16918659  0.40310553  1
  H+  H274  1  0.40446731  0.50860852  0.49500342  1
  H+  H275  1  0.87346022  0.95591408  0.41001631  1
  H+  H276  1  0.49696687  0.36939953  1.02115063  1
  H+  H277  1  0.35736220  0.88215193  1.00786374  1
  H+  H278  1  0.24106232  0.87392175  0.17032525  1
  H+  H279  1  0.89864773  0.86613652  0.48832323  1
  H+  H280  1  0.88688920  1.00368743  0.02658461  1
  H+  H281  1  0.37954226  0.78454355  0.17836232  1
  H+  H282  1  0.67631766  0.58574435  0.94391634  1
  H+  H283  1  0.29356905  0.13849907  0.00833983  1
  H+  H284  1  0.87461437  1.01436057  0.49759136  1
  H+  H285  1  0.40079839  0.07710669  0.90417927  1
  H+  H286  1  0.99064450  0.66512504  0.33970285  1
  H+  H287  1  0.60857482  0.23723586  0.50262937  1
  H+  H288  1  0.58650733  0.90209828  0.76065920  1
  H+  H289  1  0.33076687  0.92413951  0.43556952  1
  H+  H290  1  0.87342109  0.87857179  0.17354597  1
  H+  H291  1  0.83598952  0.65316496  0.43357890  1
  H+  H292  1  0.10104806  0.38134951  0.82093327  1
  H+  H293  1  0.42046469  0.58553597  0.21847144  1
  H+  H294  1  0.92276004  0.09120628  0.91686484  1
  H+  H295  1  0.18520631  0.08590669  0.92539623  1
  H+  H296  1  0.55111249  0.70499909  0.74067248  1
  H+  H297  1  0.03189276  0.65582946  0.17681921  1
  H+  H298  1  0.88935801  0.05538424  0.59690539  1
  H+  H299  1  0.34326604  0.96707715  0.83470653  1
  H+  H300  1  0.08297319  0.67914704  0.07543855  1
  H+  H301  1  0.35467647  0.69591465  0.70105312  1
  H+  H302  1  0.07966167  0.15715174  0.10988799  1
  H+  H303  1  0.91729409  0.34212332  0.60469796  1
  H+  H304  1  0.60910417  0.89538611  0.15623609  1
  H+  H305  1  0.12867063  0.56774348  0.95121926  1
  H+  H306  1  0.36210135  0.20377779  0.91478136  1
  H+  H307  1  0.41378633  0.33833181  0.60467798  1
  H+  H308  1  0.42575401  0.07822479  0.58042737  1
  H+  H309  1  0.72317920  0.05052922  0.49181327  1
  H+  H310  1  0.36347546  0.23660261  0.89303914  1
  H+  H311  1  0.15484487  0.82534701  0.92954733  1
  H+  H312  1  0.61128783  0.17066678  0.75428233  1
  H+  H313  1  0.32534327  0.90402178  0.74167458  1
  H+  H314  1  0.83440324  0.67203296  0.76364792  1
  H+  H315  1  0.83302068  0.42011032  0.10145817  1
  H+  H316  1  0.41764417  0.85010476  0.27143026  1
  H+  H317  1  0.06782036  0.68388236  0.38011929  1
  H+  H318  1  0.04609421  0.11126053  0.00205181  1
  H+  H319  1  0.33388452  0.64602147  0.79585006  1
  H+  H320  1  0.08074001  0.49446502  0.86331341  1
  H+  H321  1  0.83825013  0.67969665  0.10540467  1
  H+  H322  1  0.84638751  0.92199416  0.11331113  1
  H+  H323  1  0.31895084  0.41251049  0.38738415  1
  H+  H324  1  0.65379972  0.32150798  0.93698066  1
  H+  H325  1  0.07498434  0.15061441  0.43198369  1
  H+  H326  1  0.58779644  0.68467780  0.38338994  1
  H+  H327  1  0.42154962  0.32966198  0.23268461  1
  H+  H328  1  0.15620342  0.32598161  0.89151392  1
  H+  H329  1  0.33918547  0.67291025  0.39090368  1
  H+  H330  1  0.66926926  0.90458192  0.84360190  1
  H+  H331  1  0.73174666  0.52457701  0.88556477  1
  H+  H332  1  0.69966064  0.79734212  0.52222489  1
  H+  H333  1  0.01516552  0.12534526  0.83898228  1
  H+  H334  1  0.08462718  0.20365335  0.67517029  1
  H+  H335  1  0.36246673  0.55980460  0.92095974  1
  H+  H336  1  0.86124544  0.56918020  0.25339085  1
  H+  H337  1  0.11239880  0.97406087  0.82287043  1
  H+  H338  1  0.33222409  0.91776630  0.10591751  1
  H+  H339  1  0.60678028  0.42716229  0.07648917  1
  H+  H340  1  0.65619418  0.07673998  0.90264751  1
  H+  H341  1  0.38995258  0.36913610  0.50417912  1
  H+  H342  1  0.16024928  0.58586535  0.24159058  1
  H+  H343  1  0.91523793  0.58393949  0.59835965  1
  H+  H344  1  0.91440407  0.83912762  0.89348931  1
  H+  H345  1  0.22050205  0.85727482  0.50257618  1
  H+  H346  1  0.40665255  0.83015715  0.93304609  1
  H+  H347  1  0.85120018  0.64006458  0.16843009  1
  H+  H348  1  0.01111574  0.42956769  0.68109954  1
  H+  H349  1  0.60536658  0.95190699  0.43746107  1
  H+  H350  1  0.09356239  0.62720095  0.68489388  1
  H+  H351  1  0.07186184  0.90663273  0.72850232  1
  H+  H352  1  0.58581061  0.16264374  0.07307601  1
  H+  H353  1  0.77560561  0.38978937  0.50018761  1
  H+  H354  1  0.62402263  0.38611399  0.17036467  1
  H+  H355  1  0.65942961  0.32860915  0.56699685  1
  H+  H356  1  0.67622890  0.07182570  0.58421235  1
  H+  H357  1  0.06922050  0.65794191  0.77606611  1
  H+  H358  1  0.92869271  0.82583889  0.28612180  1
  H+  H359  1  0.12937204  -0.02209966  0.99831203  1
  H+  H360  1  0.31506417  0.68513035  0.10818750  1
  H+  H361  1  0.85751772  0.63406647  0.67038652  1
  H+  H362  1  0.83056966  0.17134962  0.73352151  1
  H+  H363  1  0.09153201  0.92105406  0.10097971  1
  H+  H364  1  0.39398470  0.60676380  0.91655716  1
  H+  H365  1  0.16139917  0.36706621  0.48241262  1
  H+  H366  1  0.81179184  0.88221129  0.74377824  1
  H+  H367  1  0.56832165  0.91863590  0.06791071  1
  H+  H368  1  0.57931182  0.41733506  0.40301079  1
  H+  H369  1  0.09753784  0.71754072  0.68690452  1
  H+  H370  1  0.58500697  0.41113177  0.73045696  1
  H+  H371  1  0.60349171  0.68157277  0.10677987  1
  H+  H372  1  0.72940382  0.35387527  0.17951091  1
  H+  H373  1  0.70112416  0.87822759  0.90248826  1
  H+  H374  1  0.14721961  0.31053978  0.24774995  1
  H+  H375  1  0.91266161  0.33265836  0.27282897  1
  H+  H376  1  0.40528350  0.42679954  0.43371961  1
  H+  H377  1  0.14902353  0.07379230  0.60229939  1
  H+  H378  1  0.91285968  0.59775048  0.90615492  1
  H+  H379  1  0.08562548  0.40976423  0.42575004  1
  H+  H380  1  0.63326482  0.36495935  0.33322823  1
  H+  H381  1  0.18641640  0.32045545  0.56844406  1
  H+  H382  1  0.62853609  0.35805322  0.50670013  1
  H+  H383  1  0.89846561  0.32561838  0.92252798  1
  O2-  O384  1  0.07931829  0.16065495  0.15469420  1
  O2-  O385  1  0.08204606  0.15789900  0.47703574  1
  O2-  O386  1  0.07332668  0.15586792  0.81785686  1
  O2-  O387  1  0.08321405  0.40872102  0.16110825  1
  O2-  O388  1  0.09547657  0.41131298  0.47111957  1
  O2-  O389  1  0.06696874  0.41042137  0.81339933  1
  O2-  O390  1  0.08754694  0.67861115  0.15674639  1
  O2-  O391  1  0.07861665  0.66564952  0.46755251  1
  O2-  O392  1  0.06902333  0.65950611  0.82198374  1
  O2-  O393  1  0.09048475  0.91832047  0.14605671  1
  O2-  O394  1  0.08688886  0.91507660  0.47970032  1
  O2-  O395  1  0.08274608  0.91169556  0.81261191  1
  O2-  O396  1  0.33532968  0.15861851  0.15394756  1
  O2-  O397  1  0.32196639  0.15797717  0.53495725  1
  O2-  O398  1  0.42095889  0.15907116  0.74626617  1
  O2-  O399  1  0.34666751  0.41109029  0.14083996  1
  O2-  O400  1  0.36159509  0.41564885  0.46430993  1
  O2-  O401  1  0.32165700  0.41984191  0.79833612  1
  O2-  O402  1  0.32092624  0.68979604  0.15298013  1
  O2-  O403  1  0.33503292  0.67667387  0.46395350  1
  O2-  O404  1  0.37546991  0.70024446  0.77675804  1
  O2-  O405  1  0.32829133  0.91695676  0.15126104  1
  O2-  O406  1  0.33687381  0.91998242  0.48046649  1
  O2-  O407  1  0.31684782  0.90630544  0.82005223  1
  O2-  O408  1  0.59067030  0.16026544  0.15357950  1
  O2-  O409  1  0.57420482  0.17221470  0.48677561  1
  O2-  O410  1  0.60600444  0.17157458  0.80096084  1
  O2-  O411  1  0.59486193  0.41631230  0.15300435  1
  O2-  O412  1  0.58112642  0.41099045  0.48281614  1
  O2-  O413  1  0.58355014  0.40465460  0.80844132  1
  O2-  O414  1  0.60410386  0.68289848  0.15215583  1
  O2-  O415  1  0.58382899  0.62720747  0.46084649  1
  O2-  O416  1  0.52796120  0.71450697  0.77965819  1
  O2-  O417  1  0.57783920  0.92466165  0.14282994  1
  O2-  O418  1  0.60984147  0.94918204  0.48332567  1
  O2-  O419  1  0.57567608  0.88219322  0.80414003  1
  O2-  O420  1  0.82691877  0.17491456  0.15127670  1
  O2-  O421  1  0.86374977  0.25216656  0.50995971  1
  O2-  O422  1  0.83052405  0.14263242  0.81610154  1
  O2-  O423  1  0.83406018  0.41466834  0.14658537  1
  O2-  O424  1  0.83653828  0.42413684  0.48911521  1
  O2-  O425  1  0.81622593  0.41923958  0.85451945  1
  O2-  O426  1  0.83534504  0.68139189  0.15082635  1
  O2-  O427  1  0.83641558  0.66279892  0.47808000  1
  O2-  O428  1  0.83515331  0.67517588  0.80941132  1
  O2-  O429  1  0.83782900  0.90912775  0.15785730  1
  O2-  O430  1  0.85783078  0.92888281  0.45183467  1
  O2-  O431  1  0.80166447  0.86457642  0.79082732  1
  O2-  O432  1  0.16856288  0.07740558  0.18955286  1
  O2-  O433  1  0.15635049  0.07241622  0.52421441  1
  O2-  O434  1  0.16781172  0.08527633  0.84305188  1
  O2-  O435  1  0.14815293  0.31535098  0.19840133  1
  O2-  O436  1  0.19041957  0.33393564  0.49358900  1
  O2-  O437  1  0.15415144  0.32712471  0.84663399  1
  O2-  O438  1  0.15401472  0.58966930  0.19430879  1
  O2-  O439  1  0.16566031  0.58088072  0.50186034  1
  O2-  O440  1  0.07618665  0.53643863  0.88998373  1
  O2-  O441  1  0.17524005  0.84313330  0.18483774  1
  O2-  O442  1  0.15938700  0.82797161  0.51399891  1
  O2-  O443  1  0.15747567  0.83052370  0.86499010  1
  O2-  O444  1  0.42483113  0.08617935  0.19866024  1
  O2-  O445  1  0.42132506  0.08389780  0.53533595  1
  O2-  O446  1  0.37540880  0.06810033  0.86196027  1
  O2-  O447  1  0.42387492  0.32411564  0.18762819  1
  O2-  O448  1  0.41925133  0.33930003  0.52874001  1
  O2-  O449  1  0.41496542  0.34011729  0.81576188  1
  O2-  O450  1  0.43309723  0.57844794  0.17539191  1
  O2-  O451  1  0.44110752  0.57094786  0.50894750  1
  O2-  O452  1  0.47285159  0.56224833  0.83169947  1
  O2-  O453  1  0.41360000  0.84688585  0.19278312  1
  O2-  O454  1  0.43293649  0.85326516  0.51529447  1
  O2-  O455  1  0.41497228  0.83724958  0.85255683  1
  O2-  O456  1  0.67435830  0.07218080  0.19548502  1
  O2-  O457  1  0.66526658  0.04016174  0.50149790  1
  O2-  O458  1  0.66009275  0.07698696  0.85639476  1
  O2-  O459  1  0.67030069  0.32661333  0.19676118  1
  O2-  O460  1  0.65635846  0.32435700  0.52144649  1
  O2-  O461  1  0.65173864  0.31245527  0.85113732  1
  O2-  O462  1  0.66932181  0.58444431  0.19095582  1
  O2-  O463  1  0.67707448  0.57495269  0.52675821  1
  O2-  O464  1  0.69922946  0.55078838  0.87018390  1
  O2-  O465  1  0.68063721  0.84859063  0.18598332  1
  O2-  O466  1  0.69504469  0.80069778  0.47827606  1
  O2-  O467  1  0.72130097  0.91039523  0.86400807  1
  O2-  O468  1  0.92239862  0.10135321  0.19253467  1
  O2-  O469  1  0.88942467  0.06710405  0.52182690  1
  O2-  O470  1  0.92306204  0.07773788  0.87361384  1
  O2-  O471  1  0.91931526  0.33571535  0.19189300  1
  O2-  O472  1  0.92826681  0.31885191  0.53106782  1
  O2-  O473  1  0.90390406  0.32176872  0.83634546  1
  O2-  O474  1  0.84257667  0.55256515  0.20964699  1
  O2-  O475  1  0.91945872  0.58455207  0.52718149  1
  O2-  O476  1  0.90844436  0.59259547  0.86091613  1
  O2-  O477  1  0.92212903  0.84230233  0.19128227  1
  O2-  O478  1  0.92037136  0.83161625  0.50933607  1
  O2-  O479  1  0.91447777  0.83725584  0.84833161  1
  O2-  O480  1  0.16482072  0.07699437  0.31492727  1
  O2-  O481  1  0.14932607  0.07656493  0.64795296  1
  O2-  O482  1  0.18765784  0.08036422  0.97037778  1
  O2-  O483  1  0.14799299  0.30803672  0.31043786  1
  O2-  O484  1  0.18517130  0.30136750  0.61201908  1
  O2-  O485  1  0.14688638  0.31032312  0.97753456  1
  O2-  O486  1  0.17130147  0.57852757  0.30767046  1
  O2-  O487  1  0.18050327  0.63448343  0.62344124  1
  O2-  O488  1  0.14522657  0.58022112  0.99610035  1
  O2-  O489  1  0.25172287  0.89776899  0.32681502  1
  O2-  O490  1  0.15250246  0.81008404  0.66266827  1
  O2-  O491  1  0.15504331  0.82522545  0.97872178  1
  O2-  O492  1  0.41737513  0.09521429  0.32199811  1
  O2-  O493  1  0.43781306  0.07063442  0.65776094  1
  O2-  O494  1  0.42421441  0.08136336  0.97980531  1
  O2-  O495  1  0.41219841  0.33615534  0.31194909  1
  O2-  O496  1  0.41013116  0.33585384  0.65053097  1
  O2-  O497  1  0.43299783  0.33209059  1.01984186  1
  O2-  O498  1  0.42149973  0.59261546  0.30043456  1
  O2-  O499  1  0.41686882  0.58128028  0.63252440  1
  O2-  O500  1  0.41400965  0.59659481  1.05363995  1
  O2-  O501  1  0.41407925  0.84796655  0.31684756  1
  O2-  O502  1  0.45305424  0.88894092  0.62961699  1
  O2-  O503  1  0.40213609  0.82904967  0.97825755  1
  O2-  O504  1  0.65479601  0.09274893  0.31535202  1
  O2-  O505  1  0.68059303  0.08242002  0.62871369  1
  O2-  O506  1  0.65538922  0.07864293  0.97711448  1
  O2-  O507  1  0.66220381  0.33154542  0.32267946  1
  O2-  O508  1  0.66691732  0.33300366  0.64354321  1
  O2-  O509  1  0.66200887  0.32920847  0.98153246  1
  O2-  O510  1  0.66106281  0.58332683  0.31294076  1
  O2-  O511  1  0.66342566  0.57900785  0.64919549  1
  O2-  O512  1  0.67245069  0.59418549  0.98813921  1
  O2-  O513  1  0.68298384  0.87504135  0.30649305  1
  O2-  O514  1  0.67256206  0.83362416  0.61765097  1
  O2-  O515  1  0.65089160  0.83324656  0.98220972  1
  O2-  O516  1  0.84710720  0.02566615  0.30935647  1
  O2-  O517  1  0.88797176  0.04852409  0.64259930  1
  O2-  O518  1  0.91558345  0.10299310  1.00456893  1
  O2-  O519  1  0.91403273  0.32992078  0.31795103  1
  O2-  O520  1  0.91192522  0.35073087  0.64921848  1
  O2-  O521  1  0.89687423  0.32730701  0.96732201  1
  O2-  O522  1  0.86646791  0.58323050  0.32979698  1
  O2-  O523  1  0.90750911  0.57859087  0.64484919  1
  O2-  O524  1  0.91289558  0.59243514  0.98572626  1
  O2-  O525  1  0.93011263  0.80483076  0.32675869  1
  O2-  O526  1  0.91328927  0.82856780  0.63384327  1
  O2-  O527  1  0.93266409  0.84494709  0.97722069  1
  O2-  O528  1  0.09748108  0.15290225  0.02402896  1
  O2-  O529  1  0.07023566  0.14831944  0.35178438  1
  O2-  O530  1  0.05755414  0.14598283  0.69306294  1
  O2-  O531  1  0.04442811  0.42304864  0.03842661  1
  O2-  O532  1  0.07921868  0.40937662  0.35139500  1
  O2-  O533  1  0.06110314  0.47428059  0.70419681  1
  O2-  O534  1  0.08263255  0.67838326  0.02995738  1
  O2-  O535  1  0.05272936  0.68843512  0.33779205  1
  O2-  O536  1  0.06215116  0.65462866  0.70114019  1
  O2-  O537  1  0.09549823  0.91847097  0.01616508  1
  O2-  O538  1  0.11121794  0.91384154  0.35959877  1
  O2-  O539  1  0.07558125  0.90961769  0.68349832  1
  O2-  O540  1  0.34939703  0.16247017  0.02967378  1
  O2-  O541  1  0.33099955  0.17128698  0.35884604  1
  O2-  O542  1  0.29491458  0.19138097  0.71506416  1
  O2-  O543  1  0.27594988  0.42486984  0.04548740  1
  O2-  O544  1  0.31392928  0.40964043  0.34214216  1
  O2-  O545  1  0.32545630  0.41952925  0.67630251  1
  O2-  O546  1  0.31255820  0.66697647  0.02706315  1
  O2-  O547  1  0.33999923  0.67123255  0.34464553  1
  O2-  O548  1  0.34637523  0.68857110  0.65586651  1
  O2-  O549  1  0.33128738  0.91581408  0.02564328  1
  O2-  O550  1  0.33179507  0.92975765  0.35757987  1
  O2-  O551  1  0.32663261  0.90653758  0.69617170  1
  O2-  O552  1  0.58622929  0.16614977  0.02759312  1
  O2-  O553  1  0.57588814  0.17322151  0.37028042  1
  O2-  O554  1  0.60789033  0.16673599  0.68291973  1
  O2-  O555  1  0.60574500  0.43215410  0.03102095  1
  O2-  O556  1  0.57693458  0.41655208  0.35755866  1
  O2-  O557  1  0.58171968  0.40993121  0.68496126  1
  O2-  O558  1  0.58527634  0.67482686  0.02708575  1
  O2-  O559  1  0.59414810  0.68994430  0.33881545  1
  O2-  O560  1  0.57784892  0.67175441  0.67416028  1
  O2-  O561  1  0.56347790  0.91660409  0.02180093  1
  O2-  O562  1  0.58207518  0.93589328  0.36193969  1
  O2-  O563  1  0.60175053  0.91923852  0.68328482  1
  O2-  O564  1  0.81618394  0.16646089  0.02204813  1
  O2-  O565  1  0.82213577  0.14989806  0.35007822  1
  O2-  O566  1  0.82653878  0.19890547  0.69582231  1
  O2-  O567  1  0.82881456  0.42246717  0.01964584  1
  O2-  O568  1  0.83176875  0.41434441  0.36255427  1
  O2-  O569  1  0.82839270  0.42141468  0.67441910  1
  O2-  O570  1  0.84037733  0.68508673  0.02627905  1
  O2-  O571  1  0.81372373  0.60515984  0.35629628  1
  O2-  O572  1  0.83104726  0.66790031  0.68583166  1
  O2-  O573  1  0.86635090  0.94141768  0.03651002  1
  O2-  O574  1  0.91089592  1.01732702  0.34598448  1
  O2-  O575  1  0.82098973  0.89527936  0.67901436  1
