# generated using pymatgen
data_H2O
_symmetry_space_group_name_H-M   'P 1'
_cell_length_a   18.00564544
_cell_length_b   18.00177499
_cell_length_c   22.01546390
_cell_angle_alpha   90.00815272
_cell_angle_beta   90.02616679
_cell_angle_gamma   120.01584909
_symmetry_Int_Tables_number   1
_chemical_formula_structural   H2O
_chemical_formula_sum   'H384 O192'
_cell_volume   6178.92649682
_cell_formula_units_Z   192
loop_
 _symmetry_equiv_pos_site_id
 _symmetry_equiv_pos_as_xyz
  1  'x, y, z'
loop_
 _atom_type_symbol
 _atom_type_oxidation_number
  H+  1.0
  O2-  -2.0
loop_
 _atom_site_type_symbol
 _atom_site_label
 _atom_site_symmetry_multiplicity
 _atom_site_fract_x
 _atom_site_fract_y
 _atom_site_fract_z
 _atom_site_occupancy
  H+  H0  1  0.62996864  0.76317791  0.45560586  1
  H+  H1  1  0.61124156  0.63366162  0.31872503  1
  H+  H2  1  0.11514686  0.90173827  0.16122504  1
  H+  H3  1  0.50878557  0.88179053  0.83198825  1
  H+  H4  1  0.98426614  0.35160820  0.51446351  1
  H+  H5  1  0.35007557  0.64047490  0.83109311  1
  H+  H6  1  0.36639165  0.14730502  0.83198763  1
  H+  H7  1  0.72076876  0.59213107  0.32721549  1
  H+  H8  1  0.36122678  0.39286351  0.14997716  1
  H+  H9  1  0.87257579  0.23280932  0.83325855  1
  H+  H10  1  0.53386291  0.12399852  0.16365081  1
  H+  H11  1  0.92464659  0.84113126  0.34463744  1
  H+  H12  1  0.87334334  0.46995741  0.49499877  1
  H+  H13  1  0.32535146  0.91102641  0.09965391  1
  H+  H14  1  0.23570676  0.88681919  0.98634479  1
  H+  H15  1  0.40812618  0.09432934  0.16098109  1
  H+  H16  1  0.20155318  0.76591071  0.87374716  1
  H+  H17  1  0.60308279  0.63942106  0.84592826  1
  H+  H18  1  0.63626785  0.94064360  0.68490024  1
  H+  H19  1  0.11346965  0.71958148  0.48845719  1
  H+  H20  1  0.65434695  0.14586253  0.65850646  1
  H+  H21  1  -0.00799138  0.89743196  0.02744689  1
  H+  H22  1  0.84310412  0.70251953  0.33906873  1
  H+  H23  1  0.62125689  0.91298350  0.53139672  1
  H+  H24  1  0.83471827  0.87995038  0.32929753  1
  H+  H25  1  0.22459947  0.85404610  0.49721071  1
  H+  H26  1  0.38679881  0.87057109  0.84596738  1
  H+  H27  1  0.76259111  0.92435702  0.68981107  1
  H+  H28  1  0.85284895  0.61640467  1.00964863  1
  H+  H29  1  0.89905829  0.48955621  0.67244971  1
  H+  H30  1  -0.03253705  0.10306518  -0.00059753  1
  H+  H31  1  0.63600288  0.59875757  0.49936486  1
  H+  H32  1  0.37446904  0.12151708  0.33346229  1
  H+  H33  1  0.10031572  0.24869124  0.48647310  1
  H+  H34  1  0.83532229  0.65793964  0.09980384  1
  H+  H35  1  0.87765031  0.01229649  0.99590824  1
  H+  H36  1  0.22705513  0.11711290  0.83783653  1
  H+  H37  1  1.02601047  0.91429641  0.55543749  1
  H+  H38  1  0.46007994  0.66463495  0.63943852  1
  H+  H39  1  0.45544725  0.34528032  0.99698828  1
  H+  H40  1  0.13974992  0.64640874  -0.01278557  1
  H+  H41  1  0.38547610  0.52977647  0.34294563  1
  H+  H42  1  0.06678751  0.16721408  0.07518883  1
  H+  H43  1  0.98055261  0.60977076  0.50527564  1
  H+  H44  1  0.64982240  1.03906265  0.51096417  1
  H+  H45  1  0.11999260  0.38326054  0.02287755  1
  H+  H46  1  0.86931265  0.87096817  0.67952037  1
  H+  H47  1  0.38146495  0.86090718  0.67145768  1
  H+  H48  1  0.67774592  0.35788363  0.99285560  1
  H+  H49  1  0.26848101  0.11130601  0.00413689  1
  H+  H50  1  0.07180190  0.22983878  0.16191592  1
  H+  H51  1  0.18345756  -0.02487925  0.96512485  1
  H+  H52  1  0.20737386  0.10073143  0.66118884  1
  H+  H53  1  0.53330336  0.63140678  0.46911072  1
  H+  H54  1  0.09300979  0.63645651  0.80842993  1
  H+  H55  1  0.62036888  -0.02653149  0.16284257  1
  H+  H56  1  0.30868523  0.41625561  0.49835839  1
  H+  H57  1  0.87057555  0.72754059  0.15552431  1
  H+  H58  1  0.60077279  -0.03378439  1.00968046  1
  H+  H59  1  0.29880395  0.64842955  0.33487730  1
  H+  H60  1  0.85975727  0.61928525  0.49625550  1
  H+  H61  1  0.85417447  1.01076653  0.51247906  1
  H+  H62  1  0.61919001  0.84672071  0.32321841  1
  H+  H63  1  0.39801219  0.86277177  0.32733031  1
  H+  H64  1  0.64669885  0.35968569  0.50205896  1
  H+  H65  1  0.61282273  0.22120065  0.16305584  1
  H+  H66  1  0.36269547  0.12527424  0.49539414  1
  H+  H67  1  0.71716149  0.10058879  0.99588521  1
  H+  H68  1  0.60404989  0.87965011  1.00724961  1
  H+  H69  1  0.32106372  0.93792246  0.67522788  1
  H+  H70  1  0.44974280  0.61708106  0.99895595  1
  H+  H71  1  0.85291675  0.71633548  0.83129937  1
  H+  H72  1  0.13805927  0.11630972  0.83980106  1
  H+  H73  1  0.12064804  0.50473943  0.50935753  1
  H+  H74  1  0.61430325  0.84275163  0.45943312  1
  H+  H75  1  0.36675408  0.97541910  1.00817882  1
  H+  H76  1  0.88207454  0.51643691  0.98883110  1
  H+  H77  1  0.38932262  0.37144537  0.84261159  1
  H+  H78  1  0.78148537  1.01450976  0.67262643  1
  H+  H79  1  0.12451709  0.53643772  0.83631422  1
  H+  H80  1  0.42464875  0.06588527  0.66010880  1
  H+  H81  1  0.58656279  0.36855121  0.33937332  1
  H+  H82  1  0.56445855  0.85722633  0.79051836  1
  H+  H83  1  0.63034250  0.44893718  -0.02946342  1
  H+  H84  1  0.09868360  0.13044466  0.02166300  1
  H+  H85  1  0.00216265  0.13745238  0.67422601  1
  H+  H86  1  0.16592040  0.03896808  0.31694598  1
  H+  H87  1  0.66340134  0.32412191  0.89722578  1
  H+  H88  1  0.13673648  1.03615831  0.17670836  1
  H+  H89  1  0.61214473  0.39930285  0.87777633  1
  H+  H90  1  0.13450657  0.76043124  0.82773381  1
  H+  H91  1  0.15240007  0.57590032  0.56232812  1
  H+  H92  1  0.89070503  0.11171821  0.84174826  1
  H+  H93  1  0.10175660  0.15959308  0.16665603  1
  H+  H94  1  0.60590239  0.12429562  1.01036304  1
  H+  H95  1  0.52522723  0.40195835  0.88399850  1
  H+  H96  1  0.33824049  0.12322953  0.67407827  1
  H+  H97  1  0.48533190  0.84001948  0.17437389  1
  H+  H98  1  0.85919156  0.21355090  0.16678411  1
  H+  H99  1  0.33479835  0.62500445  0.00138948  1
  H+  H100  1  0.61918875  0.14594805  0.34379769  1
  H+  H101  1  0.98842184  0.88631325  0.19152855  1
  H+  H102  1  0.85768539  0.91161248  0.74219778  1
  H+  H103  1  0.10001223  0.74890740  0.63721199  1
  H+  H104  1  0.39427480  0.58063683  0.90352564  1
  H+  H105  1  0.14194039  0.52189014  0.09110496  1
  H+  H106  1  0.85226090  0.61762300  0.33810801  1
  H+  H107  1  0.10618400  0.62373957  0.14139445  1
  H+  H108  1  0.10284853  0.96619246  0.65881798  1
  H+  H109  1  0.64619968  0.10605823  0.17129557  1
  H+  H110  1  0.86551266  0.70969589  0.67702658  1
  H+  H111  1  0.36572509  0.59690527  0.18636596  1
  H+  H112  1  0.40479327  0.32075172  0.60062595  1
  H+  H113  1  0.39522343  0.73509564  0.53042794  1
  H+  H114  1  0.12645591  0.75965403  1.00633784  1
  H+  H115  1  0.50603677  0.59463009  0.69054419  1
  H+  H116  1  0.36211713  0.25318470  0.15441454  1
  H+  H117  1  0.77514777  0.15575774  0.67901851  1
  H+  H118  1  0.46226491  0.96714829  0.55454234  1
  H+  H119  1  0.56014771  0.19139213  0.67029116  1
  H+  H120  1  0.90279472  0.01507009  0.66513176  1
  H+  H121  1  0.36646453  0.30438095  0.30704021  1
  H+  H122  1  0.38428523  -0.00295154  0.16954599  1
  H+  H123  1  0.85704114  0.46379139  0.17176785  1
  H+  H124  1  0.83654591  0.97070129  0.16422319  1
  H+  H125  1  0.41626588  0.53659862  0.52630256  1
  H+  H126  1  0.87351850  0.25399982  0.67252133  1
  H+  H127  1  0.11593256  0.84443317  0.64077487  1
  H+  H128  1  0.34512179  0.71967707  1.00496174  1
  H+  H129  1  0.40481404  0.56674078  0.23693717  1
  H+  H130  1  0.47571799  0.35162521  0.50949825  1
  H+  H131  1  0.61133840  0.45726759  0.64995779  1
  H+  H132  1  0.61384048  0.72822767  0.32532313  1
  H+  H133  1  0.60849140  0.46137012  0.49561962  1
  H+  H134  1  0.35611636  0.36334740  0.48703314  1
  H+  H135  1  0.26438250  0.88554741  0.15797444  1
  H+  H136  1  0.64165037  0.25781876  -0.00957557  1
  H+  H137  1  0.63288790  0.36050237  0.16829262  1
  H+  H138  1  0.36338945  0.98638975  0.83710525  1
  H+  H139  1  0.02486152  0.13572162  0.82666372  1
  H+  H140  1  0.46117510  0.61597184  0.84905341  1
  H+  H141  1  0.87010679  0.60189803  0.83770483  1
  H+  H142  1  0.00981248  0.34718058  0.19346701  1
  H+  H143  1  0.90708486  0.28190566  1.00001833  1
  H+  H144  1  0.17065596  0.58952183  0.28320776  1
  H+  H145  1  0.61326678  0.29218368  0.83429161  1
  H+  H146  1  0.78171198  0.14269985  0.83004838  1
  H+  H147  1  0.36342573  -0.03500996  0.33164863  1
  H+  H148  1  0.37499687  0.26372470  0.66141381  1
  H+  H149  1  0.39458883  0.57723257  0.60833261  1
  H+  H150  1  0.46812720  0.85341588  0.00121675  1
  H+  H151  1  0.20245457  0.62205634  0.65977078  1
  H+  H152  1  0.65717167  0.37182119  0.64469689  1
  H+  H153  1  0.38663370  0.74049820  0.34582796  1
  H+  H154  1  0.78333789  0.61691957  0.67422895  1
  H+  H155  1  0.97417475  0.11033347  0.32198664  1
  H+  H156  1  0.83674303  0.40304888  0.11561932  1
  H+  H157  1  0.88716533  0.85331178  0.85058326  1
  H+  H158  1  0.36757157  0.41517524  0.33553335  1
  H+  H159  1  0.14006904  0.89371927  0.47740543  1
  H+  H160  1  0.63903432  0.77340560  0.84373936  1
  H+  H161  1  0.36768112  0.52110105  0.99663246  1
  H+  H162  1  0.53543785  0.91358245  0.51462634  1
  H+  H163  1  0.65586837  0.76526760  0.14421568  1
  H+  H164  1  0.35201471  0.38778851  1.00869934  1
  H+  H165  1  0.39728372  0.21638260  0.34862706  1
  H+  H166  1  0.62468855  0.55724265  1.00372729  1
  H+  H167  1  0.15121035  0.86291751  0.31996106  1
  H+  H168  1  0.68240297  0.10649996  0.56545360  1
  H+  H169  1  0.09612870  0.62682336  0.34438896  1
  H+  H170  1  0.22252682  0.36180748  0.99858046  1
  H+  H171  1  0.83328342  0.87383323  0.48845646  1
  H+  H172  1  0.63600060  0.99552211  0.34883078  1
  H+  H173  1  0.89822331  0.36411409  0.84366942  1
  H+  H174  1  0.35741920  0.71227470  0.55125087  1
  H+  H175  1  0.76058756  0.88124422  0.00565602  1
  H+  H176  1  0.37956895  0.77700217  0.84300612  1
  H+  H177  1  0.35700832  0.47893563  0.82685969  1
  H+  H178  1  0.02134338  0.62794639  0.15483621  1
  H+  H179  1  0.61629383  0.26880348  0.32706089  1
  H+  H180  1  -0.13850038  0.84248772  0.00402333  1
  H+  H181  1  0.61139781  0.13877305  0.49394056  1
  H+  H182  1  0.10790193  0.48545261  0.66845634  1
  H+  H183  1  0.21012529  0.35556286  0.65729669  1
  H+  H184  1  0.72079268  0.59255607  0.50550111  1
  H+  H185  1  0.88792851  0.60653199  0.17156251  1
  H+  H186  1  0.36723029  0.25782203  -0.00338642  1
  H+  H187  1  0.64483897  0.02010796  0.84178233  1
  H+  H188  1  0.25718759  0.12921796  0.31454364  1
  H+  H189  1  0.86153313  0.12680200  -0.00762351  1
  H+  H190  1  0.47509822  0.86871464  0.66658369  1
  H+  H191  1  0.52244679  0.36679506  0.65248675  1
  H+  H192  1  0.27632349  0.87326074  0.33068682  1
  H+  H193  1  0.22217354  0.36548835  0.31778511  1
  H+  H194  1  0.11591640  0.22509981  0.82787790  1
  H+  H195  1  0.38821376  0.11083458  1.00156038  1
  H+  H196  1  0.10888212  0.62631868  0.48946175  1
  H+  H197  1  0.63247246  0.53408918  0.87243313  1
  H+  H198  1  0.47859685  0.11120076  0.00124284  1
  H+  H199  1  0.87168893  0.10575733  0.51038286  1
  H+  H200  1  0.91821521  0.08001318  0.90151122  1
  H+  H201  1  0.22009918  0.13370135  0.17050295  1
  H+  H202  1  0.58840896  0.76412826  0.65309291  1
  H+  H203  1  0.73006295  0.09924086  0.17150592  1
  H+  H204  1  0.61779475  0.77292302  0.99763117  1
  H+  H205  1  0.71119983  0.51201546  0.01239912  1
  H+  H206  1  0.34090365  0.55836570  0.51379329  1
  H+  H207  1  0.46672809  0.37096287  0.32275147  1
  H+  H208  1  0.10273672  0.98387838  0.81776292  1
  H+  H209  1  0.96630921  0.06615814  0.17492709  1
  H+  H210  1  0.11727265  0.17058624  0.49328689  1
  H+  H211  1  0.58799010  0.91136515  0.10420746  1
  H+  H212  1  0.75538363  0.88310343  0.46535684  1
  H+  H213  1  0.89542877  0.35619854  0.51112033  1
  H+  H214  1  0.99800075  0.36752719  1.00724802  1
  H+  H215  1  0.71797254  0.35547994  0.17827401  1
  H+  H216  1  0.78034301  0.14873399  0.48478038  1
  H+  H217  1  0.13260789  0.27261492  0.99976432  1
  H+  H218  1  0.86891762  0.34673475  0.19303619  1
  H+  H219  1  0.87097046  0.23089281  0.48096392  1
  H+  H220  1  0.47531309  0.11841070  0.84850594  1
  H+  H221  1  0.15380715  0.82213780  0.55279124  1
  H+  H222  1  0.33925921  0.63818163  0.67860257  1
  H+  H223  1  0.47663754  0.09983805  0.32266501  1
  H+  H224  1  0.12727536  0.49663565  0.15821511  1
  H+  H225  1  0.62820813  0.76199474  0.64455718  1
  H+  H226  1  0.23426360  0.13004150  0.50608509  1
  H+  H227  1  0.24614937  0.58731412  0.48568472  1
  H+  H228  1  0.63567893  0.66903127  0.14086960  1
  H+  H229  1  0.35100521  0.71122295  0.18168085  1
  H+  H230  1  0.49235431  0.87477268  0.33171595  1
  H+  H231  1  0.66960186  0.89099003  0.16365776  1
  H+  H232  1  0.10664139  0.60953958  0.65203139  1
  H+  H233  1  0.27954506  0.89066266  0.83231824  1
  H+  H234  1  0.83438111  0.69429547  1.01408026  1
  H+  H235  1  0.34803146  0.16220020  0.16960065  1
  H+  H236  1  0.17207488  0.04638251  0.92815054  1
  H+  H237  1  0.70939612  0.85489862  0.32151062  1
  H+  H238  1  0.64235655  0.05143457  0.66117440  1
  H+  H239  1  0.96413335  0.44071239  0.36469874  1
  H+  H240  1  0.34936933  0.73029725  0.67634651  1
  H+  H241  1  0.14619279  1.04836859  0.49745371  1
  H+  H242  1  0.22925148  0.63029407  0.98764134  1
  H+  H243  1  0.87180623  0.47116416  0.82745116  1
  H+  H244  1  0.73614442  0.35871021  0.49636027  1
  H+  H245  1  0.58390140  0.16083623  0.06989981  1
  H+  H246  1  0.96291709  0.61232346  0.83172747  1
  H+  H247  1  0.87943884  1.02786471  0.32308958  1
  H+  H248  1  0.35941524  0.88223152  1.00753014  1
  H+  H249  1  0.63640945  0.58586351  0.66487696  1
  H+  H250  1  0.08676032  0.97604591  0.01637258  1
  H+  H251  1  0.35262219  0.37262205  0.67121369  1
  H+  H252  1  0.97209585  0.61614318  0.32572570  1
  H+  H253  1  0.97088606  0.84818388  0.84863424  1
  H+  H254  1  0.09553940  0.69093538  0.06097549  1
  H+  H255  1  0.62154001  0.48552020  0.14860787  1
  H+  H256  1  0.22698754  0.35199235  0.84382840  1
  H+  H257  1  0.80293781  0.40810393  0.66627674  1
  H+  H258  1  0.10642593  0.21407084  0.33476807  1
  H+  H259  1  0.43031662  0.87562506  0.58326322  1
  H+  H260  1  0.13684327  0.76739305  0.32452710  1
  H+  H261  1  0.84593220  0.73787422  0.50669144  1
  H+  H262  1  0.92272464  0.83179318  0.51017552  1
  H+  H263  1  0.09294932  0.43497172  0.34620972  1
  H+  H264  1  0.03047200  0.40140629  0.82852717  1
  H+  H265  1  0.83822950  0.24210835  0.28444266  1
  H+  H266  1  0.87837433  0.38548419  0.33008938  1
  H+  H267  1  0.83135276  0.17762380  -0.04890005  1
  H+  H268  1  0.58187278  0.65023235  0.00856201  1
  H+  H269  1  0.65522331  0.26788432  0.66990485  1
  H+  H270  1  0.65479901  0.86939567  0.84835194  1
  H+  H271  1  0.06225022  0.91494803  0.32627204  1
  H+  H272  1  0.09609618  0.24090607  0.67380497  1
  H+  H273  1  0.89301124  0.36686303  0.65756694  1
  H+  H274  1  0.86152444  0.41671755  0.43435849  1
  H+  H275  1  0.06965182  0.42176929  0.41661772  1
  H+  H276  1  0.73822868  0.62352603  0.16456064  1
  H+  H277  1  0.35184966  0.46015978  0.66986328  1
  H+  H278  1  0.89850630  0.39586836  1.02177203  1
  H+  H279  1  0.48528827  0.62119663  0.32981921  1
  H+  H280  1  1.02492077  0.39230582  0.67191840  1
  H+  H281  1  0.11136352  0.90238080  0.81659560  1
  H+  H282  1  0.38289680  0.01502339  0.49714015  1
  H+  H283  1  0.15699282  0.33034092  0.26178398  1
  H+  H284  1  0.61109358  0.22619677  0.49184230  1
  H+  H285  1  0.01439228  0.94806136  0.54769720  1
  H+  H286  1  0.48689990  0.37699016  0.15737499  1
  H+  H287  1  0.12898345  0.77241991  0.16565254  1
  H+  H288  1  0.90441729  0.07211285  0.60758743  1
  H+  H289  1  0.34917394  0.47306052  0.15846614  1
  H+  H290  1  0.15925651  0.08063692  0.59790564  1
  H+  H291  1  0.06511630  0.91484884  0.47239958  1
  H+  H292  1  0.90126427  0.52007303  0.32625347  1
  H+  H293  1  0.59347813  0.16900999  0.76263535  1
  H+  H294  1  0.15992987  0.82663013  0.22640967  1
  H+  H295  1  0.66674091  0.53354292  0.27207110  1
  H+  H296  1  0.56755470  0.65260838  0.78455830  1
  H+  H297  1  0.08457559  0.43767769  0.76749416  1
  H+  H298  1  0.83714714  0.17316995  0.10190243  1
  H+  H299  1  0.93260779  0.58524292  0.56855927  1
  H+  H300  1  0.33095960  0.41594427  0.76867828  1
  H+  H301  1  0.66624702  0.61083594  0.21264740  1
  H+  H302  1  0.92389618  0.91860517  0.20332169  1
  H+  H303  1  0.07113576  0.17583620  0.73819412  1
  H+  H304  1  0.38782122  0.26252173  0.50661326  1
  H+  H305  1  0.32421467  0.16346587  0.73514111  1
  H+  H306  1  0.69226598  0.84417309  0.56175782  1
  H+  H307  1  0.78678329  0.88454775  0.83283410  1
  H+  H308  1  0.05518911  0.65983032  0.74861741  1
  H+  H309  1  0.21396962  0.62596006  0.83726653  1
  H+  H310  1  0.43218200  0.82235663  0.23467442  1
  H+  H311  1  0.41901909  0.09097538  0.90960308  1
  H+  H312  1  0.56543836  0.68874696  0.06814384  1
  H+  H313  1  0.07652459  0.66368961  0.40300941  1
  H+  H314  1  0.66773483  0.57431520  0.59891686  1
  H+  H315  1  0.16602736  0.32172956  0.90225885  1
  H+  H316  1  0.57387984  0.16168024  0.39995506  1
  H+  H317  1  0.36589754  0.89444014  0.48912173  1
  H+  H318  1  0.25510847  0.61145731  0.24719898  1
  H+  H319  1  0.15739682  0.60322927  0.92381666  1
  H+  H320  1  0.90116908  0.57341847  0.92866367  1
  H+  H321  1  0.93218281  0.33819316  0.90417714  1
  H+  H322  1  0.91550395  0.32244900  0.59855931  1
  H+  H323  1  0.96933878  0.84458343  0.65351639  1
  H+  H324  1  0.82280236  0.65671324  0.77111547  1
  H+  H325  1  0.69770324  0.34297373  0.59217686  1
  H+  H326  1  0.90399350  0.83036283  0.27212356  1
  H+  H327  1  0.59126232  0.65218421  0.41085810  1
  H+  H328  1  0.89136666  0.80394087  0.60415488  1
  H+  H329  1  0.18299413  0.10007747  0.24984774  1
  H+  H330  1  0.12012589  0.93760510  0.38674771  1
  H+  H331  1  0.07631060  0.38173690  0.08617836  1
  H+  H332  1  0.12503443  0.36024425  0.55479491  1
  H+  H333  1  0.06878277  0.16907393  0.39789448  1
  H+  H334  1  0.91701594  0.57712236  0.23092912  1
  H+  H335  1  0.12992658  0.37080886  0.66253492  1
  H+  H336  1  0.32175549  0.62902477  0.43574578  1
  H+  H337  1  0.26289279  0.62632000  0.15482394  1
  H+  H338  1  0.33248614  0.90862403  0.42389937  1
  H+  H339  1  0.70740349  0.12825075  0.40200829  1
  H+  H340  1  0.92270732  0.62319784  0.66991741  1
  H+  H341  1  0.64333056  0.32789962  0.26807411  1
  H+  H342  1  0.31882506  0.16049084  0.06579906  1
  H+  H343  1  0.69587094  0.88466897  0.57476558  1
  H+  H344  1  0.07261983  0.90759666  0.71809476  1
  H+  H345  1  0.63967113  0.10461450  0.83833261  1
  H+  H346  1  0.92187119  0.04398476  0.24067031  1
  H+  H347  1  0.17454478  0.85157174  0.92798277  1
  H+  H348  1  0.82428597  0.64085568  0.43469410  1
  H+  H349  1  0.90091466  0.81475937  0.94976200  1
  H+  H350  1  0.33672265  0.15389553  0.43432153  1
  H+  H351  1  0.47363407  0.10499818  0.50620038  1
  H+  H352  1  0.32150168  0.67310235  0.77167396  1
  H+  H353  1  0.57759099  0.43995632  0.76281414  1
  H+  H354  1  0.57276741  0.40013156  0.43710695  1
  H+  H355  1  0.62126507  0.47864205  0.76698183  1
  H+  H356  1  0.65341316  0.61261900  0.94359017  1
  H+  H357  1  0.71752712  0.61892742  0.84776428  1
  H+  H358  1  0.93971206  0.48206317  0.05784249  1
  H+  H359  1  0.85885736  0.41713199  0.76795210  1
  H+  H360  1  0.59853245  0.93326205  0.40384409  1
  H+  H361  1  0.59226460  0.45975434  0.34639196  1
  H+  H362  1  0.32406440  0.41963689  0.06883601  1
  H+  H363  1  0.43014257  0.35796049  0.21865869  1
  H+  H364  1  0.39813973  0.32862506  0.90384626  1
  H+  H365  1  0.39451710  0.63455305  0.34029618  1
  H+  H366  1  0.07137671  0.93742270  0.11167187  1
  H+  H367  1  0.41185450  0.82920376  0.94047365  1
  H+  H368  1  0.57563950  0.94691098  0.73301837  1
  H+  H369  1  0.33232131  0.91148365  0.74210286  1
  H+  H370  1  0.66405216  0.82926210  0.93770447  1
  H+  H371  1  0.82170677  0.16517906  0.38050017  1
  H+  H372  1  0.36636029  0.23598338  0.82859670  1
  H+  H373  1  0.65916452  0.07355476  0.93737906  1
  H+  H374  1  0.87448753  0.97447802  0.83410828  1
  H+  H375  1  0.81212995  0.91659921  0.06621714  1
  H+  H376  1  0.82053294  0.91729247  0.39053608  1
  H+  H377  1  0.83836112  0.18514903  0.74105607  1
  H+  H378  1  0.60594337  0.43045305  0.08934583  1
  H+  H379  1  0.33336140  0.42261674  0.40187433  1
  H+  H380  1  0.41899214  0.06872637  0.26137628  1
  H+  H381  1  0.59628090  0.67502338  0.69057118  1
  H+  H382  1  0.38497118  0.05908063  0.59550220  1
  H+  H383  1  0.52922553  0.07480633  0.77974371  1
  O2-  O384  1  0.05955544  0.17075824  0.14670250  1
  O2-  O385  1  0.07748067  0.18775354  0.47646640  1
  O2-  O386  1  0.08288859  0.16546243  0.80760437  1
  O2-  O387  1  0.06558030  0.37429236  0.17168470  1
  O2-  O388  1  0.07470929  0.40181302  0.49331795  1
  O2-  O389  1  0.08718289  0.44487487  0.81221063  1
  O2-  O390  1  0.08111630  0.66170982  0.13881218  1
  O2-  O391  1  0.07988869  0.65852055  0.47411578  1
  O2-  O392  1  0.06357392  0.66779571  0.79436163  1
  O2-  O393  1  0.08883541  0.93862546  0.15614165  1
  O2-  O394  1  0.12344408  0.93561343  0.45804858  1
  O2-  O395  1  0.07289331  0.92266351  0.80347778  1
  O2-  O396  1  0.32303161  0.18912742  0.14502823  1
  O2-  O397  1  0.33644911  0.15867658  0.47901213  1
  O2-  O398  1  0.33558251  0.17499130  0.81401627  1
  O2-  O399  1  0.32398694  0.41563929  0.13747484  1
  O2-  O400  1  0.31878956  0.38299625  0.46761649  1
  O2-  O401  1  0.33482238  0.41836293  0.81373736  1
  O2-  O402  1  0.30824921  0.64751959  0.18597483  1
  O2-  O403  1  0.29810699  0.58764387  0.46939720  1
  O2-  O404  1  0.32382046  0.67540172  0.81711865  1
  O2-  O405  1  0.32531232  0.91368243  0.14482851  1
  O2-  O406  1  0.32903687  0.91373268  0.46933837  1
  O2-  O407  1  0.34066456  0.92733003  0.82005846  1
  O2-  O408  1  0.59121364  0.16258245  0.14571619  1
  O2-  O409  1  0.57657184  0.16426521  0.47892977  1
  O2-  O410  1  0.56914099  0.12980628  0.79844815  1
  O2-  O411  1  0.59184141  0.42525237  0.13324324  1
  O2-  O412  1  0.58012847  0.40009615  0.48205990  1
  O2-  O413  1  0.58629084  0.43257710  0.89754826  1
  O2-  O414  1  0.61040372  0.70581464  0.13521501  1
  O2-  O415  1  0.59256072  0.65239207  0.45715284  1
  O2-  O416  1  0.57220384  0.66854980  0.82805278  1
  O2-  O417  1  0.59537815  0.91129579  0.14895739  1
  O2-  O418  1  0.59363939  0.92746645  0.49871014  1
  O2-  O419  1  0.56830007  0.90631719  0.81231514  1
  O2-  O420  1  0.83583356  0.15875308  0.14457110  1
  O2-  O421  1  0.83410995  0.17415308  0.46073305  1
  O2-  O422  1  0.84130134  0.17325018  0.81391323  1
  O2-  O423  1  0.82572975  0.40156688  0.16027536  1
  O2-  O424  1  0.84534477  0.41063008  0.47819390  1
  O2-  O425  1  0.85576976  0.41277143  0.81257278  1
  O2-  O426  1  0.83975631  0.66597143  0.14665311  1
  O2-  O427  1  0.82284365  0.64205975  0.48002717  1
  O2-  O428  1  0.81643478  0.65621076  0.81625233  1
  O2-  O429  1  0.78634213  0.94140547  0.13413154  1
  O2-  O430  1  0.81973476  0.91473699  0.46859152  1
  O2-  O431  1  0.84804787  0.91342590  0.82036484  1
  O2-  O432  1  0.16471562  0.09820782  0.19270538  1
  O2-  O433  1  0.17292875  0.10421004  0.51792371  1
  O2-  O434  1  0.16648120  0.08308209  0.85236725  1
  O2-  O435  1  0.10588688  0.32474114  0.18956706  1
  O2-  O436  1  0.12710626  0.36208061  0.51009108  1
  O2-  O437  1  0.16743358  0.31387070  0.85774718  1
  O2-  O438  1  0.14973367  0.54783212  0.13171583  1
  O2-  O439  1  0.15121888  0.56915143  0.51722687  1
  O2-  O440  1  0.15316831  0.59964800  0.85095240  1
  O2-  O441  1  0.15577518  0.83196928  0.18165088  1
  O2-  O442  1  0.16207226  0.82685184  0.50605562  1
  O2-  O443  1  0.18195321  0.80253377  0.85544941  1
  O2-  O444  1  0.42517862  0.06075937  0.18583673  1
  O2-  O445  1  0.41268231  0.07036706  0.52064408  1
  O2-  O446  1  0.41600947  0.09153882  0.86366133  1
  O2-  O447  1  0.42709921  0.34793906  0.17405338  1
  O2-  O448  1  0.41412901  0.32245424  0.52225016  1
  O2-  O449  1  0.41580176  0.33871789  0.86048826  1
  O2-  O450  1  0.39814568  0.56598900  0.19289064  1
  O2-  O451  1  0.36504268  0.53198790  0.54475626  1
  O2-  O452  1  0.39851820  0.58425730  0.85782762  1
  O2-  O453  1  0.42616804  0.80887937  0.19089975  1
  O2-  O454  1  0.44791228  0.90897530  0.54326378  1
  O2-  O455  1  0.41480114  0.83718744  0.85948725  1
  O2-  O456  1  0.66966114  0.07021503  0.18614681  1
  O2-  O457  1  0.67743061  0.10142273  0.52026331  1
  O2-  O458  1  0.67296139  0.07969642  0.85669315  1
  O2-  O459  1  0.65554274  0.32672139  0.18871898  1
  O2-  O460  1  0.67748814  0.32884577  0.51489001  1
  O2-  O461  1  0.65275615  0.34332572  0.85668749  1
  O2-  O462  1  0.67408345  0.59300228  0.17246745  1
  O2-  O463  1  0.66027129  0.56689488  0.52049540  1
  O2-  O464  1  0.66055461  0.59808358  0.86802432  1
  O2-  O465  1  0.71669061  0.87501848  0.17027595  1
  O2-  O466  1  0.65392518  0.82442357  0.44494648  1
  O2-  O467  1  0.67969869  0.83354385  0.85850219  1
  O2-  O468  1  0.92407749  0.01662345  0.19902537  1
  O2-  O469  1  0.86381863  0.05986882  0.53841448  1
  O2-  O470  1  0.92020929  0.08074352  0.85601176  1
  O2-  O471  1  0.89383544  0.31202464  0.21106131  1
  O2-  O472  1  0.91934051  0.32095755  0.52781563  1
  O2-  O473  1  0.92600788  0.33021443  0.85950278  1
  O2-  O474  1  0.91616993  0.57392989  0.18557802  1
  O2-  O475  1  0.92186552  0.57883942  0.52405217  1
  O2-  O476  1  0.90564079  0.57639607  0.85084791  1
  O2-  O477  1  0.92942150  0.86610577  0.20720912  1
  O2-  O478  1  0.86359539  0.79656942  0.52360596  1
  O2-  O479  1  0.91202830  0.81757674  0.86522328  1
  O2-  O480  1  0.19580280  0.09955654  0.30028210  1
  O2-  O481  1  0.15082624  0.06537154  0.64166749  1
  O2-  O482  1  0.18097987  0.02924031  0.96936404  1
  O2-  O483  1  0.18080711  0.31349800  0.29634467  1
  O2-  O484  1  0.14924112  0.33148315  0.64504515  1
  O2-  O485  1  0.16125602  0.33203654  0.98372373  1
  O2-  O486  1  0.22416742  0.58932830  0.28755555  1
  O2-  O487  1  0.14560901  0.58562832  0.64065729  1
  O2-  O488  1  0.16265093  0.60770321  0.97010507  1
  O2-  O489  1  0.17281843  0.82499105  0.30546707  1
  O2-  O490  1  0.13711142  0.80875234  0.62133972  1
  O2-  O491  1  0.17833322  0.87367998  0.96958435  1
  O2-  O492  1  0.41600162  0.06986676  0.30704626  1
  O2-  O493  1  0.37116532  0.05231769  0.64001216  1
  O2-  O494  1  0.41806074  0.08142248  0.98447692  1
  O2-  O495  1  0.41452942  0.36117520  0.29797636  1
  O2-  O496  1  0.40633110  0.32422983  0.64602157  1
  O2-  O497  1  0.39608714  0.31963938  0.98355929  1
  O2-  O498  1  0.42009345  0.59390889  0.32473244  1
  O2-  O499  1  0.41717917  0.60565597  0.64981490  1
  O2-  O500  1  0.39114466  0.58097111  0.98037590  1
  O2-  O501  1  0.43281124  0.83508631  0.31753889  1
  O2-  O502  1  0.41557360  0.83627299  0.65062840  1
  O2-  O503  1  0.40731243  0.82531138  0.98546870  1
  O2-  O504  1  0.70117604  0.11456812  0.35830001  1
  O2-  O505  1  0.68088301  0.11097961  0.64542838  1
  O2-  O506  1  0.65622758  0.07141478  0.98252039  1
  O2-  O507  1  0.63747111  0.32836332  0.31305520  1
  O2-  O508  1  0.70092143  0.35203247  0.63730664  1
  O2-  O509  1  0.68059984  0.31294049  0.96963633  1
  O2-  O510  1  0.66125243  0.56223064  0.30806997  1
  O2-  O511  1  0.67367126  0.56874521  0.64362128  1
  O2-  O512  1  0.64181137  0.61414310  0.98776181  1
  O2-  O513  1  0.64877310  0.81733124  0.30741370  1
  O2-  O514  1  0.73410027  0.95931116  0.68640070  1
  O2-  O515  1  0.65880535  0.83338680  0.98224449  1
  O2-  O516  1  0.91699022  0.08062129  0.30006957  1
  O2-  O517  1  0.91716714  0.07407092  0.65239424  1
  O2-  O518  1  0.90945021  0.07307280  0.97992463  1
  O2-  O519  1  0.86652453  0.30432381  0.27470676  1
  O2-  O520  1  0.91536919  0.32646277  0.64544235  1
  O2-  O521  1  0.93937196  0.34253503  0.98727263  1
  O2-  O522  1  0.91285450  0.57717395  0.31040616  1
  O2-  O523  1  0.95442442  0.59670370  0.65084424  1
  O2-  O524  1  0.89806426  0.57391727  0.97387594  1
  O2-  O525  1  0.88031134  0.80707503  0.31511993  1
  O2-  O526  1  0.90500480  0.80824119  0.64807586  1
  O2-  O527  1  0.89332046  0.81161775  0.99448329  1
  O2-  O528  1  0.06977318  0.16313693  0.02893452  1
  O2-  O529  1  0.06877904  0.15743049  0.35362645  1
  O2-  O530  1  0.06403789  0.17971246  0.69191852  1
  O2-  O531  1  0.08779102  0.40743332  0.04512396  1
  O2-  O532  1  0.06012200  0.44427980  0.37739147  1
  O2-  O533  1  0.08496313  0.42646450  0.68624711  1
  O2-  O534  1  0.10669926  0.69934270  0.01657567  1
  O2-  O535  1  0.07583285  0.66573332  0.35645537  1
  O2-  O536  1  0.04537669  0.65054050  0.67279137  1
  O2-  O537  1  0.04013470  0.94918913  0.04673689  1
  O2-  O538  1  0.12147274  0.94022160  0.34009602  1
  O2-  O539  1  0.07145070  0.90387643  0.67330910  1
  O2-  O540  1  0.32517686  0.15615982  0.02140662  1
  O2-  O541  1  0.34949946  0.15762635  0.35060674  1
  O2-  O542  1  0.31774740  0.16126043  0.68998005  1
  O2-  O543  1  0.32314138  0.41947393  0.02161921  1
  O2-  O544  1  0.33969724  0.44277553  0.35772660  1
  O2-  O545  1  0.32123472  0.40238130  0.68671010  1
  O2-  O546  1  0.30462435  0.65747684  0.01347860  1
  O2-  O547  1  0.35424052  0.67779856  0.35919676  1
  O2-  O548  1  0.31234302  0.67128825  0.69296367  1
  O2-  O549  1  0.32953830  0.91414228  0.02032754  1
  O2-  O550  1  0.33558566  0.90538614  0.34831195  1
  O2-  O551  1  0.32304733  0.89271692  0.69895909  1
  O2-  O552  1  0.57820945  0.15748129  0.02433075  1
  O2-  O553  1  0.57473683  0.16073276  0.35439462  1
  O2-  O554  1  0.61560245  0.20660934  0.68803955  1
  O2-  O555  1  0.65454955  0.45918593  0.01281161  1
  O2-  O556  1  0.55567095  0.39866754  0.35807672  1
  O2-  O557  1  0.58578010  0.39404553  0.65142204  1
  O2-  O558  1  0.55032661  0.68019893  0.02340215  1
  O2-  O559  1  0.58391345  0.66264693  0.33911295  1
  O2-  O560  1  0.56438105  0.61688120  0.70747280  1
  O2-  O561  1  0.57053161  0.90581286  0.02430767  1
  O2-  O562  1  0.59685070  0.93462859  0.35943590  1
  O2-  O563  1  0.58391226  0.94768251  0.68859752  1
  O2-  O564  1  0.83227769  0.16290786  -0.00636429  1
  O2-  O565  1  0.79193555  0.15214507  0.33993688  1
  O2-  O566  1  0.83615904  0.18772955  0.69477344  1
  O2-  O567  1  0.88393948  0.43562353  0.04466496  1
  O2-  O568  1  0.90573959  0.43402688  0.35887680  1
  O2-  O569  1  0.86157442  0.42749356  0.68280128  1
  O2-  O570  1  0.81689345  0.63711033  0.03186907  1
  O2-  O571  1  0.81764577  0.64271435  0.35516864  1
  O2-  O572  1  0.84104666  0.64968068  0.69313483  1
  O2-  O573  1  0.82089326  0.91058304  0.02188685  1
  O2-  O574  1  0.81199247  0.91560826  0.34557496  1
  O2-  O575  1  0.85433975  0.91306778  0.69704788  1
