# generated using pymatgen
data_H2O
_symmetry_space_group_name_H-M   'P 1'
_cell_length_a   17.99079874
_cell_length_b   17.99299500
_cell_length_c   22.00988893
_cell_angle_alpha   89.98796940
_cell_angle_beta   90.02600801
_cell_angle_gamma   120.00201624
_symmetry_Int_Tables_number   1
_chemical_formula_structural   H2O
_chemical_formula_sum   'H384 O192'
_cell_volume   6170.11868925
_cell_formula_units_Z   192
loop_
 _symmetry_equiv_pos_site_id
 _symmetry_equiv_pos_as_xyz
  1  'x, y, z'
loop_
 _atom_type_symbol
 _atom_type_oxidation_number
  H+  1.0
  O2-  -2.0
loop_
 _atom_site_type_symbol
 _atom_site_label
 _atom_site_symmetry_multiplicity
 _atom_site_fract_x
 _atom_site_fract_y
 _atom_site_fract_z
 _atom_site_occupancy
  H+  H0  1  0.41762258  0.33239300  0.27555250  1
  H+  H1  1  0.75685465  0.71374315  0.37111250  1
  H+  H2  1  0.89455229  0.81506037  0.47765854  1
  H+  H3  1  0.35042842  0.16989047  0.85740920  1
  H+  H4  1  0.49490787  0.84791641  0.49097883  1
  H+  H5  1  0.55383307  0.57969360  0.84600716  1
  H+  H6  1  0.62349283  0.21963927  0.82683885  1
  H+  H7  1  0.61981239  0.95118981  0.83400259  1
  H+  H8  1  0.10205833  0.62614648  0.82833825  1
  H+  H9  1  0.52435541  0.39215344  0.00857324  1
  H+  H10  1  0.72028845  0.36560165  0.17840820  1
  H+  H11  1  0.84502129  0.13650257  0.48932645  1
  H+  H12  1  0.88468841  0.86402299  0.84633623  1
  H+  H13  1  0.10121214  0.87708905  0.66382061  1
  H+  H14  1  0.37964174  0.11505656  0.00787481  1
  H+  H15  1  0.47341671  0.62256152  -0.00370769  1
  H+  H16  1  0.11652397  0.12939935  0.65221032  1
  H+  H17  1  0.12647936  0.00866334  0.66733656  1
  H+  H18  1  0.72374444  0.44459939  0.95512384  1
  H+  H19  1  0.73055018  0.84547925  0.84144735  1
  H+  H20  1  0.10993709  0.48685857  0.00627371  1
  H+  H21  1  0.85989439  0.38916057  0.16910971  1
  H+  H22  1  0.34868852  0.87978627  0.66010343  1
  H+  H23  1  0.57641524  0.67117792  0.07536455  1
  H+  H24  1  0.02879382  0.14558272  0.16121329  1
  H+  H25  1  0.36364088  0.21800829  0.49743335  1
  H+  H26  1  0.35628249  0.97695577  0.00220224  1
  H+  H27  1  0.88626073  0.77439062  0.99907967  1
  H+  H28  1  0.64461572  0.09456728  0.84137055  1
  H+  H29  1  0.36377737  0.47759366  0.16279999  1
  H+  H30  1  0.45991317  0.65661192  0.59405519  1
  H+  H31  1  0.23640758  0.37503826  0.15911320  1
  H+  H32  1  0.10132817  0.64172851  0.48498519  1
  H+  H33  1  0.84739825  0.35241681  0.48249259  1
  H+  H34  1  0.35088206  0.64073414  -0.00120857  1
  H+  H35  1  0.11730556  0.39064951  0.34048722  1
  H+  H36  1  0.73500222  0.62620220  0.67378661  1
  H+  H37  1  0.83424572  0.40605908  0.39365008  1
  H+  H38  1  0.01407548  0.13523722  0.01120914  1
  H+  H39  1  0.21749704  0.11052636  0.17768744  1
  H+  H40  1  0.98212597  0.37622246  0.17205250  1
  H+  H41  1  0.40807361  0.86052425  0.32996582  1
  H+  H42  1  -0.03244743  0.13674611  0.47677196  1
  H+  H43  1  0.97296923  0.35414468  0.66009156  1
  H+  H44  1  0.86049682  0.88872002  0.16308134  1
  H+  H45  1  0.64891671  0.53668082  0.66675425  1
  H+  H46  1  0.29132929  0.58602046  0.51678077  1
  H+  H47  1  0.09259738  0.62998989  0.64979154  1
  H+  H48  1  0.86508085  0.88799499  0.33861436  1
  H+  H49  1  0.12483169  0.10860613  0.43634220  1
  H+  H50  1  0.87731122  0.01209147  1.00263926  1
  H+  H51  1  0.53898927  0.40251165  0.66352662  1
  H+  H52  1  0.40519941  1.00313739  0.81621500  1
  H+  H53  1  0.97999030  0.37404541  0.99137486  1
  H+  H54  1  0.09559790  0.72078836  0.16037892  1
  H+  H55  1  0.63010725  0.84775686  0.50336101  1
  H+  H56  1  0.10936261  0.63967972  0.33828021  1
  H+  H57  1  0.10513799  0.13102663  0.84946641  1
  H+  H58  1  0.61022276  0.63878641  0.16686659  1
  H+  H59  1  0.89154269  0.02693340  0.16548609  1
  H+  H60  1  0.90407053  0.28013965  0.50194435  1
  H+  H61  1  0.27573481  0.38996015  1.00790867  1
  H+  H62  1  0.36486070  0.38689310  0.34434820  1
  H+  H63  1  0.37123869  0.77695000  0.64842427  1
  H+  H64  1  0.77443664  0.65679289  0.84219836  1
  H+  H65  1  0.89099973  0.76947428  0.33058777  1
  H+  H66  1  0.68513622  0.73517243  0.37977326  1
  H+  H67  1  0.64842567  0.28090005  0.66281748  1
  H+  H68  1  0.78157734  0.63662104  0.01347680  1
  H+  H69  1  0.15596206  0.29898968  0.63038317  1
  H+  H70  1  0.45089340  0.83768167  0.18272934  1
  H+  H71  1  0.13603442  0.27814500  0.85351044  1
  H+  H72  1  0.98183911  0.38701127  0.84169370  1
  H+  H73  1  0.30140629  0.26681230  0.62668794  1
  H+  H74  1  0.40089041  0.81734667  0.56250317  1
  H+  H75  1  0.35751185  0.37757518  0.83527317  1
  H+  H76  1  0.53947667  0.12805815  0.81680318  1
  H+  H77  1  0.39136773  0.08129627  0.82898775  1
  H+  H78  1  0.10521512  0.97241766  0.16276817  1
  H+  H79  1  0.40758509  0.32794529  0.56535661  1
  H+  H80  1  0.72005964  0.61281623  0.17530983  1
  H+  H81  1  0.37473931  0.10384787  0.18438757  1
  H+  H82  1  0.60082014  0.88076724  0.16090332  1
  H+  H83  1  0.11298893  0.89074387  0.33934712  1
  H+  H84  1  0.01252000  0.13494629  0.31919356  1
  H+  H85  1  0.78741302  0.63797660  0.50083139  1
  H+  H86  1  0.11440408  0.52737456  0.49439439  1
  H+  H87  1  0.60861976  0.48329010  0.83251419  1
  H+  H88  1  0.63770821  0.14796070  0.66870968  1
  H+  H89  1  0.85410629  0.96858538  0.82572787  1
  H+  H90  1  0.46624971  0.11561123  0.99871925  1
  H+  H91  1  0.20083750  0.61538508  0.49957934  1
  H+  H92  1  0.39044507  0.10637011  0.50568752  1
  H+  H93  1  0.35779652  0.22360505  0.16860193  1
  H+  H94  1  0.63263509  0.10532107  0.49393875  1
  H+  H95  1  0.36936175  0.72548637  0.81338875  1
  H+  H96  1  0.22609605  0.36648160  0.84942736  1
  H+  H97  1  0.63602780  0.85924512  0.32284848  1
  H+  H98  1  0.76504066  0.37634765  0.67391827  1
  H+  H99  1  0.38406213  0.86903891  0.98638210  1
  H+  H100  1  0.40460239  0.07437300  0.60571015  1
  H+  H101  1  0.62480821  0.28518902  0.51199660  1
  H+  H102  1  0.86462774  0.62241900  0.68761484  1
  H+  H103  1  0.24546312  0.61485634  0.82735944  1
  H+  H104  1  0.09528518  0.60670716  1.00261997  1
  H+  H105  1  0.88967675  0.36869768  0.99547449  1
  H+  H106  1  0.66804225  0.70767309  0.86198727  1
  H+  H107  1  0.11853051  0.48517149  0.16246319  1
  H+  H108  1  0.36776847  0.72980524  0.34339108  1
  H+  H109  1  0.22406235  0.36318176  0.33609759  1
  H+  H110  1  0.90463734  0.16016906  0.14650698  1
  H+  H111  1  0.24308943  0.13275001  1.01121938  1
  H+  H112  1  1.01902130  0.62983629  0.84050137  1
  H+  H113  1  0.39569513  0.54641283  0.72657498  1
  H+  H114  1  0.38114009  0.77894653  0.98899823  1
  H+  H115  1  0.87952407  0.48104701  0.02704720  1
  H+  H116  1  0.60688581  0.64272703  0.68315046  1
  H+  H117  1  0.89610838  0.54097949  0.33196249  1
  H+  H118  1  0.85225435  0.11601388  0.00837184  1
  H+  H119  1  0.36776045  -0.03038814  0.33347234  1
  H+  H120  1  0.36888559  0.46893098  0.83899688  1
  H+  H121  1  0.86897788  0.90521031  0.49160342  1
  H+  H122  1  0.66022835  0.30610989  0.33161066  1
  H+  H123  1  0.71992856  0.86375246  0.17242964  1
  H+  H124  1  -0.04064205  0.60051034  0.65206103  1
  H+  H125  1  0.52467378  0.39818993  0.49917420  1
  H+  H126  1  -0.02751230  0.10924715  0.64253850  1
  H+  H127  1  0.38780031  0.53302767  -0.00886516  1
  H+  H128  1  0.34582660  0.20983327  0.69369750  1
  H+  H129  1  0.51575620  0.88545753  0.00115654  1
  H+  H130  1  0.76343601  0.13196053  0.33074959  1
  H+  H131  1  0.91603219  0.08433579  0.22561810  1
  H+  H132  1  0.13804946  0.27916038  0.16054710  1
  H+  H133  1  0.65190349  0.54092638  0.33039009  1
  H+  H134  1  0.56485025  0.17672358  0.31972835  1
  H+  H135  1  0.78143864  0.17535387  0.48723888  1
  H+  H136  1  0.74979130  0.39624172  1.00163556  1
  H+  H137  1  0.89930290  0.71956444  0.70660682  1
  H+  H138  1  0.28063480  0.40250902  0.68201335  1
  H+  H139  1  0.25531407  0.64422442  0.65546512  1
  H+  H140  1  0.26878113  0.88484914  0.00338050  1
  H+  H141  1  0.57505218  0.94064659  0.49679415  1
  H+  H142  1  0.63556317  0.11014300  0.00351305  1
  H+  H143  1  0.26454919  0.14106905  0.34171104  1
  H+  H144  1  0.86543319  0.88378627  0.66326641  1
  H+  H145  1  0.16292316  0.24367981  0.53510319  1
  H+  H146  1  0.37430308  0.60259983  0.32863204  1
  H+  H147  1  0.66860058  0.60634257  0.94604439  1
  H+  H148  1  0.74840582  0.09763875  0.16899642  1
  H+  H149  1  0.12835809  0.77885358  0.32309048  1
  H+  H150  1  0.60839296  0.22325490  1.00951697  1
  H+  H151  1  0.60858854  0.48125661  0.16895758  1
  H+  H152  1  0.44680004  0.59115737  0.82158441  1
  H+  H153  1  0.85638198  0.63620744  0.17007779  1
  H+  H154  1  0.26224518  0.11870962  0.69324384  1
  H+  H155  1  0.16496369  0.89241284  0.83865394  1
  H+  H156  1  0.11262220  0.38979203  0.82873630  1
  H+  H157  1  0.88967058  0.63233911  0.33051226  1
  H+  H158  1  0.26571577  0.62070490  0.15944468  1
  H+  H159  1  0.87525791  0.10802981  0.31597908  1
  H+  H160  1  0.48499664  0.37048119  0.84552730  1
  H+  H161  1  0.27997989  0.12379880  0.50244673  1
  H+  H162  1  0.79386445  0.39765318  0.48690527  1
  H+  H163  1  0.86413367  0.21782602  0.67726710  1
  H+  H164  1  1.01239371  0.87803576  0.66013587  1
  H+  H165  1  0.64104609  0.76486199  0.50355473  1
  H+  H166  1  0.35726416  0.34836205  0.66648482  1
  H+  H167  1  0.60902142  0.72803027  0.16627444  1
  H+  H168  1  0.39947067  0.28724289  0.82257557  1
  H+  H169  1  0.72663785  0.86376463  0.32054834  1
  H+  H170  1  0.63125784  0.77429633  0.99993425  1
  H+  H171  1  0.47623554  0.10271616  0.51140394  1
  H+  H172  1  0.96991569  0.86236009  0.17519284  1
  H+  H173  1  0.13346957  0.27843359  -0.00010070  1
  H+  H174  1  0.26379487  0.64446912  1.00531693  1
  H+  H175  1  0.12455168  0.61157256  0.17483387  1
  H+  H176  1  0.60490931  0.88439486  0.00374549  1
  H+  H177  1  1.02174289  0.88679201  0.34253034  1
  H+  H178  1  0.61854206  0.39760214  0.83942158  1
  H+  H179  1  0.20905191  0.85942653  0.16609088  1
  H+  H180  1  0.68310598  0.05475977  0.48618649  1
  H+  H181  1  0.65045516  0.53445237  0.51692537  1
  H+  H182  1  0.63167804  0.36810876  0.17790951  1
  H+  H183  1  0.73064769  0.37050235  0.84092306  1
  H+  H184  1  0.96605532  0.09973629  0.85780163  1
  H+  H185  1  0.46246046  0.10509311  0.17750034  1
  H+  H186  1  0.13342398  0.85697325  0.99877559  1
  H+  H187  1  0.85585109  0.47697177  0.17150851  1
  H+  H188  1  0.21561255  0.85815569  0.65471590  1
  H+  H189  1  0.38436145  0.27387588  0.33519248  1
  H+  H190  1  0.36989969  0.64640310  0.77797794  1
  H+  H191  1  0.01843077  0.89024415  0.49240040  1
  H+  H192  1  0.58462301  0.12665059  0.16482887  1
  H+  H193  1  0.88566874  0.10820705  0.66209198  1
  H+  H194  1  0.13830025  0.37687130  0.15893720  1
  H+  H195  1  0.40681467  0.49000912  0.48285517  1
  H+  H196  1  0.51418062  0.86765747  0.33721030  1
  H+  H197  1  0.63084046  0.01813822  1.00337489  1
  H+  H198  1  0.24515807  0.94253552  0.88158210  1
  H+  H199  1  0.38495746  0.27420344  0.99202959  1
  H+  H200  1  0.13401544  0.86176810  0.49939233  1
  H+  H201  1  0.11383537  0.39023368  0.67097720  1
  H+  H202  1  0.88215341  0.34996188  0.65734924  1
  H+  H203  1  0.58236662  -0.00037964  0.17800043  1
  H+  H204  1  0.83041162  0.91520033  0.10209507  1
  H+  H205  1  0.01601462  0.88182926  0.01044866  1
  H+  H206  1  0.52978715  0.86525173  0.83136183  1
  H+  H207  1  0.11540423  0.74286625  0.48462840  1
  H+  H208  1  0.09813194  -0.03842279  0.82301329  1
  H+  H209  1  0.34178432  -0.02882783  0.15702007  1
  H+  H210  1  0.68651395  0.24270711  0.45684136  1
  H+  H211  1  0.39344673  0.85071252  0.82925605  1
  H+  H212  1  0.87239098  0.40883942  0.83599490  1
  H+  H213  1  0.08694072  0.92016703  0.43503893  1
  H+  H214  1  0.74872788  0.13951483  0.16866361  1
  H+  H215  1  0.62118924  0.09210915  0.33088593  1
  H+  H216  1  0.02692507  0.38939534  0.33733672  1
  H+  H217  1  0.66809492  0.34281597  0.60403054  1
  H+  H218  1  0.88016651  0.02039351  0.31876879  1
  H+  H219  1  0.74939837  0.61924452  0.32256822  1
  H+  H220  1  0.40947445  0.80662187  0.24659743  1
  H+  H221  1  0.09304352  0.71969847  0.64957972  1
  H+  H222  1  0.86491704  0.97158059  0.66866417  1
  H+  H223  1  0.36414675  0.83160013  0.50054578  1
  H+  H224  1  0.60194245  0.22490865  0.16375366  1
  H+  H225  1  0.61506209  0.17697268  0.73128349  1
  H+  H226  1  0.89239405  0.78032154  0.85093365  1
  H+  H227  1  0.47234820  0.60679337  0.17643739  1
  H+  H228  1  0.38851333  0.36291398  0.50428213  1
  H+  H229  1  0.88651200  0.62343432  0.87203032  1
  H+  H230  1  0.37655569  0.10113267  0.66735379  1
  H+  H231  1  0.36564291  0.39143030  1.00374186  1
  H+  H232  1  0.62292190  0.39670382  0.67167887  1
  H+  H233  1  0.63600242  0.53386284  -0.00113890  1
  H+  H234  1  0.85401336  0.01512495  0.50168139  1
  H+  H235  1  0.16917042  0.28255689  0.51766755  1
  H+  H236  1  0.22506370  0.62026506  0.32789078  1
  H+  H237  1  0.33536409  0.69269121  0.50883241  1
  H+  H238  1  0.53879501  0.64195589  0.51724248  1
  H+  H239  1  0.76013057  0.12162575  0.01676793  1
  H+  H240  1  0.96150144  0.23387984  0.80532524  1
  H+  H241  1  0.66868131  0.58662395  0.23762991  1
  H+  H242  1  0.61738794  0.40405042  0.34613035  1
  H+  H243  1  0.31617923  0.91702699  0.09472919  1
  H+  H244  1  0.35527039  0.95464863  0.48965676  1
  H+  H245  1  0.13352384  0.27772769  0.32587800  1
  H+  H246  1  0.14067199  -0.00002686  0.51224692  1
  H+  H247  1  0.62480414  0.63999823  0.50309526  1
  H+  H248  1  0.27345228  0.44430751  0.51231648  1
  H+  H249  1  0.60978900  0.64384293  0.01724237  1
  H+  H250  1  0.89725457  0.25752229  0.83343801  1
  H+  H251  1  1.01764729  0.64120485  0.33730167  1
  H+  H252  1  0.88454985  0.27493880  0.31950335  1
  H+  H253  1  0.34673148  -0.03270954  0.66961378  1
  H+  H254  1  0.56440927  0.90957632  0.73694042  1
  H+  H255  1  0.90059157  0.24952221  0.14708886  1
  H+  H256  1  0.03242062  0.39466093  0.49080357  1
  H+  H257  1  0.12252392  0.51731110  0.65262172  1
  H+  H258  1  0.88726338  0.53635858  0.86808259  1
  H+  H259  1  0.11488114  0.09855331  -0.00030061  1
  H+  H260  1  0.88430158  0.07663591  0.56204678  1
  H+  H261  1  0.84664692  0.67012549  0.39301726  1
  H+  H262  1  0.79060216  0.40723862  0.33212700  1
  H+  H263  1  0.11791304  0.40059212  1.00831683  1
  H+  H264  1  0.86090623  0.56387317  0.50633547  1
  H+  H265  1  0.47220016  0.36212681  0.17780645  1
  H+  H266  1  0.32390245  0.16346875  0.40071028  1
  H+  H267  1  0.62850444  0.37570142  0.51308573  1
  H+  H268  1  0.76674094  0.88121568  1.00812178  1
  H+  H269  1  0.13702256  0.52980767  0.32814411  1
  H+  H270  1  0.12221252  0.48177881  0.82266517  1
  H+  H271  1  0.88473435  0.71112866  0.50471919  1
  H+  H272  1  0.27860445  0.21848724  0.04662536  1
  H+  H273  1  0.38220929  0.35937191  0.17748463  1
  H+  H274  1  0.12414671  0.10890752  0.32240098  1
  H+  H275  1  0.10390345  0.88145956  0.16323583  1
  H+  H276  1  0.60801330  0.73107322  0.67559494  1
  H+  H277  1  0.72496162  0.85601852  0.65708418  1
  H+  H278  1  0.20214970  0.09348564  0.85217339  1
  H+  H279  1  0.08797195  0.42574341  0.42826804  1
  H+  H280  1  0.77002529  0.88468245  0.48982945  1
  H+  H281  1  0.87847424  0.51087294  0.67402245  1
  H+  H282  1  0.41701011  0.64487598  0.53076410  1
  H+  H283  1  0.61873168  0.40428519  0.01263277  1
  H+  H284  1  0.12850701  0.02144057  0.32698436  1
  H+  H285  1  0.16164265  0.15342809  0.44109832  1
  H+  H286  1  0.59159310  -0.02582628  0.68087841  1
  H+  H287  1  0.11826212  1.00863356  0.00246020  1
  H+  H288  1  0.66611346  0.82539521  0.93742633  1
  H+  H289  1  0.84660786  0.16684825  0.73916235  1
  H+  H290  1  0.80197491  0.34658514  0.72716898  1
  H+  H291  1  0.90304277  0.07057377  0.94269247  1
  H+  H292  1  0.08124168  0.41608648  0.73107121  1
  H+  H293  1  0.44226137  0.58539724  0.89723500  1
  H+  H294  1  0.28816012  0.88333333  0.81962611  1
  H+  H295  1  0.17430173  0.06516726  0.60980579  1
  H+  H296  1  0.68487411  0.59602111  0.57567746  1
  H+  H297  1  0.96377899  0.60987171  0.17955862  1
  H+  H298  1  0.85180906  0.17390126  0.06975631  1
  H+  H299  1  0.61788528  0.05833488  0.23754188  1
  H+  H300  1  0.63557789  0.82804542  0.84206172  1
  H+  H301  1  0.46032851  0.86793680  0.65749125  1
  H+  H302  1  0.32261230  0.16148022  0.11107383  1
  H+  H303  1  0.88028058  0.77412262  0.17799931  1
  H+  H304  1  0.32526984  0.65236880  0.10130155  1
  H+  H305  1  0.39982355  0.03615726  0.27509209  1
  H+  H306  1  0.72769253  0.09479147  0.65655113  1
  H+  H307  1  0.21051373  0.57037887  0.89079003  1
  H+  H308  1  0.21980760  0.86157293  0.33085768  1
  H+  H309  1  0.57980874  0.90235253  0.39518480  1
  H+  H310  1  0.20143318  0.39272640  0.59825740  1
  H+  H311  1  0.91294782  0.83511470  0.93895637  1
  H+  H312  1  0.06996404  0.16160358  0.79456832  1
  H+  H313  1  0.05019157  0.65199528  0.10532102  1
  H+  H314  1  0.31645435  0.67950833  0.71282182  1
  H+  H315  1  0.92274589  0.35581574  0.90269541  1
  H+  H316  1  0.67123715  0.33558980  0.89802584  1
  H+  H317  1  0.66716124  0.06760729  0.59742341  1
  H+  H318  1  0.82836070  0.16919063  0.38669332  1
  H+  H319  1  0.16615393  0.34006021  0.94194582  1
  H+  H320  1  0.41867401  0.33022864  0.93194307  1
  H+  H321  1  0.56751918  0.90610167  0.10149242  1
  H+  H322  1  0.83184960  0.41424340  0.08040261  1
  H+  H323  1  0.60052940  0.17559452  0.42147135  1
  H+  H324  1  0.57661354  0.16851192  0.07078636  1
  H+  H325  1  0.33701518  0.42039413  0.10061866  1
  H+  H326  1  0.16867781  0.83663958  0.93933569  1
  H+  H327  1  0.08857900  0.42919135  0.10015219  1
  H+  H328  1  0.92139331  0.33782972  0.23026003  1
  H+  H329  1  0.18218932  0.44102231  0.51055035  1
  H+  H330  1  0.84730087  0.45207304  0.78225296  1
  H+  H331  1  0.22460866  0.85821007  0.49904556  1
  H+  H332  1  0.91558604  0.83960171  0.57305140  1
  H+  H333  1  0.92492721  0.33366812  0.56369089  1
  H+  H334  1  0.83200605  0.65910868  0.78635575  1
  H+  H335  1  0.91742451  0.83356497  0.27266426  1
  H+  H336  1  0.90955593  0.58597003  0.24124344  1
  H+  H337  1  0.05733707  0.16517930  0.38149649  1
  H+  H338  1  0.09643940  0.18793738  0.69374437  1
  H+  H339  1  0.66636449  0.06747049  0.90365013  1
  H+  H340  1  0.87277234  0.77059267  0.62845438  1
  H+  H341  1  0.88616113  0.11124657  0.85149793  1
  H+  H342  1  0.32470017  0.65874283  0.39848650  1
  H+  H343  1  0.07543897  0.91095441  0.07042799  1
  H+  H344  1  0.67048844  0.35043485  0.26677500  1
  H+  H345  1  0.07877703  0.16832530  0.06798259  1
  H+  H346  1  0.66764714  0.82575570  0.59759104  1
  H+  H347  1  0.83383765  0.91148467  0.76474984  1
  H+  H348  1  0.87313659  0.64022343  0.02103106  1
  H+  H349  1  0.85690765  0.88069739  0.00853206  1
  H+  H350  1  0.52436056  0.39447415  0.34697227  1
  H+  H351  1  0.15893393  0.58692895  0.23456143  1
  H+  H352  1  0.31435912  0.89142553  0.42740427  1
  H+  H353  1  0.48639005  0.63300879  0.72566725  1
  H+  H354  1  0.41472452  0.82432340  0.89375832  1
  H+  H355  1  0.05493846  0.22539888  0.47493213  1
  H+  H356  1  0.89178710  0.36807438  0.32200406  1
  H+  H357  1  0.32898074  0.40990505  0.74514802  1
  H+  H358  1  0.36050219  0.47540350  0.34214748  1
  H+  H359  1  0.13929048  0.60472927  0.94117499  1
  H+  H360  1  0.66276618  0.83329265  0.23308436  1
  H+  H361  1  0.15408256  0.07970524  0.23443943  1
  H+  H362  1  0.48947470  0.08585653  0.34146707  1
  H+  H363  1  0.94166592  0.59525036  0.96301842  1
  H+  H364  1  0.83265890  0.92094762  0.39371892  1
  H+  H365  1  0.31899117  0.14179306  0.78755643  1
  H+  H366  1  0.08490516  0.90879682  0.76198917  1
  H+  H367  1  0.83271415  0.66860235  0.10927747  1
  H+  H368  1  0.14208214  0.57334593  0.59120471  1
  H+  H369  1  0.87110653  0.52802714  0.56796488  1
  H+  H370  1  0.08158217  0.67769494  0.41783494  1
  H+  H371  1  0.15992665  0.83229284  0.59328280  1
  H+  H372  1  0.14131030  0.06622329  0.91022395  1
  H+  H373  1  0.58519815  0.43200170  0.44035311  1
  H+  H374  1  0.11780973  0.14564962  0.16282191  1
  H+  H375  1  0.62845088  0.00658739  0.32931786  1
  H+  H376  1  0.15742741  0.83180356  0.22977267  1
  H+  H377  1  0.14923831  0.09130526  0.52147667  1
  H+  H378  1  0.57895570  0.42342775  0.10872736  1
  H+  H379  1  0.30495592  0.82868436  0.35544977  1
  H+  H380  1  0.34790860  0.42557835  0.43027117  1
  H+  H381  1  0.33104923  0.89621727  0.75327515  1
  H+  H382  1  0.37762940  0.59609532  0.17157437  1
  H+  H383  1  0.40521986  0.57133511  0.27158016  1
  O2-  O384  1  0.09009196  0.17855645  0.14633569  1
  O2-  O385  1  0.01690297  0.17591398  0.45044907  1
  O2-  O386  1  0.07568693  0.16610929  0.83854784  1
  O2-  O387  1  0.09115889  0.42437454  0.14554240  1
  O2-  O388  1  0.09148201  0.43221376  0.47413078  1
  O2-  O389  1  0.08464978  0.42035307  0.81023543  1
  O2-  O390  1  0.06349184  0.65801742  0.15015757  1
  O2-  O391  1  0.08036319  0.68040366  0.46644036  1
  O2-  O392  1  0.05774829  0.63290386  0.80788748  1
  O2-  O393  1  0.07372343  0.91246260  0.14722084  1
  O2-  O394  1  0.08487045  0.91578186  0.48062073  1
  O2-  O395  1  0.09804880  0.91117180  0.80579933  1
  O2-  O396  1  0.32460717  0.16174340  0.15582971  1
  O2-  O397  1  0.33797147  0.15745263  0.48361201  1
  O2-  O398  1  0.30863367  0.12398186  0.83163857  1
  O2-  O399  1  0.32967229  0.41575072  0.14577007  1
  O2-  O400  1  0.35714644  0.43286524  0.47703633  1
  O2-  O401  1  0.32740930  0.40958367  0.82385226  1
  O2-  O402  1  0.31092006  0.61579369  0.13752138  1
  O2-  O403  1  0.30518194  0.63434884  0.48910912  1
  O2-  O404  1  0.33266977  0.66991709  0.79098307  1
  O2-  O405  1  0.30011375  0.91595492  0.13794551  1
  O2-  O406  1  0.31940592  0.89417455  0.47723155  1
  O2-  O407  1  0.34249955  0.89727251  0.79830380  1
  O2-  O408  1  0.56849240  0.16780477  0.14431207  1
  O2-  O409  1  0.62871198  0.19174635  0.46249388  1
  O2-  O410  1  0.60308710  0.16217946  0.80918684  1
  O2-  O411  1  0.57786777  0.41960718  0.15383688  1
  O2-  O412  1  0.58559846  0.43199136  0.48607039  1
  O2-  O413  1  0.57977136  0.42178651  0.84255024  1
  O2-  O414  1  0.57815326  0.66694650  0.15102034  1
  O2-  O415  1  0.58802958  0.66344888  0.48919774  1
  O2-  O416  1  0.61052357  0.58843652  0.83026490  1
  O2-  O417  1  0.56582044  0.90619215  0.14647650  1
  O2-  O418  1  0.55724068  0.88362135  0.47993332  1
  O2-  O419  1  0.59075940  0.89098611  0.81804250  1
  O2-  O420  1  0.90172675  0.20468912  0.12095575  1
  O2-  O421  1  0.83303013  0.18054519  0.46876109  1
  O2-  O422  1  0.90067616  0.20767418  0.81527260  1
  O2-  O423  1  0.82526265  0.41593694  0.15591603  1
  O2-  O424  1  0.79834704  0.35364291  0.46252569  1
  O2-  O425  1  0.83901599  0.43913770  0.82581189  1
  O2-  O426  1  0.82761716  0.66803355  0.15436568  1
  O2-  O427  1  0.84625085  0.65767778  0.48375860  1
  O2-  O428  1  0.83193562  0.66689290  0.83119161  1
  O2-  O429  1  0.83236033  0.92105470  0.14728639  1
  O2-  O430  1  0.83021237  0.92667867  0.47612552  1
  O2-  O431  1  0.82928913  0.90915144  0.81012845  1
  O2-  O432  1  0.15535897  0.08246032  0.18839259  1
  O2-  O433  1  0.17740261  0.05938039  0.53383114  1
  O2-  O434  1  0.14165207  0.07209499  0.86462615  1
  O2-  O435  1  0.17060290  0.34370414  0.16978030  1
  O2-  O436  1  0.23389108  0.45687963  0.53612691  1
  O2-  O437  1  0.16498646  0.34021104  0.86389254  1
  O2-  O438  1  0.15628231  0.58251321  0.18924179  1
  O2-  O439  1  0.13897303  0.58779769  0.51127896  1
  O2-  O440  1  0.19074575  0.58076262  0.85224105  1
  O2-  O441  1  0.14904570  0.82628697  0.18478825  1
  O2-  O442  1  0.16162481  0.82776509  0.51336718  1
  O2-  O443  1  0.20916679  0.88596667  0.86376998  1
  O2-  O444  1  0.40396760  0.07127668  0.19499800  1
  O2-  O445  1  0.41572883  0.07181510  0.52245004  1
  O2-  O446  1  0.43507981  0.06428605  0.83000289  1
  O2-  O447  1  0.41134249  0.32834798  0.19246806  1
  O2-  O448  1  0.41528256  0.32968207  0.52082969  1
  O2-  O449  1  0.41891210  0.33323458  0.85231301  1
  O2-  O450  1  0.41133128  0.56996475  0.18955427  1
  O2-  O451  1  0.44337334  0.62112461  0.55753842  1
  O2-  O452  1  0.45526179  0.56416950  0.85904087  1
  O2-  O453  1  0.39542338  0.80007191  0.20221677  1
  O2-  O454  1  0.39163821  0.79960291  0.51801529  1
  O2-  O455  1  0.42027148  0.81925907  0.84887937  1
  O2-  O456  1  0.59047171  0.05327256  0.19758765  1
  O2-  O457  1  0.64425606  0.06160306  0.51340527  1
  O2-  O458  1  0.66699471  0.05909390  0.85948303  1
  O2-  O459  1  0.65983364  0.33613496  0.19424191  1
  O2-  O460  1  0.65300881  0.34158206  0.53145398  1
  O2-  O461  1  0.66920337  0.33471151  0.85322616  1
  O2-  O462  1  0.66005521  0.58238485  0.19145217  1
  O2-  O463  1  0.68696644  0.59513948  0.53025364  1
  O2-  O464  1  0.67431031  0.65551981  0.87012815  1
  O2-  O465  1  0.65945973  0.83192141  0.18661276  1
  O2-  O466  1  0.66942076  0.82736249  0.51709252  1
  O2-  O467  1  0.67281835  0.80652153  0.85984538  1
  O2-  O468  1  0.92485532  0.08802213  0.18022800  1
  O2-  O469  1  0.87477340  0.07639379  0.51738193  1
  O2-  O470  1  0.90329439  0.06978414  0.86621302  1
  O2-  O471  1  0.92086818  0.34173270  0.18461159  1
  O2-  O472  1  0.93056758  0.33944133  0.51850293  1
  O2-  O473  1  0.92104621  0.35699157  0.85589210  1
  O2-  O474  1  0.90319495  0.57938223  0.19542115  1
  O2-  O475  1  0.86187892  0.51404882  0.52434008  1
  O2-  O476  1  0.91545923  0.59306105  0.88880578  1
  O2-  O477  1  0.91003612  0.83552054  0.19142616  1
  O2-  O478  1  0.92931781  0.85794493  0.50804321  1
  O2-  O479  1  0.91558972  0.83882032  0.86764376  1
  O2-  O480  1  0.15749220  0.08082099  0.30910751  1
  O2-  O481  1  0.16456265  0.07075270  0.65418102  1
  O2-  O482  1  0.14720211  0.06996691  0.98532745  1
  O2-  O483  1  0.16527647  0.34084770  0.31963903  1
  O2-  O484  1  0.18445468  0.36100371  0.63842016  1
  O2-  O485  1  0.16746283  0.33991833  0.98747430  1
  O2-  O486  1  0.16322457  0.59037787  0.31370987  1
  O2-  O487  1  0.14989154  0.57659156  0.63603803  1
  O2-  O488  1  0.13938253  0.59253302  0.98435216  1
  O2-  O489  1  0.16101511  0.83954798  0.30966089  1
  O2-  O490  1  0.15510023  0.83178499  0.63838558  1
  O2-  O491  1  0.16696965  0.83064180  0.98398285  1
  O2-  O492  1  0.40643036  0.03104964  0.31919697  1
  O2-  O493  1  0.40025684  0.06687508  0.65030319  1
  O2-  O494  1  0.40564558  0.08767489  0.98501510  1
  O2-  O495  1  0.41979163  0.33556552  0.32057706  1
  O2-  O496  1  0.35905336  0.30014112  0.64369126  1
  O2-  O497  1  0.41977676  0.33388465  0.97708129  1
  O2-  O498  1  0.40177638  0.56867350  0.31655328  1
  O2-  O499  1  0.42833588  0.60166762  0.74776425  1
  O2-  O500  1  0.41667987  0.59247751  0.97481432  1
  O2-  O501  1  0.42732497  0.81918407  0.32362962  1
  O2-  O502  1  0.40511804  0.83851092  0.63323006  1
  O2-  O503  1  0.41436148  0.83798853  0.97163380  1
  O2-  O504  1  0.65737007  0.06905006  0.31502614  1
  O2-  O505  1  0.66813343  0.07111644  0.64219856  1
  O2-  O506  1  0.66769205  0.08063361  0.99173174  1
  O2-  O507  1  0.68061419  0.36161592  0.31233964  1
  O2-  O508  1  0.67379798  0.34352235  0.64974864  1
  O2-  O509  1  0.69884961  0.38982646  0.97658338  1
  O2-  O510  1  0.68754280  0.59500664  0.30831063  1
  O2-  O511  1  0.67811785  0.59867712  0.65425853  1
  O2-  O512  1  0.67197311  0.59646944  0.98986689  1
  O2-  O513  1  0.66704738  0.83117052  0.30497267  1
  O2-  O514  1  0.66493976  0.82608668  0.64274154  1
  O2-  O515  1  0.66351325  0.83351344  0.98220648  1
  O2-  O516  1  0.90688293  0.07972261  0.30022495  1
  O2-  O517  1  0.90921612  0.07690075  0.63841724  1
  O2-  O518  1  0.90602001  0.07400903  0.98821772  1
  O2-  O519  1  0.92045742  0.33610437  0.30656650  1
  O2-  O520  1  0.91327101  0.32030734  0.64318819  1
  O2-  O521  1  0.92201975  0.34658295  0.97266387  1
  O2-  O522  1  0.92474642  0.59958521  0.31469101  1
  O2-  O523  1  0.89325598  0.56457374  0.65314254  1
  O2-  O524  1  0.93788241  0.58745662  1.00864339  1
  O2-  O525  1  0.92013189  0.83383020  0.31781214  1
  O2-  O526  1  0.91075806  0.83171132  0.62131380  1
  O2-  O527  1  0.91328452  0.83518858  0.98551231  1
  O2-  O528  1  0.07633115  0.16648669  0.02247381  1
  O2-  O529  1  0.07126622  0.16402315  0.33784187  1
  O2-  O530  1  0.09103342  0.16863917  0.65187761  1
  O2-  O531  1  0.08484349  0.42776250  0.02335280  1
  O2-  O532  1  0.08616770  0.42231921  0.35407346  1
  O2-  O533  1  0.07658151  0.41286805  0.68574930  1
  O2-  O534  1  0.02761361  0.63281320  0.03012260  1
  O2-  O535  1  0.07989307  0.67101741  0.35382336  1
  O2-  O536  1  0.05590640  0.65648706  0.64701437  1
  O2-  O537  1  0.07731992  0.91325078  0.02475942  1
  O2-  O538  1  0.08316819  0.92058515  0.35714509  1
  O2-  O539  1  0.06940009  0.90571762  0.68062890  1
  O2-  O540  1  0.29800147  0.18056262  0.03046465  1
  O2-  O541  1  0.32434028  0.17518812  0.35687172  1
  O2-  O542  1  0.32095928  0.15182394  0.71165486  1
  O2-  O543  1  0.33719260  0.42176572  0.02117130  1
  O2-  O544  1  0.33366730  0.41526577  0.36135621  1
  O2-  O545  1  0.33761849  0.41975158  0.70032637  1
  O2-  O546  1  0.32547672  0.67454588  0.01521214  1
  O2-  O547  1  0.32562984  0.66432752  0.35418337  1
  O2-  O548  1  0.31656842  0.67943330  0.66779129  1
  O2-  O549  1  0.33168373  0.91610029  0.01508061  1
  O2-  O550  1  0.30389566  0.88098798  0.36499125  1
  O2-  O551  1  0.31512206  0.90400406  0.68060206  1
  O2-  O552  1  0.57797846  0.16451732  0.02465728  1
  O2-  O553  1  0.55475078  0.13535203  0.35172299  1
  O2-  O554  1  0.62385538  0.18974011  0.68693947  1
  O2-  O555  1  0.58228667  0.42800369  0.02692084  1
  O2-  O556  1  0.58400039  0.42897244  0.36365974  1
  O2-  O557  1  0.59483094  0.43087018  0.68323484  1
  O2-  O558  1  0.57632487  0.67172094  0.02939434  1
  O2-  O559  1  0.73921700  0.74583379  0.39762050  1
  O2-  O560  1  0.57502011  0.67215812  0.69415786  1
  O2-  O561  1  0.57498252  0.91458003  0.01930951  1
  O2-  O562  1  0.58187372  0.90786460  0.35058853  1
  O2-  O563  1  0.54280282  0.92398878  0.70016840  1
  O2-  O564  1  0.82527679  0.15046487  0.02489166  1
  O2-  O565  1  0.82624483  0.16650398  0.34171061  1
  O2-  O566  1  0.83702852  0.15865385  0.69476264  1
  O2-  O567  1  0.83775915  0.41884529  0.03476271  1
  O2-  O568  1  0.84784119  0.42613395  0.35040056  1
  O2-  O569  1  0.82201538  0.39070531  0.69577650  1
  O2-  O570  1  0.84075928  0.67015364  0.03012058  1
  O2-  O571  1  0.84695220  0.67340586  0.34846396  1
  O2-  O572  1  0.84733327  0.66349220  0.70733826  1
  O2-  O573  1  0.82732033  0.91216223  0.02376285  1
  O2-  O574  1  0.83821644  0.92368389  0.34866710  1
  O2-  O575  1  0.83852189  0.91253205  0.68560923  1
