# generated using pymatgen
data_H2O
_symmetry_space_group_name_H-M   'P 1'
_cell_length_a   17.99115757
_cell_length_b   17.99334769
_cell_length_c   21.99682314
_cell_angle_alpha   89.99533480
_cell_angle_beta   89.99983654
_cell_angle_gamma   119.99376669
_symmetry_Int_Tables_number   1
_chemical_formula_structural   H2O
_chemical_formula_sum   'H384 O192'
_cell_volume   6167.21298296
_cell_formula_units_Z   192
loop_
 _symmetry_equiv_pos_site_id
 _symmetry_equiv_pos_as_xyz
  1  'x, y, z'
loop_
 _atom_type_symbol
 _atom_type_oxidation_number
  H+  1.0
  O2-  -2.0
loop_
 _atom_site_type_symbol
 _atom_site_label
 _atom_site_symmetry_multiplicity
 _atom_site_fract_x
 _atom_site_fract_y
 _atom_site_fract_z
 _atom_site_occupancy
  H+  H0  1  0.75867763  0.15926531  1.01083176  1
  H+  H1  1  0.64815641  0.54210365  0.65406103  1
  H+  H2  1  0.89313952  0.51195007  0.00546847  1
  H+  H3  1  0.57862266  0.16058755  0.44369451  1
  H+  H4  1  0.05901405  0.15102723  0.37787795  1
  H+  H5  1  0.83470283  0.92308862  0.75105369  1
  H+  H6  1  0.36009997  0.38848652  0.33593515  1
  H+  H7  1  0.22190698  0.85991363  0.16938083  1
  H+  H8  1  0.21444163  0.31429803  0.98814031  1
  H+  H9  1  0.64058160  0.52763285  0.32035731  1
  H+  H10  1  0.62914667  1.02103689  0.83297915  1
  H+  H11  1  0.32632456  0.45211069  0.82403734  1
  H+  H12  1  0.23277389  0.10014038  0.49784644  1
  H+  H13  1  0.86858268  0.74356692  0.67148132  1
  H+  H14  1  0.32013539  0.16431234  0.72668303  1
  H+  H15  1  0.88116875  0.87309119  0.16179289  1
  H+  H16  1  0.49867984  0.87628323  0.82914134  1
  H+  H17  1  0.37543360  0.26394855  0.65839040  1
  H+  H18  1  0.78450194  0.65102038  0.67252917  1
  H+  H19  1  0.11546270  0.39524160  0.15843063  1
  H+  H20  1  0.23455847  0.86460019  0.51369390  1
  H+  H21  1  0.13054638  0.28057048  0.32301152  1
  H+  H22  1  0.12587859  0.87242885  0.51015137  1
  H+  H23  1  0.36508206  0.72864495  0.33425075  1
  H+  H24  1  0.75284564  0.63062443  0.49306148  1
  H+  H25  1  0.43120440  0.20469884  0.78825512  1
  H+  H26  1  0.40691125  0.24182497  0.14629746  1
  H+  H27  1  0.08134698  0.41314825  0.43102686  1
  H+  H28  1  0.20183502  0.84740465  0.00917207  1
  H+  H29  1  0.46831657  0.35207775  0.98769827  1
  H+  H30  1  0.35801096  0.47204189  0.49634998  1
  H+  H31  1  0.63770588  0.02651944  0.98773063  1
  H+  H32  1  0.98092730  0.36879888  0.65213627  1
  H+  H33  1  0.11561557  0.48318124  0.67156851  1
  H+  H34  1  0.86348620  0.21469013  0.82026058  1
  H+  H35  1  0.63401606  0.42846698  0.85347516  1
  H+  H36  1  0.89742827  0.01577438  0.21791241  1
  H+  H37  1  0.49632489  0.63643000  0.31581171  1
  H+  H38  1  0.62691018  1.02232251  0.18241461  1
  H+  H39  1  0.16328146  0.34117885  0.57251987  1
  H+  H40  1  0.92030247  0.11531909  0.57253448  1
  H+  H41  1  0.41608703  0.07457413  0.68899159  1
  H+  H42  1  0.14788477  0.77312387  0.51692547  1
  H+  H43  1  0.91336299  0.27615303  0.99156340  1
  H+  H44  1  0.38700972  0.10773253  0.52165527  1
  H+  H45  1  0.13581279  0.89572821  0.68424173  1
  H+  H46  1  0.33005471  0.32719481  0.84216451  1
  H+  H47  1  0.37504240  0.85357570  0.65263746  1
  H+  H48  1  0.11723791  0.51705980  0.17518879  1
  H+  H49  1  0.46218507  0.86493177  0.16534402  1
  H+  H50  1  0.39630812  0.00880366  0.34681520  1
  H+  H51  1  0.87804883  0.15340988  0.31118408  1
  H+  H52  1  0.16710398  0.08301759  0.83851414  1
  H+  H53  1  0.56478532  0.66606029  0.07000117  1
  H+  H54  1  0.46750964  0.34707993  0.66638712  1
  H+  H55  1  0.59095296  0.11542787  0.99325141  1
  H+  H56  1  1.02808859  0.87515978  0.50265273  1
  H+  H57  1  0.86904900  0.39465939  0.33957606  1
  H+  H58  1  0.27320298  0.63328740  0.66755215  1
  H+  H59  1  0.62484049  0.26337077  0.51116019  1
  H+  H60  1  0.39063395  0.11929012  0.16401681  1
  H+  H61  1  0.64203142  0.26269276  0.84380333  1
  H+  H62  1  0.14105680  0.61731014  0.65686804  1
  H+  H63  1  0.02640721  0.13142455  0.49039762  1
  H+  H64  1  0.63956159  0.77773861  0.32836630  1
  H+  H65  1  0.86689173  0.17219058  0.08058548  1
  H+  H66  1  0.98285951  0.92779548  0.28712333  1
  H+  H67  1  0.35459064  0.38122912  0.49916575  1
  H+  H68  1  0.62230882  0.64081642  0.33510087  1
  H+  H69  1  0.60987633  0.38124877  0.49261139  1
  H+  H70  1  0.34896173  0.37259108  0.00444277  1
  H+  H71  1  -0.01842933  0.85215875  0.16926334  1
  H+  H72  1  0.51940120  0.63419673  0.66911189  1
  H+  H73  1  0.46261522  0.61247989  0.22258939  1
  H+  H74  1  0.68549460  0.87161323  0.17561673  1
  H+  H75  1  0.87356008  0.49113118  0.67023591  1
  H+  H76  1  0.12011908  0.72305580  0.33875654  1
  H+  H77  1  0.36237016  -0.02681783  0.50574167  1
  H+  H78  1  0.65075401  0.60429819  0.79322004  1
  H+  H79  1  0.60666497  0.88730918  0.67714308  1
  H+  H80  1  0.10733399  0.82871265  0.32806208  1
  H+  H81  1  0.86783100  0.86970798  0.33122607  1
  H+  H82  1  0.24983105  0.13060171  0.67005879  1
  H+  H83  1  0.89581546  0.37331675  0.65049646  1
  H+  H84  1  0.87092144  0.98572568  0.01379235  1
  H+  H85  1  0.39698024  0.87290148  0.32164253  1
  H+  H86  1  0.84393530  0.43643011  0.50939210  1
  H+  H87  1  0.12247182  0.61248062  1.00389666  1
  H+  H88  1  1.02430533  0.38412064  0.49223382  1
  H+  H89  1  0.11405998  0.88638776  0.15957432  1
  H+  H90  1  0.89292383  0.26892149  0.50159134  1
  H+  H91  1  0.28374295  0.39809029  0.16211885  1
  H+  H92  1  0.87318301  0.71199501  0.17996961  1
  H+  H93  1  0.46482075  0.09866694  -0.01020461  1
  H+  H94  1  0.86337925  0.64768417  0.49080675  1
  H+  H95  1  0.03757434  0.38772954  0.00205007  1
  H+  H96  1  0.47876901  0.86487710  0.49819568  1
  H+  H97  1  0.62848907  0.61372062  1.00244951  1
  H+  H98  1  0.31389369  0.94609449  0.66594515  1
  H+  H99  1  0.11583120  0.48134486  0.00651161  1
  H+  H100  1  0.89559689  0.52978335  0.33040031  1
  H+  H101  1  0.11524105  0.39461452  0.67080940  1
  H+  H102  1  0.01814181  0.14385866  0.31062425  1
  H+  H103  1  0.35964002  0.97375290  0.00176948  1
  H+  H104  1  0.67702441  0.32755207  1.06577092  1
  H+  H105  1  0.10372717  0.62629865  0.82833393  1
  H+  H106  1  0.59211292  0.36316729  0.75580005  1
  H+  H107  1  0.61614672  0.47241448  0.49311847  1
  H+  H108  1  0.72899204  0.61530750  0.31629396  1
  H+  H109  1  0.88522116  0.28075616  0.31408414  1
  H+  H110  1  0.39362642  0.13211358  0.32426822  1
  H+  H111  1  0.77894539  0.14810998  -0.01489903  1
  H+  H112  1  0.64454916  0.12115197  0.33136485  1
  H+  H113  1  1.03899050  0.65473170  0.49925831  1
  H+  H114  1  0.60401489  0.21152729  0.00915466  1
  H+  H115  1  0.14175452  0.52299496  0.33148607  1
  H+  H116  1  0.22179786  0.36194145  0.65677881  1
  H+  H117  1  0.19250294  0.84254415  0.83082115  1
  H+  H118  1  0.07626522  0.91006384  0.73148323  1
  H+  H119  1  0.64157709  0.36163371  0.33421756  1
  H+  H120  1  0.66017053  0.57742386  0.21612033  1
  H+  H121  1  0.57635539  0.80184237  0.54198858  1
  H+  H122  1  0.37513812  0.23258956  0.49804157  1
  H+  H123  1  0.64554934  0.46233932  0.74330855  1
  H+  H124  1  0.73544380  0.34419334  0.16761736  1
  H+  H125  1  0.71632117  0.34624768  0.50423453  1
  H+  H126  1  0.87637608  0.38353996  0.06123543  1
  H+  H127  1  0.53318974  0.14833708  0.34799942  1
  H+  H128  1  0.14790655  0.12776585  0.98941508  1
  H+  H129  1  0.16936131  0.58670536  0.59634251  1
  H+  H130  1  0.07917145  0.22309508  0.02069344  1
  H+  H131  1  0.97189080  0.85554876  0.98384616  1
  H+  H132  1  0.60574188  0.72552724  0.68079749  1
  H+  H133  1  0.37439428  0.09776602  0.98898051  1
  H+  H134  1  -0.00392116  0.84770292  0.33249829  1
  H+  H135  1  0.27981299  0.63651601  0.33599825  1
  H+  H136  1  0.02125454  0.39152626  0.33555397  1
  H+  H137  1  0.66745780  0.83474287  0.94982320  1
  H+  H138  1  0.72077084  0.87303165  0.68550140  1
  H+  H139  1  0.64111176  0.23199208  0.66877153  1
  H+  H140  1  0.52139674  0.13023385  0.15130229  1
  H+  H141  1  0.23518273  0.36327095  0.81639567  1
  H+  H142  1  0.69509271  0.85075712  0.84433807  1
  H+  H143  1  -0.01379540  0.60887427  0.83022750  1
  H+  H144  1  0.87192296  0.72536794  0.33890721  1
  H+  H145  1  0.98756419  0.62963422  0.65884444  1
  H+  H146  1  0.50469234  0.14828593  0.81800270  1
  H+  H147  1  0.84178870  0.16763552  0.42099846  1
  H+  H148  1  0.56943458  0.71681949  0.16955230  1
  H+  H149  1  0.23329759  0.13714761  0.14737527  1
  H+  H150  1  0.92375686  0.88805651  0.49443189  1
  H+  H151  1  -0.01403226  0.61738273  0.33106006  1
  H+  H152  1  0.40404703  0.83395920  0.22462801  1
  H+  H153  1  0.14776190  0.57385254  0.23711763  1
  H+  H154  1  0.09978921  0.83644124  0.82965738  1
  H+  H155  1  0.33957477  0.95780879  0.81978371  1
  H+  H156  1  0.89998308  0.13480105  0.50646897  1
  H+  H157  1  0.63586140  0.11277424  0.16986001  1
  H+  H158  1  0.14383308  0.28587132  0.17854958  1
  H+  H159  1  0.78988938  0.86525702  0.16597921  1
  H+  H160  1  0.42563319  0.35730039  0.84148357  1
  H+  H161  1  0.22306756  0.36681992  0.32916070  1
  H+  H162  1  0.89999231  0.35564210  0.98075913  1
  H+  H163  1  0.51651557  0.61223689  0.49325030  1
  H+  H164  1  0.35882313  0.97683388  0.15149552  1
  H+  H165  1  0.79520893  0.37213196  1.01915344  1
  H+  H166  1  1.01570084  0.37901701  0.82258149  1
  H+  H167  1  0.62038101  0.98536982  0.32869728  1
  H+  H168  1  0.52393674  0.88524690  0.01798981  1
  H+  H169  1  0.90479289  1.00304937  0.83848531  1
  H+  H170  1  0.90866484  0.56201287  0.50846423  1
  H+  H171  1  0.62069888  0.89473338  0.33075830  1
  H+  H172  1  0.66555750  0.41260620  0.85441891  1
  H+  H173  1  0.84902337  0.98919543  0.69995709  1
  H+  H174  1  0.60734020  0.84834419  0.84817394  1
  H+  H175  1  0.48109418  0.86742841  0.31408575  1
  H+  H176  1  0.33947124  0.66480612  0.42683093  1
  H+  H177  1  0.84212358  0.90829731  0.85959922  1
  H+  H178  1  0.38558685  0.52000386  0.65855985  1
  H+  H179  1  0.95528059  0.10887923  0.01087165  1
  H+  H180  1  0.31800486  0.40814322  0.73041120  1
  H+  H181  1  0.85864481  0.36044101  0.49371125  1
  H+  H182  1  0.52956056  0.39502038  0.33158591  1
  H+  H183  1  0.57179289  0.14563800  0.08864572  1
  H+  H184  1  0.23764388  0.09802718  0.15166906  1
  H+  H185  1  0.12839946  0.73032564  0.68227027  1
  H+  H186  1  0.11392060  0.76033025  0.01705278  1
  H+  H187  1  0.96011377  0.14774038  0.70138136  1
  H+  H188  1  0.13459027  0.37382649  0.50505979  1
  H+  H189  1  0.25533444  0.62953772  0.00657604  1
  H+  H190  1  0.06666465  0.59635595  0.18320776  1
  H+  H191  1  0.60085152  0.70028633  0.50271599  1
  H+  H192  1  0.61962205  0.99201318  0.66195182  1
  H+  H193  1  0.08783026  -0.00217829  0.18629119  1
  H+  H194  1  0.52446344  0.64930048  0.00399345  1
  H+  H195  1  0.57948207  0.87434678  0.17663094  1
  H+  H196  1  0.38883118  0.60948248  0.50111873  1
  H+  H197  1  0.94202162  0.88705371  0.82182694  1
  H+  H198  1  0.94263637  0.82787789  0.91656285  1
  H+  H199  1  0.51743974  0.50584117  0.82255787  1
  H+  H200  1  0.62380782  0.23302359  0.35573856  1
  H+  H201  1  0.64017095  0.61256097  0.50040169  1
  H+  H202  1  0.34548609  0.87168655  1.00186231  1
  H+  H203  1  0.37756626  0.48134294  0.15359524  1
  H+  H204  1  0.52003040  0.12668308  0.50525509  1
  H+  H205  1  0.89369532  0.99309871  0.49282406  1
  H+  H206  1  0.65056914  0.36155249  0.66489933  1
  H+  H207  1  0.89447525  0.11650807  0.85032820  1
  H+  H208  1  0.86660832  0.71691783  -0.00769404  1
  H+  H209  1  0.73681484  0.91167960  0.46881978  1
  H+  H210  1  0.36620785  0.72149675  0.48759310  1
  H+  H211  1  0.64077269  0.77413902  0.00816886  1
  H+  H212  1  0.36045073  0.21555296  -0.00117982  1
  H+  H213  1  0.39647109  0.28798383  0.31759588  1
  H+  H214  1  0.55816412  0.14391971  0.65809513  1
  H+  H215  1  0.36503560  0.59385067  0.83614952  1
  H+  H216  1  0.86373768  0.35629002  0.16451059  1
  H+  H217  1  0.10874745  0.38725413  0.33860386  1
  H+  H218  1  0.39085436  0.62977139  0.98687564  1
  H+  H219  1  0.22923996  0.37169823  0.50895516  1
  H+  H220  1  0.12608353  0.51681856  0.84237592  1
  H+  H221  1  0.89314233  0.61397154  0.82938783  1
  H+  H222  1  0.39669625  0.31769245  0.93391109  1
  H+  H223  1  0.73831317  0.87109950  0.46136990  1
  H+  H224  1  0.88837882  0.34764704  0.26355733  1
  H+  H225  1  0.59085309  0.70299361  0.83096637  1
  H+  H226  1  0.07564306  0.16159312  0.70127574  1
  H+  H227  1  0.88540770  0.59807851  0.00156922  1
  H+  H228  1  0.88612630  0.51559370  0.83226389  1
  H+  H229  1  0.77750717  0.63465943  0.00705341  1
  H+  H230  1  0.01786630  0.16287490  0.19268888  1
  H+  H231  1  0.87567673  0.87448434  0.66579289  1
  H+  H232  1  0.40651047  0.63431959  0.30861441  1
  H+  H233  1  0.36103167  0.88546605  0.15233414  1
  H+  H234  1  0.88775525  0.35250256  0.83380552  1
  H+  H235  1  0.78722721  0.39958570  0.66784596  1
  H+  H236  1  0.77927716  0.88407187  0.01982533  1
  H+  H237  1  0.38833842  0.17877087  0.44670399  1
  H+  H238  1  0.12233227  0.28145853  0.66266199  1
  H+  H239  1  0.16234989  0.16330358  0.30714639  1
  H+  H240  1  0.97059881  1.01553972  0.45243647  1
  H+  H241  1  0.99316679  0.14338997  0.85253270  1
  H+  H242  1  0.37256185  0.09383526  0.83792650  1
  H+  H243  1  0.62417316  0.90554052  0.46757863  1
  H+  H244  1  0.51475166  0.89015104  0.66622796  1
  H+  H245  1  0.38880061  0.86123749  0.50472161  1
  H+  H246  1  0.14481954  0.61292107  0.33262856  1
  H+  H247  1  0.21024986  0.86583502  0.32754875  1
  H+  H248  1  0.12129475  1.01156660  0.36812426  1
  H+  H249  1  0.82586302  0.06846116  0.16295575  1
  H+  H250  1  0.07720962  0.08154586  0.19013994  1
  H+  H251  1  0.40109753  0.66159999  0.14047934  1
  H+  H252  1  0.07965310  0.01027323  0.37435088  1
  H+  H253  1  0.73143654  0.36415825  0.33689291  1
  H+  H254  1  0.63886037  0.02598234  0.50014985  1
  H+  H255  1  0.65520889  0.10829937  0.66007249  1
  H+  H256  1  0.13894746  0.52398179  0.50080242  1
  H+  H257  1  0.41661347  0.59020458  0.93156194  1
  H+  H258  1  0.10358929  0.11223704  0.47835150  1
  H+  H259  1  0.36316691  0.72022394  0.67041569  1
  H+  H260  1  0.34452331  0.09364288  0.66559630  1
  H+  H261  1  0.72164955  1.00244007  0.07887434  1
  H+  H262  1  0.89547188  0.73395861  0.81774489  1
  H+  H263  1  0.50611577  0.90748825  1.03729772  1
  H+  H264  1  0.09971649  -0.01612932  0.84668135  1
  H+  H265  1  0.60452155  0.46863341  0.99924767  1
  H+  H266  1  0.63941924  0.62467580  0.65407815  1
  H+  H267  1  0.36476412  0.22673425  0.81956107  1
  H+  H268  1  0.39359674  0.36435127  0.16537667  1
  H+  H269  1  0.35707053  0.38339567  0.67343574  1
  H+  H270  1  0.27801597  0.16283867  0.31433030  1
  H+  H271  1  0.09913340  0.87941432  0.01362203  1
  H+  H272  1  0.45037131  0.58838631  0.83413223  1
  H+  H273  1  0.09754493  0.71668615  0.82382562  1
  H+  H274  1  0.38223455  0.81554456  0.89204716  1
  H+  H275  1  0.47624401  0.36484368  0.50661413  1
  H+  H276  1  0.63883369  0.11315850  0.51068834  1
  H+  H277  1  0.73241280  0.85865159  0.32823345  1
  H+  H278  1  0.34671152  0.74957669  0.98976668  1
  H+  H279  1  0.22965626  0.61132852  0.49923993  1
  H+  H280  1  0.87679921  0.62555068  0.17229989  1
  H+  H281  1  0.77914945  0.13777651  0.47972832  1
  H+  H282  1  0.34774547  0.71455371  0.82357783  1
  H+  H283  1  1.00935252  0.62263242  1.02086190  1
  H+  H284  1  0.83971223  0.41914715  0.76444525  1
  H+  H285  1  0.62125538  0.47915596  0.15012839  1
  H+  H286  1  0.78507743  0.37801944  0.82673876  1
  H+  H287  1  0.12992266  0.00682271  0.65538791  1
  H+  H288  1  0.64440794  0.26483200  0.14961440  1
  H+  H289  1  0.92769145  0.83432903  0.23119448  1
  H+  H290  1  0.41791011  0.33265110  0.56695296  1
  H+  H291  1  0.42655598  0.09896771  0.26898702  1
  H+  H292  1  0.36030238  0.84739326  0.83052553  1
  H+  H293  1  0.30251530  0.89568758  0.76118935  1
  H+  H294  1  0.60130338  0.92730055  0.11428803  1
  H+  H295  1  0.56524801  0.18532984  0.76021216  1
  H+  H296  1  0.68213674  0.59595079  0.56185215  1
  H+  H297  1  0.45145994  0.98146088  0.38424072  1
  H+  H298  1  0.87285033  0.63783534  0.33863037  1
  H+  H299  1  0.07797997  0.91434182  0.10065400  1
  H+  H300  1  0.09390347  0.67185043  0.40168549  1
  H+  H301  1  0.63722040  0.06414923  0.92059322  1
  H+  H302  1  0.32319323  0.04347311  0.20710070  1
  H+  H303  1  0.10355872  0.97176008  0.01122027  1
  H+  H304  1  0.41460597  0.57952014  0.56335763  1
  H+  H305  1  0.75389637  0.09205290  0.15264869  1
  H+  H306  1  0.84811329  0.91037569  0.38936509  1
  H+  H307  1  0.16444168  0.10392168  0.25622252  1
  H+  H308  1  0.19827324  0.84051031  0.61263321  1
  H+  H309  1  0.84378800  0.91580049  0.08192827  1
  H+  H310  1  0.33417931  0.91651929  0.07303413  1
  H+  H311  1  0.72117698  0.10434840  0.83540315  1
  H+  H312  1  0.85002503  0.14438988  0.76964936  1
  H+  H313  1  0.15049637  0.27960917  0.93160124  1
  H+  H314  1  0.36342272  0.72214060  0.15196517  1
  H+  H315  1  0.05103889  0.17509718  0.12294829  1
  H+  H316  1  0.10889432  0.08088880  0.63797417  1
  H+  H317  1  0.07484007  0.22141249  0.76631289  1
  H+  H318  1  0.64076325  0.35614627  1.01111035  1
  H+  H319  1  0.91292814  0.85258341  0.60676479  1
  H+  H320  1  0.34128242  0.92579352  0.44175319  1
  H+  H321  1  0.12702729  0.96796154  0.49769999  1
  H+  H322  1  0.08279833  0.65979326  0.73406581  1
  H+  H323  1  0.89934400  0.63332453  0.65892109  1
  H+  H324  1  0.74053271  0.61007851  0.79558786  1
  H+  H325  1  0.66243662  0.83249789  0.62514063  1
  H+  H326  1  0.42731415  0.34682074  0.25882485  1
  H+  H327  1  0.92049693  0.33071458  0.56293946  1
  H+  H328  1  0.48610407  0.37088830  0.16538211  1
  H+  H329  1  0.67286614  0.82596650  0.24014034  1
  H+  H330  1  0.94233405  0.58225526  0.23534041  1
  H+  H331  1  0.15171490  0.06812335  0.93862579  1
  H+  H332  1  0.83072709  0.66638179  0.42429819  1
  H+  H333  1  0.37460091  0.17787320  0.08791460  1
  H+  H334  1  0.91754674  0.31758345  0.89118531  1
  H+  H335  1  0.58895083  0.66258697  0.39663026  1
  H+  H336  1  0.56758323  0.65599058  0.76637659  1
  H+  H337  1  0.10424823  0.33806443  0.82966067  1
  H+  H338  1  0.78578086  0.14137256  0.32712232  1
  H+  H339  1  0.66066439  0.59387592  0.94126002  1
  H+  H340  1  0.05730427  0.86733218  0.39399447  1
  H+  H341  1  0.17008335  0.06963876  0.55638614  1
  H+  H342  1  0.67128048  0.33466729  0.59926463  1
  H+  H343  1  -0.00713373  0.21551807  0.05365672  1
  H+  H344  1  0.69304111  0.29920147  0.90548896  1
  H+  H345  1  0.91602929  0.07079320  0.94401713  1
  H+  H346  1  0.40409796  0.06906550  0.58166120  1
  H+  H347  1  0.90780404  0.27635844  0.08660872  1
  H+  H348  1  0.86881822  0.43505787  0.20181628  1
  H+  H349  1  0.85939885  0.67705955  0.75887952  1
  H+  H350  1  0.66821478  0.07016865  0.59554633  1
  H+  H351  1  0.40129648  0.06129404  0.89602315  1
  H+  H352  1  0.12178564  0.64143650  0.49695736  1
  H+  H353  1  0.31547621  0.17654450  0.38194074  1
  H+  H354  1  0.32116443  0.65445520  0.76510435  1
  H+  H355  1  0.66894467  0.09411552  0.26740545  1
  H+  H356  1  0.15062196  0.58785383  0.93964945  1
  H+  H357  1  0.92859225  0.61365743  0.57091457  1
  H+  H358  1  0.27027826  0.12785603  0.00492425  1
  H+  H359  1  0.56100781  0.90600169  0.77201333  1
  H+  H360  1  0.17535360  0.34993541  0.23391128  1
  H+  H361  1  0.05904254  0.64489960  0.08441887  1
  H+  H362  1  0.16412925  0.83172409  0.22926968  1
  H+  H363  1  0.41753628  0.83336986  0.59565405  1
  H+  H364  1  0.09450451  0.42574637  0.09570195  1
  H+  H365  1  0.32638287  0.40667492  0.39786913  1
  H+  H366  1  0.21396799  0.60525205  0.84058443  1
  H+  H367  1  0.53543012  0.45095306  0.77588449  1
  H+  H368  1  0.58358841  0.42153495  0.39321758  1
  H+  H369  1  0.67202371  0.91768927  0.03569226  1
  H+  H370  1  0.96577279  0.38473284  0.12266123  1
  H+  H371  1  0.31663620  0.40529678  0.05843777  1
  H+  H372  1  0.58129020  0.92676497  0.41452672  1
  H+  H373  1  0.89677705  0.78762183  0.49781003  1
  H+  H374  1  0.67217895  0.83648535  0.52180871  1
  H+  H375  1  0.73410165  0.60022571  0.17040956  1
  H+  H376  1  0.07968150  0.41706584  0.76524556  1
  H+  H377  1  0.83975920  0.41845821  0.40164730  1
  H+  H378  1  0.80448682  0.10438383  0.65002899  1
  H+  H379  1  0.43338995  0.83872789  0.97949395  1
  H+  H380  1  0.57582303  0.41181808  0.05858806  1
  H+  H381  1  0.61876031  0.38783253  0.14598511  1
  H+  H382  1  0.38521841  0.60868622  0.65746311  1
  H+  H383  1  0.32722424  0.66411667  0.06134591  1
  O2-  O384  1  0.06762507  0.17455544  0.16636607  1
  O2-  O385  1  0.05928083  0.12076476  0.45853439  1
  O2-  O386  1  0.08330093  0.21793026  0.81612076  1
  O2-  O387  1  0.08740083  0.42597003  0.14125220  1
  O2-  O388  1  0.08535999  0.41503978  0.47712758  1
  O2-  O389  1  0.07828974  0.41144383  0.81062388  1
  O2-  O390  1  0.02739983  0.62304746  0.16937514  1
  O2-  O391  1  0.09883525  0.68013483  0.48455547  1
  O2-  O392  1  0.07034353  0.65190803  0.80948523  1
  O2-  O393  1  0.07993844  0.91402121  0.14637676  1
  O2-  O394  1  0.09358728  0.90227323  0.49097064  1
  O2-  O395  1  0.05359448  0.89263199  0.80851822  1
  O2-  O396  1  0.40751661  0.19177711  0.12674838  1
  O2-  O397  1  0.35266227  0.17179826  0.48217636  1
  O2-  O398  1  0.36916640  0.18129055  0.79472813  1
  O2-  O399  1  0.34158851  0.42034802  0.14286867  1
  O2-  O400  1  0.32233041  0.40978416  0.48516336  1
  O2-  O401  1  0.29745862  0.39386851  0.80485299  1
  O2-  O402  1  0.35037435  0.66717336  0.13321578  1
  O2-  O403  1  0.33702700  0.66139583  0.47284309  1
  O2-  O404  1  0.31833737  0.65313603  0.81032951  1
  O2-  O405  1  0.33443630  0.91836851  0.13222881  1
  O2-  O406  1  0.33312726  0.91480419  0.48631436  1
  O2-  O407  1  0.30639000  0.89669475  0.80598327  1
  O2-  O408  1  0.57861298  0.15123267  0.13459494  1
  O2-  O409  1  0.57990607  0.15937876  0.48983432  1
  O2-  O410  1  0.54250825  0.20205947  0.79527539  1
  O2-  O411  1  0.58588012  0.41653488  0.13525241  1
  O2-  O412  1  0.58029454  0.41299377  0.47885641  1
  O2-  O413  1  0.50457874  0.44757811  0.81313102  1
  O2-  O414  1  0.51847993  0.67793949  0.14434627  1
  O2-  O415  1  0.57954351  0.64454662  0.48189068  1
  O2-  O416  1  0.56562593  0.64591618  0.81111927  1
  O2-  O417  1  0.56900423  0.91540836  0.15476894  1
  O2-  O418  1  0.58316258  0.92534046  0.46118170  1
  O2-  O419  1  0.56065249  0.90314599  0.81655892  1
  O2-  O420  1  0.79346058  0.07799645  0.13029636  1
  O2-  O421  1  0.83972107  0.16931487  0.46644237  1
  O2-  O422  1  0.83484240  0.15141244  0.81161178  1
  O2-  O423  1  0.83797604  0.37206328  0.20319506  1
  O2-  O424  1  0.82212467  0.38778477  0.48188400  1
  O2-  O425  1  0.84309776  0.41969278  0.80978597  1
  O2-  O426  1  0.83975197  0.64840183  0.18452363  1
  O2-  O427  1  0.82608016  0.66871526  0.47166542  1
  O2-  O428  1  0.85914617  0.67314693  0.80442362  1
  O2-  O429  1  0.84760139  0.90411049  0.14992982  1
  O2-  O430  1  0.91437838  0.96499065  0.46445284  1
  O2-  O431  1  0.87721109  0.94052361  0.82497644  1
  O2-  O432  1  0.08313663  0.03859071  0.21469119  1
  O2-  O433  1  0.17214732  0.06561696  0.51079007  1
  O2-  O434  1  0.12627552  0.04207321  0.86728444  1
  O2-  O435  1  0.17853552  0.34818797  0.18862066  1
  O2-  O436  1  0.16681912  0.34523779  0.52452949  1
  O2-  O437  1  0.13311915  0.30413569  0.84270646  1
  O2-  O438  1  0.13123247  0.57378593  0.19412983  1
  O2-  O439  1  0.16999816  0.58441698  0.51596045  1
  O2-  O440  1  0.15390609  0.57779829  0.85628802  1
  O2-  O441  1  0.16324310  0.83662846  0.18441218  1
  O2-  O442  1  0.17621394  0.83403043  0.53362426  1
  O2-  O443  1  0.13147888  0.80526831  0.84127702  1
  O2-  O444  1  0.38109681  0.06568904  0.19095937  1
  O2-  O445  1  0.41276548  0.07345165  0.53674910  1
  O2-  O446  1  0.40039318  0.06067586  0.85047187  1
  O2-  O447  1  0.42572579  0.33622873  0.18122466  1
  O2-  O448  1  0.41545559  0.33196620  0.52160260  1
  O2-  O449  1  0.37034748  0.30753947  0.85598362  1
  O2-  O450  1  0.47306318  0.59697499  0.17872206  1
  O2-  O451  1  0.41674474  0.57734319  0.51780359  1
  O2-  O452  1  0.39059193  0.55827444  0.84939038  1
  O2-  O453  1  0.40094008  0.83398595  0.17914403  1
  O2-  O454  1  0.42160593  0.83255060  0.51793300  1
  O2-  O455  1  0.39304165  0.82024533  0.84731064  1
  O2-  O456  1  0.66410692  0.08439251  0.19140550  1
  O2-  O457  1  0.66982934  0.08163760  0.52224261  1
  O2-  O458  1  0.66044176  0.08093614  0.84733026  1
  O2-  O459  1  0.68082207  0.32783920  0.14536879  1
  O2-  O460  1  0.65827341  0.32593996  0.52226655  1
  O2-  O461  1  0.69978486  0.29691304  0.86171139  1
  O2-  O462  1  0.67001299  0.57362884  0.17245992  1
  O2-  O463  1  0.68230391  0.59283356  0.51559993  1
  O2-  O464  1  0.68307082  0.57800233  0.77662259  1
  O2-  O465  1  0.66878650  0.81626316  0.19412415  1
  O2-  O466  1  0.62624539  0.79475813  0.54870857  1
  O2-  O467  1  0.63875277  0.81884945  0.86336416  1
  O2-  O468  1  0.86774577  0.04502755  0.23397610  1
  O2-  O469  1  0.93185054  0.11148863  0.52923208  1
  O2-  O470  1  0.93460258  0.09732343  0.86626704  1
  O2-  O471  1  0.90506297  0.34819682  0.11147434  1
  O2-  O472  1  0.92094638  0.32958553  0.51610652  1
  O2-  O473  1  0.91510009  0.31826525  0.84483485  1
  O2-  O474  1  0.94002693  0.56525505  0.19160647  1
  O2-  O475  1  0.92956739  0.61973445  0.52405768  1
  O2-  O476  1  0.92002617  0.57886922  0.84483890  1
  O2-  O477  1  0.92094549  0.82154527  0.18534737  1
  O2-  O478  1  0.93684696  0.84484789  0.51457046  1
  O2-  O479  1  0.96291579  0.84644690  0.83051793  1
  O2-  O480  1  0.20354233  0.15266955  0.28414256  1
  O2-  O481  1  0.15295654  0.06504468  0.63244714  1
  O2-  O482  1  0.16385584  0.08358188  0.98307800  1
  O2-  O483  1  0.16273988  0.34296513  0.31288319  1
  O2-  O484  1  0.16262547  0.33699121  0.63934286  1
  O2-  O485  1  0.16157514  0.26265582  0.97147353  1
  O2-  O486  1  0.17531303  0.58342095  0.31653063  1
  O2-  O487  1  0.17162663  0.58737183  0.64168960  1
  O2-  O488  1  0.15583957  0.58741326  0.98444774  1
  O2-  O489  1  0.15719468  0.82182006  0.30920924  1
  O2-  O490  1  0.19992988  0.84252676  0.65842122  1
  O2-  O491  1  0.14092651  0.81938435  0.99926932  1
  O2-  O492  1  0.42870877  0.10436352  0.31391724  1
  O2-  O493  1  0.37194587  0.05665021  0.65771697  1
  O2-  O494  1  0.40327270  0.06422053  0.97540098  1
  O2-  O495  1  0.42817988  0.34900893  0.30455777  1
  O2-  O496  1  0.41215495  0.32572016  0.64608843  1
  O2-  O497  1  0.40546541  0.31777167  0.97855812  1
  O2-  O498  1  0.44581169  0.61818836  0.28886448  1
  O2-  O499  1  0.41716602  0.57996620  0.64199063  1
  O2-  O500  1  0.43706330  0.62076785  0.97057343  1
  O2-  O501  1  0.41912150  0.83833209  0.30223565  1
  O2-  O502  1  0.41679820  0.83517586  0.64134437  1
  O2-  O503  1  0.37191239  0.81151747  0.97035649  1
  O2-  O504  1  0.67203474  0.09019403  0.31289496  1
  O2-  O505  1  0.66947335  0.06550560  0.64203036  1
  O2-  O506  1  0.60873728  0.04844145  0.96174671  1
  O2-  O507  1  0.66906942  0.32601290  0.32947596  1
  O2-  O508  1  0.67958498  0.33398269  0.64455063  1
  O2-  O509  1  0.67012729  0.32283132  1.02041856  1
  O2-  O510  1  0.66779272  0.58806329  0.30508594  1
  O2-  O511  1  0.67336292  0.59912915  0.63595878  1
  O2-  O512  1  0.65631482  0.58219608  0.98467804  1
  O2-  O513  1  0.67152419  0.83803466  0.31264108  1
  O2-  O514  1  0.65949863  0.84033268  0.66946005  1
  O2-  O515  1  0.67769814  0.83563418  0.99400785  1
  O2-  O516  1  0.93769215  0.12909388  0.25566137  1
  O2-  O517  1  0.89187180  0.10643036  0.70249036  1
  O2-  O518  1  0.90368283  0.06179298  0.98839209  1
  O2-  O519  1  0.91168361  0.34292579  0.30404745  1
  O2-  O520  1  0.92273426  0.34156040  0.63349994  1
  O2-  O521  1  0.92894676  0.32469880  0.96293499  1
  O2-  O522  1  0.92633793  0.59000661  0.31415601  1
  O2-  O523  1  0.92799961  0.60220684  0.64145848  1
  O2-  O524  1  0.92157062  0.57221070  0.99097445  1
  O2-  O525  1  0.94440054  0.86790518  0.29863547  1
  O2-  O526  1  0.90187122  0.84124938  0.65031157  1
  O2-  O527  1  0.92024619  0.82132334  0.95814246  1
  O2-  O528  1  0.02945371  0.18739067  0.04848104  1
  O2-  O529  1  0.07194146  0.17078667  0.33537993  1
  O2-  O530  1  0.05656390  0.20337035  0.70516230  1
  O2-  O531  1  0.09477042  0.42174527  0.02077906  1
  O2-  O532  1  0.07820901  0.41711955  0.35587088  1
  O2-  O533  1  0.08392236  0.42295836  0.68688387  1
  O2-  O534  1  0.06989064  0.65501916  0.04035871  1
  O2-  O535  1  0.09045857  0.66395132  0.35700507  1
  O2-  O536  1  0.08912267  0.66808029  0.68855223  1
  O2-  O537  1  0.06917662  0.91213091  0.02606695  1
  O2-  O538  1  0.03366989  0.82734818  0.36018627  1
  O2-  O539  1  0.10158833  0.92402510  0.68941437  1
  O2-  O540  1  0.33306796  0.15456617  0.01426935  1
  O2-  O541  1  0.33435036  0.17825708  0.34017202  1
  O2-  O542  1  0.31201474  0.15980784  0.68123635  1
  O2-  O543  1  0.30918753  0.39386265  0.01427671  1
  O2-  O544  1  0.32198688  0.40803721  0.35343913  1
  O2-  O545  1  0.32685002  0.41460012  0.68485878  1
  O2-  O546  1  0.31885633  0.66423873  0.01575023  1
  O2-  O547  1  0.34118169  0.66967606  0.35047357  1
  O2-  O548  1  0.33327921  0.65995738  0.68434546  1
  O2-  O549  1  0.32860519  0.91313474  0.02184583  1
  O2-  O550  1  0.39270715  0.95823649  0.36955889  1
  O2-  O551  1  0.29189798  0.88364254  0.67487859  1
  O2-  O552  1  0.56584110  0.14836055  0.01513059  1
  O2-  O553  1  0.58935494  0.16943178  0.36854303  1
  O2-  O554  1  0.61020118  0.17018381  0.68277005  1
  O2-  O555  1  0.57538615  0.40776866  0.01284588  1
  O2-  O556  1  0.58963735  0.42395902  0.34854898  1
  O2-  O557  1  0.60511282  0.40633963  0.72419321  1
  O2-  O558  1  0.58123628  0.67126386  0.02662852  1
  O2-  O559  1  0.59364258  0.67223338  0.35241117  1
  O2-  O560  1  0.57933610  0.66258311  0.68637757  1
  O2-  O561  1  0.66657024  0.96280992  0.05791571  1
  O2-  O562  1  0.58672968  0.92336838  0.34226268  1
  O2-  O563  1  0.57600316  0.92236395  0.68304427  1
  O2-  O564  1  0.91059192  0.22655000  0.06210347  1
  O2-  O565  1  0.84724259  0.17314129  0.33931204  1
  O2-  O566  1  0.86631020  0.12689202  0.64379697  1
  O2-  O567  1  0.85813039  0.40272339  0.02124990  1
  O2-  O568  1  0.84199248  0.42732309  0.35722855  1
  O2-  O569  1  0.84599441  0.43111162  0.68535535  1
  O2-  O570  1  0.83939587  0.66107185  0.01426355  1
  O2-  O571  1  0.84047837  0.66660207  0.35484776  1
  O2-  O572  1  0.84586321  0.68141918  0.68374668  1
  O2-  O573  1  0.83988468  0.92015565  0.03483714  1
  O2-  O574  1  0.81961632  0.87067955  0.35564110  1
  O2-  O575  1  0.82205473  0.92637083  0.70725546  1
