# generated using pymatgen
data_H2O
_symmetry_space_group_name_H-M   'P 1'
_cell_length_a   17.98606971
_cell_length_b   17.98504825
_cell_length_c   21.99855896
_cell_angle_alpha   90.00533723
_cell_angle_beta   89.97316203
_cell_angle_gamma   119.99569520
_symmetry_Int_Tables_number   1
_chemical_formula_structural   H2O
_chemical_formula_sum   'H384 O192'
_cell_volume   6162.99092198
_cell_formula_units_Z   192
loop_
 _symmetry_equiv_pos_site_id
 _symmetry_equiv_pos_as_xyz
  1  'x, y, z'
loop_
 _atom_type_symbol
 _atom_type_oxidation_number
  H+  1.0
  O2-  -2.0
loop_
 _atom_site_type_symbol
 _atom_site_label
 _atom_site_symmetry_multiplicity
 _atom_site_fract_x
 _atom_site_fract_y
 _atom_site_fract_z
 _atom_site_occupancy
  H+  H0  1  0.98157183  0.60596486  0.50384889  1
  H+  H1  1  0.85050464  0.51344022  0.17562219  1
  H+  H2  1  0.57637730  -0.00264996  0.52227599  1
  H+  H3  1  0.77634804  0.39095074  0.99743676  1
  H+  H4  1  0.39731248  0.10230634  0.17554089  1
  H+  H5  1  0.98968711  0.23072040  0.50418853  1
  H+  H6  1  0.39681975  0.26609298  0.83800504  1
  H+  H7  1  0.29030000  0.13814810  0.01046926  1
  H+  H8  1  0.45741103  0.40796054  0.34509144  1
  H+  H9  1  0.33578750  0.91404904  0.43364361  1
  H+  H10  1  0.85282370  0.62978290  0.15883969  1
  H+  H11  1  0.39596084  0.37508735  0.50297573  1
  H+  H12  1  0.39099733  0.56677149  0.90373095  1
  H+  H13  1  -0.02417351  0.11426430  0.65992651  1
  H+  H14  1  0.62374380  0.23452702  -0.00985579  1
  H+  H15  1  0.37101807  0.88304604  0.15884165  1
  H+  H16  1  0.98883768  0.36529268  0.83359442  1
  H+  H17  1  0.38162467  0.40307137  0.17543490  1
  H+  H18  1  0.21281571  1.06039989  0.34224316  1
  H+  H19  1  0.85837032  0.88595734  0.82885145  1
  H+  H20  1  0.35340249  0.62959540  0.15788650  1
  H+  H21  1  0.51916863  0.88529618  0.00559135  1
  H+  H22  1  0.91864286  0.11010263  0.33635002  1
  H+  H23  1  0.76398316  0.61994578  0.68034608  1
  H+  H24  1  0.06262627  0.69215572  0.67557686  1
  H+  H25  1  0.36350243  0.37502181  0.01004306  1
  H+  H26  1  0.12261877  0.85027357  0.52528942  1
  H+  H27  1  0.92360463  0.57976651  0.56390706  1
  H+  H28  1  0.49491286  0.63637263  -0.01322250  1
  H+  H29  1  0.16331325  0.28624438  0.31959442  1
  H+  H30  1  0.99902571  0.93706307  0.27035921  1
  H+  H31  1  0.96888742  0.11103135  0.18246401  1
  H+  H32  1  0.84581991  0.20656174  0.18777929  1
  H+  H33  1  0.62079009  0.73066242  0.67469345  1
  H+  H34  1  0.98333132  0.87679654  0.14973388  1
  H+  H35  1  0.91491864  0.80965782  0.79536899  1
  H+  H36  1  -0.00030933  0.65652295  0.82841686  1
  H+  H37  1  0.27243997  0.14908754  0.66865001  1
  H+  H38  1  0.62124819  0.48391622  0.81856478  1
  H+  H39  1  0.61153877  0.95761168  0.67658659  1
  H+  H40  1  0.67517141  0.13490075  0.31366112  1
  H+  H41  1  0.33977041  -0.03894803  0.66673443  1
  H+  H42  1  0.87355940  0.58636930  0.32612732  1
  H+  H43  1  0.15964721  0.83824347  0.33037826  1
  H+  H44  1  0.83745439  0.99531174  0.68559402  1
  H+  H45  1  0.54737141  0.15828283  0.15563647  1
  H+  H46  1  0.12559151  0.53159663  0.98984979  1
  H+  H47  1  0.84390612  0.26439454  0.65656807  1
  H+  H48  1  0.87207884  0.47531214  0.48614000  1
  H+  H49  1  1.00895669  0.37244194  0.32464070  1
  H+  H50  1  0.87559796  0.72127682  0.48913968  1
  H+  H51  1  0.64215490  0.64812471  0.82200372  1
  H+  H52  1  0.71271678  0.86924590  0.66635286  1
  H+  H53  1  0.10539929  0.38272213  0.33145128  1
  H+  H54  1  0.12352761  0.27333703  0.99997185  1
  H+  H55  1  0.83946437  0.35336975  0.66010894  1
  H+  H56  1  0.37457371  0.00653356  0.84917604  1
  H+  H57  1  0.63614166  0.10404237  0.15965251  1
  H+  H58  1  0.10371281  0.62549237  0.34481422  1
  H+  H59  1  0.51543330  0.87307954  0.16001259  1
  H+  H60  1  0.34199473  0.62073226  0.83457234  1
  H+  H61  1  0.09013738  0.58423317  0.65756973  1
  H+  H62  1  0.61965404  0.48558652  0.48835244  1
  H+  H63  1  0.38154148  0.27560134  0.66044866  1
  H+  H64  1  0.38538763  0.52468688  0.17460321  1
  H+  H65  1  0.38308085  0.76392254  0.50513564  1
  H+  H66  1  0.38014729  0.76303141  0.17128760  1
  H+  H67  1  0.48623784  0.35681128  0.83714124  1
  H+  H68  1  0.48707479  0.61377711  0.66406909  1
  H+  H69  1  0.88894266  0.85084567  0.50814894  1
  H+  H70  1  0.84470720  0.33753654  0.15510873  1
  H+  H71  1  0.14033542  0.53018200  0.50234655  1
  H+  H72  1  0.38202953  0.86037670  0.65666425  1
  H+  H73  1  0.77628368  0.12910273  0.67436356  1
  H+  H74  1  0.85071926  0.75628362  0.16112359  1
  H+  H75  1  0.91065832  0.07553466  0.60308631  1
  H+  H76  1  0.86327672  0.97798927  0.83734883  1
  H+  H77  1  0.60784783  0.39647078  0.66227310  1
  H+  H78  1  0.37960980  0.97538040  0.15721634  1
  H+  H79  1  0.76818449  0.41370436  0.67204154  1
  H+  H80  1  0.35467510  0.71516120  0.34032067  1
  H+  H81  1  0.87945509  0.36827844  0.99909988  1
  H+  H82  1  0.64749845  0.38065784  0.49804458  1
  H+  H83  1  0.63895924  1.02731409  0.00299974  1
  H+  H84  1  0.52499359  0.65008824  0.32953480  1
  H+  H85  1  0.88514016  0.24072298  0.82291920  1
  H+  H86  1  0.97936502  0.85586828  1.00154264  1
  H+  H87  1  0.86592066  0.48686539  0.68238991  1
  H+  H88  1  0.63113191  0.86093236  0.99356618  1
  H+  H89  1  0.52256283  0.97767282  0.37559761  1
  H+  H90  1  0.61706677  0.84520783  0.66103563  1
  H+  H91  1  0.62834551  0.01614026  0.84926719  1
  H+  H92  1  0.38239518  0.23958243  0.48367623  1
  H+  H93  1  0.12724896  0.83923549  0.68066786  1
  H+  H94  1  0.07747835  0.94256402  0.69610425  1
  H+  H95  1  0.64359683  0.03727974  0.32456825  1
  H+  H96  1  0.03454501  0.40368959  0.47863379  1
  H+  H97  1  0.56781073  0.18682807  0.86935777  1
  H+  H98  1  -0.01175504  0.39580206  0.69131128  1
  H+  H99  1  0.61350649  0.64650364  0.32812836  1
  H+  H100  1  0.87532276  0.02986855  0.99429167  1
  H+  H101  1  0.10574758  0.93126854  0.35789195  1
  H+  H102  1  0.14809326  0.38234183  0.48292266  1
  H+  H103  1  0.13557313  0.36669098  0.64625582  1
  H+  H104  1  0.51430669  0.87336926  0.49551196  1
  H+  H105  1  0.37199716  0.50720011  0.84384578  1
  H+  H106  1  0.37907755  0.61860460  0.51173043  1
  H+  H107  1  0.37707249  0.37428199  0.82336300  1
  H+  H108  1  0.87603370  0.14020653  0.82444977  1
  H+  H109  1  0.76005332  0.62242134  0.15463190  1
  H+  H110  1  0.15014721  0.04380879  0.49912581  1
  H+  H111  1  0.85000195  -0.01939766  0.16394246  1
  H+  H112  1  0.47142727  0.84818328  0.84284206  1
  H+  H113  1  0.49844725  0.12756487  -0.01077083  1
  H+  H114  1  0.97479634  0.36797515  0.99805072  1
  H+  H115  1  0.58748104  0.66307958  0.06272490  1
  H+  H116  1  0.87640633  0.27063968  1.00158712  1
  H+  H117  1  0.67962453  0.41023741  0.15317740  1
  H+  H118  1  0.26546805  0.62578077  0.33889018  1
  H+  H119  1  0.62673726  0.52975885  0.32231868  1
  H+  H120  1  0.84718021  0.51733493  0.84855708  1
  H+  H121  1  0.14718967  0.13223304  0.49831394  1
  H+  H122  1  0.65378668  0.38217376  0.30959060  1
  H+  H123  1  0.26309184  0.62923798  0.15832500  1
  H+  H124  1  0.62145464  0.72739488  0.00575382  1
  H+  H125  1  0.09551663  0.71288985  0.49868610  1
  H+  H126  1  0.12880189  0.27642849  0.15697845  1
  H+  H127  1  0.10280661  0.38595109  0.14476659  1
  H+  H128  1  0.44292486  0.10018716  0.66239189  1
  H+  H129  1  0.08297699  0.19165522  0.55457237  1
  H+  H130  1  0.57714237  0.42363740  0.39569761  1
  H+  H131  1  0.22157193  0.19216136  0.96992422  1
  H+  H132  1  -0.02222391  0.11625327  0.84318514  1
  H+  H133  1  0.35440559  0.13911300  0.66787268  1
  H+  H134  1  0.19555043  0.08932435  0.17506666  1
  H+  H135  1  0.37786462  0.64485397  0.67842113  1
  H+  H136  1  0.28862592  0.37661608  0.82398276  1
  H+  H137  1  0.92382469  0.35095236  0.25721951  1
  H+  H138  1  0.82567764  0.92730066  0.06469886  1
  H+  H139  1  0.14616168  0.50078449  0.67863932  1
  H+  H140  1  0.38012241  0.76876483  0.99475761  1
  H+  H141  1  0.23410350  0.86067691  0.16981635  1
  H+  H142  1  0.24269375  0.37715204  0.33231984  1
  H+  H143  1  0.20965306  0.83121213  0.66993170  1
  H+  H144  1  0.28606858  0.88746748  0.82923284  1
  H+  H145  1  0.88660237  0.82592279  0.21540829  1
  H+  H146  1  0.83506645  0.19562251  0.07225002  1
  H+  H147  1  0.68955014  0.59578058  0.89573685  1
  H+  H148  1  0.96577951  0.74023978  0.62208435  1
  H+  H149  1  0.72637645  0.86268432  0.84413805  1
  H+  H150  1  0.21956015  0.61567038  -0.00784593  1
  H+  H151  1  0.25161464  0.84432559  0.01375378  1
  H+  H152  1  0.65568564  0.62314553  0.50177104  1
  H+  H153  1  0.60846524  0.62963601  0.15696810  1
  H+  H154  1  0.87860749  0.12122879  -0.00302887  1
  H+  H155  1  0.83858821  0.88629253  0.15362171  1
  H+  H156  1  0.13924025  0.52601437  0.83791705  1
  H+  H157  1  0.90251286  0.53815065  0.99847621  1
  H+  H158  1  0.90233643  0.89276479  0.68185423  1
  H+  H159  1  0.09622848  0.12935921  0.16160093  1
  H+  H160  1  0.36098327  0.46129908  0.01422513  1
  H+  H161  1  0.03918872  0.90368404  0.50123263  1
  H+  H162  1  0.64435595  0.61434367  0.98652652  1
  H+  H163  1  1.01246015  0.84458825  0.68448318  1
  H+  H164  1  0.34585614  0.11940571  0.82773754  1
  H+  H165  1  0.38552187  0.85318874  0.32363935  1
  H+  H166  1  0.23967892  0.62275697  0.83843393  1
  H+  H167  1  0.61202501  0.72065712  0.15856535  1
  H+  H168  1  0.08797787  0.66465709  0.81720257  1
  H+  H169  1  0.21825779  0.36437646  0.16279281  1
  H+  H170  1  0.53701270  0.58085301  0.46002868  1
  H+  H171  1  0.65039581  0.30460348  0.64518069  1
  H+  H172  1  0.37546664  0.85430236  0.99334123  1
  H+  H173  1  0.84371995  0.41017781  0.42707782  1
  H+  H174  1  0.32871870  0.90867187  0.72864565  1
  H+  H175  1  0.62348299  0.64103392  0.67314107  1
  H+  H176  1  0.62865789  0.76761972  0.50922680  1
  H+  H177  1  0.87010201  -0.03109066  0.34171878  1
  H+  H178  1  0.32663941  0.16728841  0.18526464  1
  H+  H179  1  0.49144329  0.12231195  0.34354812  1
  H+  H180  1  0.10632532  0.91858803  0.45017947  1
  H+  H181  1  0.11416819  0.13736521  0.82778552  1
  H+  H182  1  0.26663493  0.63461021  0.49622966  1
  H+  H183  1  0.61114205  0.88984757  0.49492117  1
  H+  H184  1  0.38542299  0.28950524  0.22790307  1
  H+  H185  1  0.29546032  0.15231103  0.48022697  1
  H+  H186  1  0.87618194  0.99951387  0.50839339  1
  H+  H187  1  0.52903812  0.39673412  0.49000722  1
  H+  H188  1  0.82776250  0.89617610  0.43465438  1
  H+  H189  1  0.64000801  0.77494447  0.31775762  1
  H+  H190  1  0.79714862  0.14174724  0.26919329  1
  H+  H191  1  1.09803178  0.83335329  1.01369177  1
  H+  H192  1  0.85721734  0.70497254  0.34002315  1
  H+  H193  1  0.90658530  0.62170086  0.67772490  1
  H+  H194  1  0.86290055  0.89716355  1.00976870  1
  H+  H195  1  0.86459782  0.72673709  0.00826243  1
  H+  H196  1  0.63568278  0.18710792  0.63254274  1
  H+  H197  1  0.37828752  0.22591168  0.01283823  1
  H+  H198  1  0.13555811  0.61550570  0.50790320  1
  H+  H199  1  0.51546352  0.39658818  0.18327994  1
  H+  H200  1  0.37095910  0.48919354  0.49737652  1
  H+  H201  1  0.88412906  0.50305860  0.32295713  1
  H+  H202  1  0.72279103  0.86586764  0.99276916  1
  H+  H203  1  0.01212821  0.61796930  0.34465064  1
  H+  H204  1  0.71908748  0.86990773  0.17064293  1
  H+  H205  1  0.13456484  1.02400069  0.84692613  1
  H+  H206  1  0.73518477  0.12568219  0.48498312  1
  H+  H207  1  0.48333444  0.36146345  -0.00472834  1
  H+  H208  1  1.02840226  0.65640018  0.99361699  1
  H+  H209  1  0.96426217  0.08913769  0.51062515  1
  H+  H210  1  0.74895777  0.09372720  0.49310906  1
  H+  H211  1  0.35754098  0.72024803  0.83549511  1
  H+  H212  1  0.15520770  0.03871078  0.63131725  1
  H+  H213  1  0.10117195  0.01126254  0.17239658  1
  H+  H214  1  0.22004354  0.48501056  0.70321598  1
  H+  H215  1  0.67031441  0.08025753  -0.05904421  1
  H+  H216  1  0.74125281  0.61688200  0.50475798  1
  H+  H217  1  0.38050406  0.48532767  0.67414021  1
  H+  H218  1  0.21538525  0.35763016  1.00703029  1
  H+  H219  1  0.47249067  0.36592435  0.65858607  1
  H+  H220  1  0.66306663  0.19244549  0.66018933  1
  H+  H221  1  0.28481617  0.40080044  0.48514233  1
  H+  H222  1  0.09847678  0.13854914  0.01011069  1
  H+  H223  1  0.61774641  0.22849965  0.38481546  1
  H+  H224  1  0.51331356  0.87936706  0.67560309  1
  H+  H225  1  0.02897148  0.87865019  0.84966739  1
  H+  H226  1  0.38245637  -0.02631856  0.33486870  1
  H+  H227  1  0.12853142  0.61009649  0.16923142  1
  H+  H228  1  0.12985183  0.40547698  0.83420013  1
  H+  H229  1  0.91377995  0.29485335  0.51990025  1
  H+  H230  1  0.99080151  0.84825545  0.27574000  1
  H+  H231  1  0.73323057  0.61405654  -0.01130922  1
  H+  H232  1  0.29106358  0.88371038  0.33114779  1
  H+  H233  1  0.86285590  0.86275977  0.66409363  1
  H+  H234  1  0.35783546  0.88215811  0.49235375  1
  H+  H235  1  0.12263005  0.93133475  0.01481115  1
  H+  H236  1  0.78316853  0.37857092  0.33432165  1
  H+  H237  1  0.00970381  0.62808927  0.15424532  1
  H+  H238  1  0.60405687  -0.03470095  0.15666083  1
  H+  H239  1  0.01088056  0.38289579  0.14690814  1
  H+  H240  1  0.14361534  0.77514445  0.17276485  1
  H+  H241  1  0.12021175  0.27187771  0.64467044  1
  H+  H242  1  0.38592171  0.61456193  0.32706277  1
  H+  H243  1  0.86815459  0.88162466  0.33373875  1
  H+  H244  1  0.42093763  0.33976452  0.56129582  1
  H+  H245  1  0.39957449  0.12209040  1.00084483  1
  H+  H246  1  0.10149751  0.39017640  1.00371500  1
  H+  H247  1  0.62996875  0.52491438  0.65541100  1
  H+  H248  1  0.76767054  0.86770376  0.49396575  1
  H+  H249  1  0.57030824  0.13825260  0.70358357  1
  H+  H250  1  0.18198785  0.35734096  0.91218991  1
  H+  H251  1  0.46772381  0.69008551  0.94680485  1
  H+  H252  1  0.87133657  0.14797558  0.67119973  1
  H+  H253  1  0.81286754  0.40108610  0.06327351  1
  H+  H254  1  0.64513380  0.37081954  0.98401357  1
  H+  H255  1  0.39871984  0.10597708  0.33002359  1
  H+  H256  1  0.63293977  0.73781112  0.82618011  1
  H+  H257  1  0.37405753  0.38509730  0.66907227  1
  H+  H258  1  0.33018861  0.16002773  0.76612106  1
  H+  H259  1  0.12655186  0.15492484  0.26594052  1
  H+  H260  1  0.13846842  0.08121240  0.33211570  1
  H+  H261  1  0.73544305  0.37725276  0.50045418  1
  H+  H262  1  0.60685215  0.87914105  0.83045927  1
  H+  H263  1  0.71902447  0.61251446  0.32290283  1
  H+  H264  1  0.11477886  0.22593515  0.82487722  1
  H+  H265  1  0.35465501  0.63664986  0.00611585  1
  H+  H266  1  0.07122696  0.42148141  0.06201210  1
  H+  H267  1  0.89480506  0.16052056  0.50861815  1
  H+  H268  1  0.64911128  0.05243205  0.60289487  1
  H+  H269  1  0.42326782  0.58656836  0.60584814  1
  H+  H270  1  0.86791555  0.36783439  0.33223356  1
  H+  H271  1  0.47129102  0.62632312  0.50942211  1
  H+  H272  1  0.12761654  0.51510237  0.32134191  1
  H+  H273  1  0.66201055  0.82600333  0.56835725  1
  H+  H274  1  0.77068601  0.14957582  1.01435559  1
  H+  H275  1  0.88324872  0.24176214  0.27573273  1
  H+  H276  1  1.00036762  0.38330545  0.66209737  1
  H+  H277  1  0.39797262  0.49290894  0.34052674  1
  H+  H278  1  0.89552274  0.62368368  -0.00231524  1
  H+  H279  1  0.22329173  0.11283558  0.83780463  1
  H+  H280  1  0.24928809  0.44138061  0.87733574  1
  H+  H281  1  0.49725283  0.06151003  0.73950740  1
  H+  H282  1  0.11609645  0.13953250  0.66534638  1
  H+  H283  1  0.88263045  0.37100115  0.50654297  1
  H+  H284  1  0.64291591  0.11123092  0.85225205  1
  H+  H285  1  0.61889431  0.47549694  0.00191685  1
  H+  H286  1  0.69800146  0.29368149  0.14146277  1
  H+  H287  1  0.38902106  0.77458301  0.66075988  1
  H+  H288  1  0.62128357  0.14217819  -0.00269258  1
  H+  H289  1  0.08069671  0.42288117  0.41374356  1
  H+  H290  1  0.37109385  0.43629613  0.40130379  1
  H+  H291  1  0.57356581  0.90651213  0.77232311  1
  H+  H292  1  0.29937310  -0.00776913  0.88833798  1
  H+  H293  1  0.89076572  0.73442836  0.66092552  1
  H+  H294  1  0.12982301  0.80056297  0.58266627  1
  H+  H295  1  0.63400017  0.51227124  0.16874365  1
  H+  H296  1  0.32316852  0.89798271  0.06385838  1
  H+  H297  1  0.90421803  0.57164803  0.23034062  1
  H+  H298  1  0.62388414  0.86017997  0.17437947  1
  H+  H299  1  0.17943484  0.10663396  0.93354780  1
  H+  H300  1  0.18270173  0.10891342  0.58138447  1
  H+  H301  1  0.59400599  0.17834056  0.09156278  1
  H+  H302  1  0.59898329  0.41530409  0.06170110  1
  H+  H303  1  0.55311107  0.17189336  0.43639927  1
  H+  H304  1  0.40979397  0.07233167  0.93899939  1
  H+  H305  1  0.34223722  0.41055896  0.11260845  1
  H+  H306  1  0.18685227  0.84251685  0.91572791  1
  H+  H307  1  0.83005815  0.66062914  0.06438438  1
  H+  H308  1  0.70467792  0.37601037  0.25263514  1
  H+  H309  1  0.47270056  0.61442436  0.16969750  1
  H+  H310  1  0.40352814  0.08415590  0.59531219  1
  H+  H311  1  0.35851795  0.22150506  0.27983530  1
  H+  H312  1  0.18964965  0.83246526  0.26238101  1
  H+  H313  1  0.84370390  0.13271217  0.39137658  1
  H+  H314  1  0.54247626  0.11682605  0.52514388  1
  H+  H315  1  0.07554470  0.65482359  0.43548448  1
  H+  H316  1  0.41005367  0.82267139  0.90237614  1
  H+  H317  1  0.82750547  0.65089263  0.40074293  1
  H+  H318  1  0.67802798  0.36529128  0.58706308  1
  H+  H319  1  0.60535831  0.67610747  0.75799740  1
  H+  H320  1  0.32715040  0.14501303  0.11421353  1
  H+  H321  1  0.34006884  0.67173039  0.73389528  1
  H+  H322  1  0.81108367  0.60990451  0.84680792  1
  H+  H323  1  0.11726655  0.24562547  0.49653265  1
  H+  H324  1  0.12651484  0.52095822  0.16819545  1
  H+  H325  1  0.57627661  0.90801846  0.06580407  1
  H+  H326  1  0.44550520  0.08941758  0.23146792  1
  H+  H327  1  0.88150062  0.33290033  0.58036561  1
  H+  H328  1  0.34843788  0.41723981  0.73542030  1
  H+  H329  1  0.66174115  0.82451804  0.90124416  1
  H+  H330  1  0.57189780  0.17226576  0.79906633  1
  H+  H331  1  0.40395351  0.13414722  0.50034428  1
  H+  H332  1  0.16096543  0.88683358  0.86398719  1
  H+  H333  1  0.31888391  0.65736704  0.06710849  1
  H+  H334  1  0.80561504  0.64257728  0.74619357  1
  H+  H335  1  0.57914753  0.42133854  0.72482634  1
  H+  H336  1  0.12194257  0.65597526  0.99309571  1
  H+  H337  1  0.57980197  0.66286353  0.41951391  1
  H+  H338  1  0.07372491  0.66852822  0.09813605  1
  H+  H339  1  0.92511871  0.81546175  0.56166663  1
  H+  H340  1  0.73626801  0.86294688  0.31637921  1
  H+  H341  1  0.65856694  0.57434752  0.22705806  1
  H+  H342  1  0.88926040  0.11549574  0.21358990  1
  H+  H343  1  0.51332053  -0.00250045  0.57069742  1
  H+  H344  1  0.41810003  0.59072964  0.26521419  1
  H+  H345  1  0.48603769  0.39595353  0.25221022  1
  H+  H346  1  0.16543956  0.58909272  0.89971292  1
  H+  H347  1  0.66087435  0.07224824  0.21927824  1
  H+  H348  1  0.05554584  0.13543173  0.31517407  1
  H+  H349  1  0.68066215  0.30647086  0.83046874  1
  H+  H350  1  0.42343744  0.32717392  0.93660622  1
  H+  H351  1  0.41325543  0.82003114  0.23230318  1
  H+  H352  1  0.84476548  0.17222525  0.76043795  1
  H+  H353  1  0.66960622  0.83639907  0.24850829  1
  H+  H354  1  0.92933796  0.07095329  0.27500636  1
  H+  H355  1  0.85506279  0.17894111  0.38888717  1
  H+  H356  1  0.57070858  0.34298156  0.13930369  1
  H+  H357  1  0.79448499  0.41622471  0.77490382  1
  H+  H358  1  0.41459361  0.82385276  0.56513784  1
  H+  H359  1  0.68575572  0.35564916  0.92313134  1
  H+  H360  1  0.89279600  0.58332723  0.90390210  1
  H+  H361  1  0.85110793  0.75126311  0.84360972  1
  H+  H362  1  0.06343603  0.89538881  0.10969557  1
  H+  H363  1  0.71759405  0.02302473  0.60982614  1
  H+  H364  1  0.16738859  0.35037256  0.54559189  1
  H+  H365  1  0.63176255  0.40295250  0.81328543  1
  H+  H366  1  0.32411137  0.65754159  0.43478149  1
  H+  H367  1  0.67306336  0.58950860  0.59885535  1
  H+  H368  1  0.47140988  0.85194827  0.32617575  1
  H+  H369  1  0.92216521  0.33381516  0.88909140  1
  H+  H370  1  0.92117309  0.83873468  0.94340456  1
  H+  H371  1  0.03481424  0.83357363  0.37345628  1
  H+  H372  1  0.57296004  0.93984644  0.40828763  1
  H+  H373  1  0.11367212  0.43565660  0.76943653  1
  H+  H374  1  0.87137913  0.62937621  0.49194144  1
  H+  H375  1  0.08717483  0.16714260  0.72655462  1
  H+  H376  1  0.06257212  0.16107060  0.10545708  1
  H+  H377  1  0.07924069  0.89971468  0.78822984  1
  H+  H378  1  0.80517354  0.93469410  0.74423660  1
  H+  H379  1  0.16105763  0.58053884  0.26582158  1
  H+  H380  1  0.14613056  0.57768810  0.60334127  1
  H+  H381  1  0.00811292  0.13675661  0.00726887  1
  H+  H382  1  0.91453323  0.09259958  0.90162352  1
  H+  H383  1  0.36749160  0.87591149  0.82313739  1
  O2-  O384  1  0.06560299  0.16202469  0.15056342  1
  O2-  O385  1  0.07849290  0.18414799  0.51041300  1
  O2-  O386  1  0.08258834  0.16624807  0.81133531  1
  O2-  O387  1  0.07130121  0.41815057  0.13390260  1
  O2-  O388  1  0.09130446  0.43028182  0.46000841  1
  O2-  O389  1  0.09748589  0.43064858  0.81405750  1
  O2-  O390  1  0.07120515  0.65907858  0.14216317  1
  O2-  O391  1  0.07599410  0.65382654  0.48208301  1
  O2-  O392  1  0.06084453  0.69898236  0.82475076  1
  O2-  O393  1  0.04666648  0.90941642  0.14877270  1
  O2-  O394  1  0.10144826  0.93784167  0.49176047  1
  O2-  O395  1  0.08660124  0.91389772  0.83240591  1
  O2-  O396  1  0.31288675  0.11990895  0.15524511  1
  O2-  O397  1  0.35678505  0.17936489  0.46933104  1
  O2-  O398  1  0.32862721  0.16017326  0.81170782  1
  O2-  O399  1  0.34185032  0.41979449  0.15686518  1
  O2-  O400  1  0.34847365  0.43160211  0.47835734  1
  O2-  O401  1  0.34706573  0.40481645  0.80629629  1
  O2-  O402  1  0.32307048  0.65920374  0.14136095  1
  O2-  O403  1  0.32734271  0.66108332  0.48032841  1
  O2-  O404  1  0.31991456  0.65874183  0.81928861  1
  O2-  O405  1  0.34436599  0.91585980  0.14201289  1
  O2-  O406  1  0.33030404  0.91427715  0.47821292  1
  O2-  O407  1  0.34190917  0.91039753  0.80729730  1
  O2-  O408  1  0.60517183  0.18649048  0.13567538  1
  O2-  O409  1  0.52234199  0.15767730  0.51433470  1
  O2-  O410  1  0.60759786  0.19493856  0.83644291  1
  O2-  O411  1  0.60869300  0.40504934  0.13617944  1
  O2-  O412  1  0.58747686  0.42690493  0.47048297  1
  O2-  O413  1  0.59128471  0.42399143  0.80364486  1
  O2-  O414  1  0.58067504  0.66210812  0.14114663  1
  O2-  O415  1  0.57149358  0.64334103  0.46346372  1
  O2-  O416  1  0.60983893  0.67726742  0.80640312  1
  O2-  O417  1  0.57624809  0.90216673  0.14423758  1
  O2-  O418  1  0.57598582  0.91560066  0.48264057  1
  O2-  O419  1  0.57355634  0.90698692  0.81791216  1
  O2-  O420  1  0.84751328  0.23186093  0.14474735  1
  O2-  O421  1  0.93172304  0.22223227  0.50042774  1
  O2-  O422  1  0.85131914  0.17618377  0.80693915  1
  O2-  O423  1  0.75355079  0.34916426  0.13621447  1
  O2-  O424  1  0.84210040  0.41354452  0.47312712  1
  O2-  O425  1  0.79395093  0.41290426  0.82069391  1
  O2-  O426  1  0.82100711  0.65694161  0.14013126  1
  O2-  O427  1  0.84130783  0.65988330  0.47573287  1
  O2-  O428  1  0.78058145  0.64279172  0.82928388  1
  O2-  O429  1  0.81467094  0.92441647  0.14246429  1
  O2-  O430  1  0.82862176  0.89582462  0.47976468  1
  O2-  O431  1  0.82791013  0.91838887  0.82160494  1
  O2-  O432  1  0.13625531  0.07220196  0.18712491  1
  O2-  O433  1  0.18300282  0.10693561  0.50971123  1
  O2-  O434  1  0.16468132  0.08678373  0.85652105  1
  O2-  O435  1  0.15789225  0.33933743  0.15042372  1
  O2-  O436  1  0.17717269  0.35194295  0.50064213  1
  O2-  O437  1  0.20148686  0.38184270  0.87016432  1
  O2-  O438  1  0.15976634  0.58081769  0.18397961  1
  O2-  O439  1  0.16730335  0.58623281  0.52378469  1
  O2-  O440  1  0.17077098  0.58847941  0.85364872  1
  O2-  O441  1  0.17628083  0.83400619  0.18855130  1
  O2-  O442  1  0.10411060  0.79279227  0.54170811  1
  O2-  O443  1  0.21068649  0.88628651  0.88305886  1
  O2-  O444  1  0.44357439  0.08913085  0.18645873  1
  O2-  O445  1  0.42920986  0.10115066  0.52241786  1
  O2-  O446  1  0.35807588  0.04008142  0.87696605  1
  O2-  O447  1  0.46719696  0.39033341  0.20868553  1
  O2-  O448  1  0.42721780  0.34486675  0.51657648  1
  O2-  O449  1  0.42657347  0.32638535  0.85363413  1
  O2-  O450  1  0.41352901  0.58691082  0.18675136  1
  O2-  O451  1  0.41458653  0.59362170  0.52893286  1
  O2-  O452  1  0.35255421  0.54106858  0.86775515  1
  O2-  O453  1  0.41505995  0.82307175  0.18669279  1
  O2-  O454  1  0.41891486  0.82450040  0.51985986  1
  O2-  O455  1  0.40964687  0.81677540  0.85653273  1
  O2-  O456  1  0.65457480  0.06401645  0.17465940  1
  O2-  O457  1  0.56931585  0.03569530  0.55242328  1
  O2-  O458  1  0.66373409  0.07367862  0.86784157  1
  O2-  O459  1  0.74229831  0.41184661  0.17320566  1
  O2-  O460  1  0.67850366  0.35582613  0.51976164  1
  O2-  O461  1  0.70237053  0.36897275  0.83876648  1
  O2-  O462  1  0.65786540  0.57277958  0.18151692  1
  O2-  O463  1  0.68040092  0.59023220  0.52004719  1
  O2-  O464  1  0.68916607  0.59628015  0.84863703  1
  O2-  O465  1  0.66019060  0.83385721  0.19012416  1
  O2-  O466  1  0.66371138  0.82726512  0.52255815  1
  O2-  O467  1  0.66405756  0.82448498  0.85542541  1
  O2-  O468  1  0.91170869  0.07589850  0.20369233  1
  O2-  O469  1  0.90483175  0.05887557  0.52585046  1
  O2-  O470  1  0.91639941  0.08903507  0.85602069  1
  O2-  O471  1  0.89249852  0.32444398  0.15727732  1
  O2-  O472  1  0.91349340  0.34845414  0.53533785  1
  O2-  O473  1  0.92745759  0.32701339  0.84535138  1
  O2-  O474  1  0.89805043  0.57234017  0.18492483  1
  O2-  O475  1  0.91889940  0.57540346  0.51925707  1
  O2-  O476  1  0.87286172  0.57880300  0.86124008  1
  O2-  O477  1  0.87174700  0.81819859  0.17193226  1
  O2-  O478  1  0.92603859  0.82551534  0.51734994  1
  O2-  O479  1  0.89808991  0.81206344  0.83727905  1
  O2-  O480  1  0.15095414  0.03334286  0.33703477  1
  O2-  O481  1  0.17658975  0.10013463  0.62775013  1
  O2-  O482  1  0.19319157  0.13016400  0.97606303  1
  O2-  O483  1  0.18202263  0.34783744  0.32066124  1
  O2-  O484  1  0.13095817  0.32106797  0.61869384  1
  O2-  O485  1  0.15871244  0.33491060  0.98685714  1
  O2-  O486  1  0.16235619  0.57768671  0.31095585  1
  O2-  O487  1  0.13621622  0.57166697  0.64801462  1
  O2-  O488  1  0.15982856  0.59164249  0.97403442  1
  O2-  O489  1  0.20124407  0.82986609  0.30689546  1
  O2-  O490  1  0.14659360  0.80176982  0.66221882  1
  O2-  O491  1  0.13984525  0.77875433  0.98723585  1
  O2-  O492  1  0.44001703  0.08951074  0.31639782  1
  O2-  O493  1  0.38824879  0.07439803  0.64017931  1
  O2-  O494  1  0.43141356  0.09284055  0.98228985  1
  O2-  O495  1  0.49017021  0.37915478  0.32874436  1
  O2-  O496  1  0.41028079  0.33674140  0.64513801  1
  O2-  O497  1  0.42159878  0.32794625  0.98187426  1
  O2-  O498  1  0.42464052  0.59376804  0.31054870  1
  O2-  O499  1  0.42567573  0.58027672  0.65116804  1
  O2-  O500  1  0.44379362  0.63276336  0.96446459  1
  O2-  O501  1  0.41276768  0.81771295  0.30976601  1
  O2-  O502  1  0.41756816  0.83470482  0.64339438  1
  O2-  O503  1  0.41120339  0.82802628  0.97801180  1
  O2-  O504  1  0.68273281  0.08796729  0.29896437  1
  O2-  O505  1  0.68878213  0.04770717  0.63292047  1
  O2-  O506  1  0.67115593  0.08739437  0.98700356  1
  O2-  O507  1  0.68870282  0.35757657  0.29555481  1
  O2-  O508  1  0.67385897  0.36506707  0.63471618  1
  O2-  O509  1  0.67777225  0.34301356  0.96727465  1
  O2-  O510  1  0.66044802  0.58967919  0.30541604  1
  O2-  O511  1  0.66742062  0.58699452  0.64421579  1
  O2-  O512  1  0.67469476  0.58500584  0.96966592  1
  O2-  O513  1  0.67559824  0.83583929  0.30024415  1
  O2-  O514  1  0.65688973  0.82521183  0.64606698  1
  O2-  O515  1  0.66218726  0.83095027  0.97822308  1
  O2-  O516  1  0.93902229  0.07235101  0.32078691  1
  O2-  O517  1  0.91465069  0.08988837  0.64739782  1
  O2-  O518  1  0.90656627  0.09072365  0.97892735  1
  O2-  O519  1  0.91695179  0.32395114  0.29693915  1
  O2-  O520  1  0.83736280  0.30792015  0.63281912  1
  O2-  O521  1  0.91036828  0.33538403  0.98424497  1
  O2-  O522  1  0.90813003  0.56357244  0.30760969  1
  O2-  O523  1  0.94225055  0.60862124  0.64960064  1
  O2-  O524  1  0.92986878  0.59698844  0.98134086  1
  O2-  O525  1  0.95891036  0.87824649  0.28339874  1
  O2-  O526  1  0.94152408  0.77546488  0.63606253  1
  O2-  O527  1  0.91898544  0.83710520  0.98776530  1
  O2-  O528  1  0.06786675  0.16808131  0.02434023  1
  O2-  O529  1  0.11860929  0.16276309  0.30909122  1
  O2-  O530  1  0.08356507  0.16658979  0.68158013  1
  O2-  O531  1  0.06919723  0.42002726  0.01525086  1
  O2-  O532  1  0.07021795  0.40899585  0.34317790  1
  O2-  O533  1  0.15771509  0.45609711  0.70006522  1
  O2-  O534  1  0.09142702  0.68696944  0.01020579  1
  O2-  O535  1  0.06898442  0.64752065  0.36460271  1
  O2-  O536  1  0.02096357  0.63016638  0.68459740  1
  O2-  O537  1  0.07660314  0.87457330  0.02654376  1
  O2-  O538  1  0.09521424  0.87645211  0.37749827  1
  O2-  O539  1  0.06346263  0.88568659  0.71011628  1
  O2-  O540  1  0.34980031  0.16435841  0.02651078  1
  O2-  O541  1  0.33822189  0.23259858  0.24179467  1
  O2-  O542  1  0.33086752  0.17415891  0.68695071  1
  O2-  O543  1  0.33043603  0.40149049  0.02733726  1
  O2-  O544  1  0.38332228  0.43558989  0.35713897  1
  O2-  O545  1  0.34855964  0.42226276  0.68891769  1
  O2-  O546  1  0.31727097  0.65843569  0.02089299  1
  O2-  O547  1  0.32540827  0.65478905  0.35599450  1
  O2-  O548  1  0.34892539  0.67720670  0.68967904  1
  O2-  O549  1  0.31350674  0.88629944  0.01943212  1
  O2-  O550  1  0.35259944  0.91355991  0.34900690  1
  O2-  O551  1  0.32092135  0.90305520  0.68353155  1
  O2-  O552  1  0.58936296  0.17440833  0.00584242  1
  O2-  O553  1  0.57249361  0.17020004  0.39413140  1
  O2-  O554  1  0.52043219  0.12231375  0.73010076  1
  O2-  O555  1  0.59047076  0.41478790  0.01586187  1
  O2-  O556  1  0.57984383  0.43010337  0.34954259  1
  O2-  O557  1  0.57284842  0.42117032  0.67966800  1
  O2-  O558  1  0.59023545  0.66500114  0.01711918  1
  O2-  O559  1  0.58715136  0.68062723  0.34418614  1
  O2-  O560  1  0.59382584  0.67033071  0.69266692  1
  O2-  O561  1  0.57985957  0.91380656  0.02034164  1
  O2-  O562  1  0.56113407  0.95540100  0.36694956  1
  O2-  O563  1  0.57178267  0.90047112  0.69441378  1
  O2-  O564  1  0.83300738  0.18620927  0.02699978  1
  O2-  O565  1  0.85470819  0.17791095  0.25171031  1
  O2-  O566  1  0.83507470  0.17108011  0.68910982  1
  O2-  O567  1  0.83245217  0.41494950  0.02036787  1
  O2-  O568  1  0.84181501  0.40147945  0.35189950  1
  O2-  O569  1  0.82150668  0.42947502  0.69630939  1
  O2-  O570  1  0.83582157  0.66437599  0.01867642  1
  O2-  O571  1  0.82030520  0.64682716  0.35498353  1
  O2-  O572  1  0.81990897  0.64395687  0.70261118  1
  O2-  O573  1  0.82926226  0.92582558  0.01920515  1
  O2-  O574  1  0.83354431  0.90547628  0.35006159  1
  O2-  O575  1  0.78635702  0.94784697  0.70552440  1
