# generated using pymatgen
data_H2O
_symmetry_space_group_name_H-M   'P 1'
_cell_length_a   17.98295106
_cell_length_b   17.98718596
_cell_length_c   22.00024886
_cell_angle_alpha   89.98939624
_cell_angle_beta   90.00382383
_cell_angle_gamma   120.00885777
_symmetry_Int_Tables_number   1
_chemical_formula_structural   H2O
_chemical_formula_sum   'H384 O192'
_cell_volume   6162.31129829
_cell_formula_units_Z   192
loop_
 _symmetry_equiv_pos_site_id
 _symmetry_equiv_pos_as_xyz
  1  'x, y, z'
loop_
 _atom_type_symbol
 _atom_type_oxidation_number
  H+  1.0
  O2-  -2.0
loop_
 _atom_site_type_symbol
 _atom_site_label
 _atom_site_symmetry_multiplicity
 _atom_site_fract_x
 _atom_site_fract_y
 _atom_site_fract_z
 _atom_site_occupancy
  H+  H0  1  0.50012932  0.13980410  0.15715644  1
  H+  H1  1  0.10724146  0.64374436  0.49187380  1
  H+  H2  1  -0.03456095  0.11394006  0.16317616  1
  H+  H3  1  0.85851481  0.88607394  0.15793784  1
  H+  H4  1  0.91968253  0.61849218  0.25570533  1
  H+  H5  1  0.82991924  0.70878810  0.51833448  1
  H+  H6  1  0.34903278  0.97472804  0.34087689  1
  H+  H7  1  0.90311574  0.00804503  0.34761208  1
  H+  H8  1  0.27009042  0.37471243  0.33104106  1
  H+  H9  1  0.35775881  0.23323952  0.32798791  1
  H+  H10  1  1.11574144  0.47954166  1.00983150  1
  H+  H11  1  0.96602282  0.86376625  0.66772516  1
  H+  H12  1  0.26698498  0.38704492  1.01318238  1
  H+  H13  1  0.11740377  1.00797250  0.65982709  1
  H+  H14  1  0.11487222  0.64134974  0.17071439  1
  H+  H15  1  0.63829554  0.62722386  0.17434456  1
  H+  H16  1  0.10874994  0.13123647  0.67177410  1
  H+  H17  1  0.09858740  0.47858208  0.32284376  1
  H+  H18  1  0.12805947  0.26814778  0.32833143  1
  H+  H19  1  0.88411049  0.77875304  0.17355649  1
  H+  H20  1  0.64284001  0.51602885  0.64421497  1
  H+  H21  1  0.51929145  0.62601168  1.01301786  1
  H+  H22  1  1.02043943  0.39144208  0.49233778  1
  H+  H23  1  0.37863211  0.51868712  -0.01127209  1
  H+  H24  1  0.10919768  0.96923206  0.14746574  1
  H+  H25  1  0.64205844  0.13139024  0.34555004  1
  H+  H26  1  0.38402515  1.02387066  -0.00417549  1
  H+  H27  1  0.12320222  0.58143887  0.82668919  1
  H+  H28  1  0.14305186  0.16429425  0.03919422  1
  H+  H29  1  0.34165361  0.08986789  0.84788051  1
  H+  H30  1  0.59687845  0.23379012  0.15702898  1
  H+  H31  1  0.27459332  0.89146049  0.67699852  1
  H+  H32  1  0.36239347  0.11440573  0.31738957  1
  H+  H33  1  0.36081690  0.28438775  0.65245599  1
  H+  H34  1  0.39117445  0.86699374  0.99179429  1
  H+  H35  1  0.60787071  0.22203772  0.66810592  1
  H+  H36  1  -0.01757082  0.87093166  0.83680028  1
  H+  H37  1  0.62086939  0.77297220  0.32842529  1
  H+  H38  1  0.03006207  0.63137841  0.66288440  1
  H+  H39  1  0.50311770  0.38007257  0.16165047  1
  H+  H40  1  -0.03105375  0.64168414  0.33268085  1
  H+  H41  1  0.38650637  0.85960138  0.17984876  1
  H+  H42  1  0.25323331  0.60764503  0.81556141  1
  H+  H43  1  0.21503374  0.02668139  0.20120485  1
  H+  H44  1  0.14470216  0.53061545  0.63928422  1
  H+  H45  1  0.72599926  0.86432061  0.17412773  1
  H+  H46  1  0.85346117  0.23291577  0.16084450  1
  H+  H47  1  0.24294789  0.10414163  0.67595816  1
  H+  H48  1  0.38029820  0.02801062  0.84029212  1
  H+  H49  1  0.97975196  0.40072401  0.98314909  1
  H+  H50  1  0.64195880  0.02116581  0.33791109  1
  H+  H51  1  0.38078746  0.36021000  0.32380284  1
  H+  H52  1  0.62547162  0.60147292  0.82604444  1
  H+  H53  1  0.59131273  0.37703444  0.82626188  1
  H+  H54  1  0.86741804  0.89069867  0.82277291  1
  H+  H55  1  0.12803465  0.03556133  0.31618554  1
  H+  H56  1  0.70741983  0.35630108  0.16236202  1
  H+  H57  1  0.14355613  0.77407465  0.66460662  1
  H+  H58  1  0.22966618  0.61724132  -0.01818605  1
  H+  H59  1  0.82952640  0.92634485  0.73196897  1
  H+  H60  1  0.34494726  0.16191953  0.68446431  1
  H+  H61  1  0.37154778  0.63167103  0.19492128  1
  H+  H62  1  0.38145527  0.90483324  0.82568289  1
  H+  H63  1  0.63312946  1.01989171  0.15080160  1
  H+  H64  1  0.84155330  0.49445590  0.81950674  1
  H+  H65  1  0.59621150  0.36852596  0.01342645  1
  H+  H66  1  0.02211032  0.88647709  -0.00596133  1
  H+  H67  1  0.89141457  0.36204032  0.65620408  1
  H+  H68  1  0.63755873  0.11129780  0.00547442  1
  H+  H69  1  0.48046851  0.61709851  0.18679694  1
  H+  H70  1  0.65294238  0.36087852  0.50428930  1
  H+  H71  1  0.12508446  0.89511492  0.83197936  1
  H+  H72  1  0.86703290  0.21937526  0.00430904  1
  H+  H73  1  0.34533021  0.66394058  0.44700103  1
  H+  H74  1  0.38508417  0.77217197  0.66503825  1
  H+  H75  1  0.64570608  0.10398075  0.51373786  1
  H+  H76  1  0.63640423  0.35438507  0.65912193  1
  H+  H77  1  0.35561627  0.13549058  0.00313239  1
  H+  H78  1  0.72690756  0.60947429  1.03514481  1
  H+  H79  1  0.89454115  0.51400790  0.65761654  1
  H+  H80  1  0.14963656  0.78351566  0.99875335  1
  H+  H81  1  0.41612305  0.33505193  0.26389808  1
  H+  H82  1  0.51900907  0.38197631  0.33493130  1
  H+  H83  1  0.48509105  0.10558230  0.65785940  1
  H+  H84  1  0.47048057  0.15338585  0.81592579  1
  H+  H85  1  0.65006928  0.77159174  0.64652068  1
  H+  H86  1  0.64208167  0.26562669  0.50794750  1
  H+  H87  1  0.10896746  0.88064089  0.67624796  1
  H+  H88  1  0.67307219  0.50285166  0.47962800  1
  H+  H89  1  0.21629975  0.33843847  0.50209895  1
  H+  H90  1  0.35738290  0.38909095  0.00959163  1
  H+  H91  1  0.75024342  0.90436786  0.98004260  1
  H+  H92  1  0.61516537  0.88153646  0.82008563  1
  H+  H93  1  0.26704219  0.13691379  -0.00224679  1
  H+  H94  1  0.63900726  0.54005813  0.16809257  1
  H+  H95  1  0.01642116  0.12927033  0.34598348  1
  H+  H96  1  0.80799629  0.13748270  0.84073737  1
  H+  H97  1  0.17307315  0.83513213  0.60669252  1
  H+  H98  1  0.84926235  0.86392449  0.51567310  1
  H+  H99  1  0.69450649  0.33753101  0.84716983  1
  H+  H100  1  0.08275612  0.42258530  0.10524260  1
  H+  H101  1  0.45812451  0.44822959  0.53710507  1
  H+  H102  1  0.40851441  0.74671162  0.35376036  1
  H+  H103  1  0.77872333  0.37872836  0.49508463  1
  H+  H104  1  0.38928663  0.00214704  0.50475255  1
  H+  H105  1  0.49515133  0.39195971  0.50843020  1
  H+  H106  1  0.27645722  0.14328598  0.15405360  1
  H+  H107  1  0.16567894  0.79408577  0.84786271  1
  H+  H108  1  0.60888753  -0.00950058  0.67318647  1
  H+  H109  1  0.38670851  0.00597399  0.66302135  1
  H+  H110  1  0.60592931  -0.02713881  1.01371580  1
  H+  H111  1  0.88088751  0.51634096  0.50202128  1
  H+  H112  1  0.29035245  0.90254181  0.82879103  1
  H+  H113  1  0.27305964  0.88116701  0.49802513  1
  H+  H114  1  0.86652387  0.72976430  1.00735760  1
  H+  H115  1  0.10487887  0.20321276  0.49500756  1
  H+  H116  1  0.54828113  0.12001214  0.35493145  1
  H+  H117  1  0.86384217  0.21401967  0.50127564  1
  H+  H118  1  0.36817888  0.63845399  0.66689392  1
  H+  H119  1  0.60563888  0.62747181  0.03333358  1
  H+  H120  1  0.61133295  0.88571464  0.34448540  1
  H+  H121  1  0.88173628  0.23664850  0.83194415  1
  H+  H122  1  0.26731143  0.10877231  0.77408613  1
  H+  H123  1  0.38937538  0.77246688  0.19146369  1
  H+  H124  1  0.63528077  0.26283096  0.32244743  1
  H+  H125  1  0.56497113  0.07600507  0.83909302  1
  H+  H126  1  0.59531933  0.27018415  0.84145126  1
  H+  H127  1  0.13710952  0.27072642  0.00870294  1
  H+  H128  1  0.37831478  0.12186682  0.15937550  1
  H+  H129  1  0.83130499  0.40641802  0.43189219  1
  H+  H130  1  0.96977225  0.09386868  0.50502185  1
  H+  H131  1  0.89514362  0.78089565  0.82969380  1
  H+  H132  1  0.97843154  0.11444743  0.66076331  1
  H+  H133  1  0.59945738  0.37814923  0.16277795  1
  H+  H134  1  0.13364891  0.86318437  0.16621472  1
  H+  H135  1  0.52179992  0.88347651  0.16313576  1
  H+  H136  1  0.77441978  0.64175333  0.16129169  1
  H+  H137  1  0.47805153  0.86134780  0.50860456  1
  H+  H138  1  0.11164433  0.60733964  0.33748565  1
  H+  H139  1  0.13389413  0.36001858  0.65015015  1
  H+  H140  1  0.37011453  0.73703183  -0.01356029  1
  H+  H141  1  0.26791008  0.22159728  0.46533810  1
  H+  H142  1  0.88792895  0.86347014  0.99094346  1
  H+  H143  1  0.40036351  0.09609097  0.50767643  1
  H+  H144  1  0.45107620  0.34318092  0.83443584  1
  H+  H145  1  0.60070212  0.21866964  0.01151985  1
  H+  H146  1  0.59123063  0.63137201  0.33511365  1
  H+  H147  1  0.62580655  0.10359133  0.66360706  1
  H+  H148  1  0.89097510  0.63364881  0.17840269  1
  H+  H149  1  0.64060536  0.64759022  0.48526494  1
  H+  H150  1  0.36765822  0.40523036  0.67589581  1
  H+  H151  1  0.18897660  0.10890580  0.91751796  1
  H+  H152  1  0.06559549  0.66474234  0.81619683  1
  H+  H153  1  0.13455250  0.36024735  0.32122839  1
  H+  H154  1  0.73066754  0.86164715  0.82901821  1
  H+  H155  1  0.62791611  0.34917760  0.31993123  1
  H+  H156  1  0.83286104  0.91246980  0.06456597  1
  H+  H157  1  0.63204147  0.85071632  0.50099586  1
  H+  H158  1  0.51401941  0.88694658  0.68021579  1
  H+  H159  1  0.73038631  0.86567198  0.65168280  1
  H+  H160  1  0.13529249  0.28154944  0.16998705  1
  H+  H161  1  0.73672380  0.60157828  0.65017592  1
  H+  H162  1  0.61471801  0.96600357  0.50016036  1
  H+  H163  1  0.87894767  0.64574939  0.32842819  1
  H+  H164  1  0.13614678  0.34418832  0.85887305  1
  H+  H165  1  0.63217692  0.10324778  0.17318068  1
  H+  H166  1  0.11232442  0.39006994  0.16358066  1
  H+  H167  1  0.21505708  0.86817470  0.32871731  1
  H+  H168  1  0.22872083  0.61429585  0.19363036  1
  H+  H169  1  0.88137306  0.87378007  0.66728566  1
  H+  H170  1  0.50419584  0.58584588  0.51170988  1
  H+  H171  1  -0.01611319  0.63429758  0.18483133  1
  H+  H172  1  0.26490603  0.38022161  0.82935362  1
  H+  H173  1  0.38416513  0.28150220  0.16454074  1
  H+  H174  1  0.34336102  0.21441120  0.49272864  1
  H+  H175  1  0.15853750  0.57934794  0.93067166  1
  H+  H176  1  0.92711839  0.55177675  1.01299734  1
  H+  H177  1  0.86632242  0.20403321  0.35172043  1
  H+  H178  1  0.52077100  0.36804693  0.66474564  1
  H+  H179  1  0.64079213  0.77115817  0.83809435  1
  H+  H180  1  0.83713851  0.37829055  0.13911995  1
  H+  H181  1  0.38553624  0.37306960  0.16864196  1
  H+  H182  1  0.27545640  0.63444314  0.66204383  1
  H+  H183  1  0.96719660  0.34578015  0.32144113  1
  H+  H184  1  0.12947132  0.64861909  0.01175072  1
  H+  H185  1  0.07910416  0.41504849  0.26828088  1
  H+  H186  1  -0.06145666  0.56437794  0.80852780  1
  H+  H187  1  0.14195394  0.86935515  0.99259413  1
  H+  H188  1  0.19015839  0.15805121  0.82866660  1
  H+  H189  1  0.01632331  0.64132531  0.49612793  1
  H+  H190  1  -0.00295036  0.11525760  0.00128967  1
  H+  H191  1  0.39400714  0.53479103  0.66372544  1
  H+  H192  1  0.19352535  0.08264828  0.50265056  1
  H+  H193  1  0.14616514  0.26212974  0.84799243  1
  H+  H194  1  0.63373179  0.97453724  0.83243829  1
  H+  H195  1  0.10127574  0.73412863  0.34261484  1
  H+  H196  1  0.40950252  0.08495218  0.93679133  1
  H+  H197  1  0.85775146  0.63550442  0.80778541  1
  H+  H198  1  0.87320051  0.79505533  0.36552571  1
  H+  H199  1  0.72696444  0.00350291  0.90485147  1
  H+  H200  1  0.81794567  0.47060957  -0.02008830  1
  H+  H201  1  0.84998695  0.36264115  0.34373336  1
  H+  H202  1  0.09492428  0.16548909  0.76660799  1
  H+  H203  1  0.87913777  -0.02188310  1.00922924  1
  H+  H204  1  0.22353871  0.62392607  0.49815327  1
  H+  H205  1  0.67594011  0.56847675  0.86377790  1
  H+  H206  1  0.63931774  0.51991610  1.03314733  1
  H+  H207  1  0.88652734  0.08791573  0.34481758  1
  H+  H208  1  0.28024196  0.89243358  1.00703579  1
  H+  H209  1  0.58789821  0.46126544  0.81093198  1
  H+  H210  1  0.58076029  0.08118584  0.80687614  1
  H+  H211  1  0.62668322  0.62798737  0.65554999  1
  H+  H212  1  0.87031184  -0.01981050  0.82841964  1
  H+  H213  1  0.48685672  0.61870364  0.65741854  1
  H+  H214  1  0.87665599  0.11038079  0.16574785  1
  H+  H215  1  0.73190152  0.10007251  0.51882975  1
  H+  H216  1  0.11134568  0.97571346  -0.01019603  1
  H+  H217  1  0.39228860  0.52791984  0.18454591  1
  H+  H218  1  0.35245236  0.26487860  0.84641855  1
  H+  H219  1  0.61924639  0.72318716  0.49250663  1
  H+  H220  1  0.53852760  0.12666372  0.49296914  1
  H+  H221  1  0.22001333  0.12282487  0.31657432  1
  H+  H222  1  0.47949495  0.86403044  0.99083011  1
  H+  H223  1  0.01562574  0.90898369  0.35515072  1
  H+  H224  1  0.94222061  0.82393694  0.52990955  1
  H+  H225  1  0.11790261  0.73213883  0.16661012  1
  H+  H226  1  0.63156324  0.52524658  0.32167966  1
  H+  H227  1  0.51017468  0.37727861  1.01097881  1
  H+  H228  1  0.76749214  0.87412415  0.49963532  1
  H+  H229  1  0.35109650  0.61374647  0.81863015  1
  H+  H230  1  0.51137935  0.12844129  0.01052546  1
  H+  H231  1  0.86496526  0.61874494  0.66333077  1
  H+  H232  1  0.77195519  0.37808441  0.67022510  1
  H+  H233  1  0.22333848  0.36340073  0.65812590  1
  H+  H234  1  -0.02908825  0.86473893  0.16541530  1
  H+  H235  1  0.73629988  0.10417624  0.34004490  1
  H+  H236  1  0.01289121  0.36521907  0.84380633  1
  H+  H237  1  0.46127948  0.64225987  0.34020877  1
  H+  H238  1  0.04412055  0.13038139  0.82977936  1
  H+  H239  1  0.35463547  0.38402357  0.82504672  1
  H+  H240  1  0.36044837  0.97415226  0.15742195  1
  H+  H241  1  0.13175863  0.49849655  0.84081440  1
  H+  H242  1  0.11129713  0.14446801  0.33612371  1
  H+  H243  1  0.94059008  0.39059384  0.81199092  1
  H+  H244  1  0.27413892  0.39092209  0.16367173  1
  H+  H245  1  0.87679166  0.64674503  0.01196259  1
  H+  H246  1  0.83173349  0.34030879  0.82938631  1
  H+  H247  1  0.61789696  0.89520988  0.00032734  1
  H+  H248  1  0.89917914  0.27642511  0.66142184  1
  H+  H249  1  0.38377410  0.86101428  0.66634058  1
  H+  H250  1  0.48599073  0.87987932  0.83643782  1
  H+  H251  1  0.10695354  0.08571849  0.50181005  1
  H+  H252  1  0.75832991  0.64886574  0.34483083  1
  H+  H253  1  0.10878720  0.38759775  0.01223703  1
  H+  H254  1  0.38240952  0.86333607  0.33463978  1
  H+  H255  1  0.33927296  0.92670485  0.73630029  1
  H+  H256  1  0.88054624  0.00575599  0.51426829  1
  H+  H257  1  0.90657180  0.11223922  -0.00134423  1
  H+  H258  1  0.61292108  0.73298261  0.16848048  1
  H+  H259  1  0.13610073  0.77246758  0.51291932  1
  H+  H260  1  0.88563747  0.35375591  0.50191557  1
  H+  H261  1  0.35768501  0.37964311  0.48533377  1
  H+  H262  1  0.35297793  0.46133211  0.48586688  1
  H+  H263  1  0.75033301  0.28557641  0.78841860  1
  H+  H264  1  0.07797236  0.94607751  0.50464757  1
  H+  H265  1  0.13446171  0.85853214  0.51776588  1
  H+  H266  1  0.45131113  0.11887658  0.31063596  1
  H+  H267  1  0.91717089  0.12281522  0.84429197  1
  H+  H268  1  0.35719731  0.72357503  0.50201016  1
  H+  H269  1  0.13047420  0.11355190  0.96985656  1
  H+  H270  1  0.37405161  0.51322603  0.83417811  1
  H+  H271  1  0.77792877  0.64880180  0.80218532  1
  H+  H272  1  0.58064130  0.65556933  0.89249543  1
  H+  H273  1  0.85777337  0.40766042  -0.01550547  1
  H+  H274  1  0.52583915  0.89339370  0.34871413  1
  H+  H275  1  0.10035265  0.14769627  0.15804360  1
  H+  H276  1  0.86849280  0.59847362  0.51061696  1
  H+  H277  1  0.27260450  0.88545200  0.16020547  1
  H+  H278  1  0.97793868  0.37932769  0.17201597  1
  H+  H279  1  0.63655679  0.31474798  0.93948594  1
  H+  H280  1  0.82509297  0.39848309  0.73076560  1
  H+  H281  1  0.76726186  0.37205729  0.33850097  1
  H+  H282  1  0.02195924  0.39007041  0.65335017  1
  H+  H283  1  0.86303903  0.12313776  0.50418129  1
  H+  H284  1  0.70663172  0.35001678  0.99221689  1
  H+  H285  1  0.00333860  0.64167753  0.00129222  1
  H+  H286  1  0.87825413  0.14987442  0.67437767  1
  H+  H287  1  0.37933775  0.27369475  0.99300354  1
  H+  H288  1  0.33923622  0.91779303  0.06635931  1
  H+  H289  1  0.13845684  0.52909676  0.18132779  1
  H+  H290  1  0.41970304  0.83595351  0.56876476  1
  H+  H291  1  0.07507453  0.15121560  0.43152504  1
  H+  H292  1  0.69330860  0.06555674  0.91625666  1
  H+  H293  1  0.16215637  0.84159145  0.23087807  1
  H+  H294  1  0.42370646  0.06228275  0.59497134  1
  H+  H295  1  0.33666831  0.67474474  0.04230366  1
  H+  H296  1  0.71022653  0.46126942  0.43661054  1
  H+  H297  1  0.76690122  0.14250778  0.14911751  1
  H+  H298  1  0.42379767  0.84967739  0.89370887  1
  H+  H299  1  0.60573758  0.16448852  0.43743232  1
  H+  H300  1  0.38630773  0.61135464  0.98166184  1
  H+  H301  1  0.66362397  0.62321771  0.93648395  1
  H+  H302  1  0.40018612  0.57313653  0.89456883  1
  H+  H303  1  0.65895735  0.07031991  0.60588010  1
  H+  H304  1  0.12266655  0.63748633  0.66117027  1
  H+  H305  1  0.85096891  0.90031307  0.42113478  1
  H+  H306  1  0.91915797  0.57072811  0.59641663  1
  H+  H307  1  0.42189678  0.32468791  0.59576107  1
  H+  H308  1  0.70557015  0.59532761  0.55691480  1
  H+  H309  1  0.58292618  0.91170892  0.43802516  1
  H+  H310  1  0.65462067  0.32583806  0.22755031  1
  H+  H311  1  0.91490092  0.83281505  0.92990821  1
  H+  H312  1  0.84214678  0.17221320  0.06838969  1
  H+  H313  1  0.83452916  0.14797880  0.41279824  1
  H+  H314  1  0.91734689  0.32785782  0.56197180  1
  H+  H315  1  0.03014472  0.86704205  0.45835330  1
  H+  H316  1  0.55992067  0.16891788  0.72783313  1
  H+  H317  1  0.32436006  0.91616680  0.40110276  1
  H+  H318  1  0.93993793  0.08564559  0.90317732  1
  H+  H319  1  0.63714760  0.86457604  0.17461944  1
  H+  H320  1  0.18440714  0.84800700  0.90833955  1
  H+  H321  1  0.66849090  0.32415191  0.60094392  1
  H+  H322  1  0.32059629  0.64503091  0.75152235  1
  H+  H323  1  0.56556942  0.16640303  0.09173034  1
  H+  H324  1  0.41977495  0.84030595  0.27623703  1
  H+  H325  1  0.36206398  0.87810918  0.49497188  1
  H+  H326  1  0.32726235  0.42081588  0.73519205  1
  H+  H327  1  0.88783182  0.80868089  0.59107925  1
  H+  H328  1  0.83779050  0.67103667  0.10306539  1
  H+  H329  1  0.59189088  0.41806705  0.38773121  1
  H+  H330  1  0.86119087  0.98675509  0.67260530  1
  H+  H331  1  0.49668024  0.23298860  0.77225214  1
  H+  H332  1  0.93052142  0.38007117  0.91770586  1
  H+  H333  1  0.06935226  0.67742241  0.40383723  1
  H+  H334  1  0.61132167  0.66932170  0.71444058  1
  H+  H335  1  0.56753505  0.40302049  0.09678191  1
  H+  H336  1  0.08090797  0.91315432  0.08691751  1
  H+  H337  1  0.33337734  0.42330003  0.10386062  1
  H+  H338  1  0.80283613  0.40810253  0.08320910  1
  H+  H339  1  0.31799303  0.17329190  0.38720077  1
  H+  H340  1  0.11405553  0.22356842  0.67312722  1
  H+  H341  1  0.80851703  0.66711809  0.40791545  1
  H+  H342  1  0.83914643  0.66491469  0.71469856  1
  H+  H343  1  0.12794209  0.87191843  0.32508695  1
  H+  H344  1  0.41006696  0.33605895  0.93584467  1
  H+  H345  1  0.17505962  0.59801056  0.58473262  1
  H+  H346  1  0.32918340  0.17629237  0.09105727  1
  H+  H347  1  0.39897120  0.08763822  0.22154461  1
  H+  H348  1  0.92039016  0.40222982  0.21316027  1
  H+  H349  1  0.85993365  0.18256556  0.73681203  1
  H+  H350  1  0.14360095  0.06334293  0.59816437  1
  H+  H351  1  0.57510217  0.40420489  0.72485032  1
  H+  H352  1  0.85575089  0.97403320  0.15347182  1
  H+  H353  1  0.15505903  0.59007249  0.28075833  1
  H+  H354  1  0.16752632  0.32751575  0.94808924  1
  H+  H355  1  0.57596616  0.67023521  0.10998587  1
  H+  H356  1  0.66610373  0.82528966  0.56108771  1
  H+  H357  1  0.65803731  0.83606645  0.27199165  1
  H+  H358  1  0.71035285  0.65659713  0.93242531  1
  H+  H359  1  0.33852222  0.65703192  0.13731565  1
  H+  H360  1  0.08893638  0.43715333  0.70668961  1
  H+  H361  1  0.10277084  0.95936256  0.39139257  1
  H+  H362  1  0.10200534  0.67823615  0.07385730  1
  H+  H363  1  0.57470123  0.90328741  0.10015108  1
  H+  H364  1  0.17381557  0.07682131  0.23037611  1
  H+  H365  1  0.51010393  0.62661267  0.84233824  1
  H+  H366  1  0.72641270  0.11029268  1.00841637  1
  H+  H367  1  0.08267784  0.91277429  0.73559866  1
  H+  H368  1  0.16215860  0.30909589  0.56374055  1
  H+  H369  1  0.89468951  0.29666858  0.27330533  1
  H+  H370  1  0.32848330  0.40547980  0.38989951  1
  H+  H371  1  0.08816093  0.42104019  0.43889649  1
  H+  H372  1  0.57481642  0.66224908  0.39833839  1
  H+  H373  1  0.68804703  0.86758343  0.92149175  1
  H+  H374  1  0.07517715  0.36692862  0.79183321  1
  H+  H375  1  0.91853263  0.08261028  0.60085992  1
  H+  H376  1  0.08057089  0.18027211  0.09460843  1
  H+  H377  1  0.44079554  0.56009536  0.56930848  1
  H+  H378  1  0.13073339  0.53625694  0.49926847  1
  H+  H379  1  0.16633520  0.33376215  0.23261093  1
  H+  H380  1  0.58217991  0.92431575  0.73987700  1
  H+  H381  1  0.14134328  0.98740234  0.81916681  1
  H+  H382  1  0.07110809  0.63322064  0.74990306  1
  H+  H383  1  0.66343139  0.59037799  0.26589481  1
  O2-  O384  1  0.07711715  0.18263317  0.14255986  1
  O2-  O385  1  0.07189415  0.14278201  0.47710343  1
  O2-  O386  1  0.10326705  0.16484292  0.81186193  1
  O2-  O387  1  0.08166188  0.42166518  0.15095286  1
  O2-  O388  1  0.08121674  0.43272629  0.48101272  1
  O2-  O389  1  0.07802612  0.38764070  0.83322621  1
  O2-  O390  1  0.08475135  0.67070130  0.15321745  1
  O2-  O391  1  0.07631017  0.67609312  0.48082467  1
  O2-  O392  1  0.05665985  0.61381772  0.79437282  1
  O2-  O393  1  0.08019433  0.90947832  0.13230293  1
  O2-  O394  1  0.05053490  0.88181340  0.50007918  1
  O2-  O395  1  0.09710458  0.92617031  0.81479953  1
  O2-  O396  1  0.33534784  0.18030577  0.13674442  1
  O2-  O397  1  0.29343194  0.18468982  0.46617646  1
  O2-  O398  1  0.24920708  0.08992724  0.81832883  1
  O2-  O399  1  0.33532115  0.41986334  0.14927777  1
  O2-  O400  1  0.32096605  0.40192889  0.46998814  1
  O2-  O401  1  0.32372191  0.41380085  0.80973453  1
  O2-  O402  1  0.33777466  0.66256904  0.18119564  1
  O2-  O403  1  0.32383121  0.66298085  0.48851498  1
  O2-  O404  1  0.31521939  0.63823808  0.79915175  1
  O2-  O405  1  0.33338098  0.91313283  0.14523443  1
  O2-  O406  1  0.33257694  0.91052846  0.48042849  1
  O2-  O407  1  0.34831777  0.93439766  0.80980566  1
  O2-  O408  1  0.56266638  0.17165023  0.14113339  1
  O2-  O409  1  0.60022839  0.16276446  0.48314383  1
  O2-  O410  1  0.51967742  0.19912673  0.79038966  1
  O2-  O411  1  0.56838393  0.40816417  0.14511258  1
  O2-  O412  1  0.65738212  0.44723410  0.45833085  1
  O2-  O413  1  0.55665256  0.39781604  0.80393474  1
  O2-  O414  1  0.58120252  0.67073084  0.15557681  1
  O2-  O415  1  0.59508887  0.66178709  0.47765900  1
  O2-  O416  1  0.57421048  0.65511533  0.84827574  1
  O2-  O417  1  0.58057652  0.91195022  0.14514481  1
  O2-  O418  1  0.58021139  0.90652755  0.48394920  1
  O2-  O419  1  0.59207417  0.92088460  0.81058345  1
  O2-  O420  1  0.83116864  0.17629825  0.14222783  1
  O2-  O421  1  0.83044794  0.15182167  0.48988343  1
  O2-  O422  1  0.86306582  0.17617781  0.81998982  1
  O2-  O423  1  0.79677401  0.39768532  0.12759866  1
  O2-  O424  1  0.83749038  0.41279309  0.47783274  1
  O2-  O425  1  0.78089148  0.34145460  0.80846951  1
  O2-  O426  1  0.83605654  0.66952878  0.14873109  1
  O2-  O427  1  0.80218441  0.64898659  0.49494700  1
  O2-  O428  1  0.84069306  0.67878668  0.79659613  1
  O2-  O429  1  0.82497424  0.91200783  0.14012040  1
  O2-  O430  1  0.83169446  0.90131422  0.49324606  1
  O2-  O431  1  0.83599207  0.92130866  0.81092641  1
  O2-  O432  1  0.18961298  0.06147451  0.18942442  1
  O2-  O433  1  0.13453918  0.05155347  0.51848681  1
  O2-  O434  1  0.24329270  0.16042449  0.84748183  1
  O2-  O435  1  0.16802286  0.34148119  0.18726844  1
  O2-  O436  1  0.15969187  0.29743875  0.51956745  1
  O2-  O437  1  0.17518467  0.32076435  0.86688373  1
  O2-  O438  1  0.16520771  0.58769508  0.19931415  1
  O2-  O439  1  0.16164604  0.59792927  0.51296149  1
  O2-  O440  1  0.16149130  0.56241550  0.84595879  1
  O2-  O441  1  0.16777847  0.83934636  0.18579237  1
  O2-  O442  1  0.17073486  0.83321689  0.52880590  1
  O2-  O443  1  0.18795535  0.85269348  0.86201576  1
  O2-  O444  1  0.40617382  0.08936645  0.17636795  1
  O2-  O445  1  0.42711144  0.06367985  0.52199920  1
  O2-  O446  1  0.39377890  0.08584108  0.85749444  1
  O2-  O447  1  0.41753639  0.34135671  0.18140921  1
  O2-  O448  1  0.44655938  0.38691516  0.53158896  1
  O2-  O449  1  0.39545899  0.32531475  0.85557649  1
  O2-  O450  1  0.42082972  0.58523990  0.20376683  1
  O2-  O451  1  0.45312197  0.53677506  0.53214989  1
  O2-  O452  1  0.40173040  0.57511901  0.84816100  1
  O2-  O453  1  0.42052369  0.83593009  0.19865788  1
  O2-  O454  1  0.41703336  0.83546938  0.52373994  1
  O2-  O455  1  0.42491666  0.85504914  0.84871441  1
  O2-  O456  1  0.66329178  0.08411635  0.14746587  1
  O2-  O457  1  0.66998428  0.07032615  0.53248209  1
  O2-  O458  1  0.71629932  0.04548122  0.88287454  1
  O2-  O459  1  0.64756685  0.32782753  0.18182196  1
  O2-  O460  1  0.67282152  0.32521528  0.52536775  1
  O2-  O461  1  0.63702485  0.32408481  0.86304926  1
  O2-  O462  1  0.66948092  0.59593653  0.18830280  1
  O2-  O463  1  0.70964012  0.60119524  0.51064276  1
  O2-  O464  1  0.65821958  0.57005724  0.82199891  1
  O2-  O465  1  0.66624549  0.83432548  0.19146989  1
  O2-  O466  1  0.66486034  0.82217135  0.51462224  1
  O2-  O467  1  0.66975941  0.83387084  0.84408474  1
  O2-  O468  1  0.90465343  0.07643565  0.17458919  1
  O2-  O469  1  0.91208027  0.06841041  0.52492156  1
  O2-  O470  1  0.94085942  0.08560044  0.85761319  1
  O2-  O471  1  0.91735925  0.35648953  0.18749556  1
  O2-  O472  1  0.91598271  0.32337207  0.51666529  1
  O2-  O473  1  0.92200768  0.34830124  0.84473650  1
  O2-  O474  1  0.92444641  0.61052058  0.20194642  1
  O2-  O475  1  0.90723069  0.57566025  0.51993249  1
  O2-  O476  1  0.88226261  0.55575283  0.82160885  1
  O2-  O477  1  0.91399195  0.84040206  0.18475602  1
  O2-  O478  1  0.88190177  0.79685687  0.54401847  1
  O2-  O479  1  0.92111202  0.83902855  0.84883660  1
  O2-  O480  1  0.16083752  0.09463753  0.29852109  1
  O2-  O481  1  0.14782316  0.06838488  0.64330306  1
  O2-  O482  1  0.16671207  0.08832521  0.95926782  1
  O2-  O483  1  0.16288981  0.32706700  0.30976736  1
  O2-  O484  1  0.16388230  0.32685014  0.64317453  1
  O2-  O485  1  0.16479474  0.33353145  0.99274808  1
  O2-  O486  1  0.14236172  0.57710057  0.32462230  1
  O2-  O487  1  0.17832174  0.59350155  0.63099583  1
  O2-  O488  1  0.16618980  0.58598625  0.97529926  1
  O2-  O489  1  0.15591765  0.83968839  0.31077195  1
  O2-  O490  1  0.17351600  0.83589470  0.65239377  1
  O2-  O491  1  0.17768889  0.84290418  0.98076122  1
  O2-  O492  1  0.39096500  0.08238047  0.30001954  1
  O2-  O493  1  0.42303920  0.06730521  0.64110883  1
  O2-  O494  1  0.41290155  0.08573738  0.98218981  1
  O2-  O495  1  0.41435765  0.33000679  0.30883893  1
  O2-  O496  1  0.41544264  0.29519241  0.63564590  1
  O2-  O497  1  0.41211064  0.33572575  0.98108950  1
  O2-  O498  1  0.40304904  0.63708214  0.33668619  1
  O2-  O499  1  0.42557575  0.59241345  0.64436488  1
  O2-  O500  1  0.41138574  0.57593793  0.96776120  1
  O2-  O501  1  0.41904644  0.83958784  0.32171639  1
  O2-  O502  1  0.41675574  0.83350524  0.65187499  1
  O2-  O503  1  0.41929397  0.83628860  0.97361901  1
  O2-  O504  1  0.67653894  0.08287187  0.32439277  1
  O2-  O505  1  0.65055473  0.06745454  0.65158517  1
  O2-  O506  1  0.66668533  0.07992960  0.99203319  1
  O2-  O507  1  0.65837964  0.32017693  0.30269017  1
  O2-  O508  1  0.66618648  0.32208439  0.64668838  1
  O2-  O509  1  0.64290841  0.31526501  0.98490487  1
  O2-  O510  1  0.65946875  0.58719191  0.31141319  1
  O2-  O511  1  0.67628012  0.57626150  0.63021362  1
  O2-  O512  1  0.66615438  0.57883759  1.04874160  1
  O2-  O513  1  0.65220704  0.83446340  0.31696567  1
  O2-  O514  1  0.67265009  0.83103710  0.63261582  1
  O2-  O515  1  0.70291143  0.90610692  0.95718889  1
  O2-  O516  1  0.92480122  0.06614092  0.33095366  1
  O2-  O517  1  0.91788214  0.08740154  0.64631676  1
  O2-  O518  1  0.93762272  0.08363270  0.98308428  1
  O2-  O519  1  0.90376686  0.30500060  0.31731845  1
  O2-  O520  1  0.92462043  0.33559861  0.64032581  1
  O2-  O521  1  0.92714597  0.39115683  0.96207592  1
  O2-  O522  1  0.91181528  0.61920178  0.31103077  1
  O2-  O523  1  0.92712615  0.57369910  0.64167412  1
  O2-  O524  1  0.94136075  0.60412244  0.99072015  1
  O2-  O525  1  0.91534968  0.85517693  0.37857761  1
  O2-  O526  1  0.90511892  0.83602588  0.65535620  1
  O2-  O527  1  0.91843509  0.83306804  0.97514896  1
  O2-  O528  1  0.09737565  0.17611892  0.02854498  1
  O2-  O529  1  0.08053399  0.16954460  0.35770931  1
  O2-  O530  1  0.08331717  0.16426804  0.69046156  1
  O2-  O531  1  0.08006134  0.42031190  0.02583842  1
  O2-  O532  1  0.07364251  0.41410269  0.31246406  1
  O2-  O533  1  0.08674908  0.42414182  0.66358043  1
  O2-  O534  1  0.10674633  0.68493229  0.02860224  1
  O2-  O535  1  0.06508521  0.67456819  0.35822394  1
  O2-  O536  1  0.08958519  0.66256126  0.68100705  1
  O2-  O537  1  0.08411860  0.91759773  0.00788471  1
  O2-  O538  1  0.08043298  0.93814111  0.35083286  1
  O2-  O539  1  0.07759013  0.90997065  0.69043918  1
  O2-  O540  1  0.32580954  0.16751027  0.01587861  1
  O2-  O541  1  0.32184647  0.17055608  0.34244109  1
  O2-  O542  1  0.29276558  0.11780005  0.70371947  1
  O2-  O543  1  0.32988447  0.42156729  0.02503431  1
  O2-  O544  1  0.33076946  0.40124182  0.34510602  1
  O2-  O545  1  0.33139972  0.42808236  0.68936222  1
  O2-  O546  1  0.33793447  0.67311566  -0.00185246  1
  O2-  O547  1  0.41295838  0.70332395  0.37968675  1
  O2-  O548  1  0.33219948  0.66178695  0.68468744  1
  O2-  O549  1  0.34162052  0.92208007  0.02092159  1
  O2-  O550  1  0.31949998  0.91489768  0.35578655  1
  O2-  O551  1  0.33715161  0.92343218  0.69000011  1
  O2-  O552  1  0.57046416  0.15886442  0.02989579  1
  O2-  O553  1  0.60784130  0.16448533  0.36103589  1
  O2-  O554  1  0.57267363  0.16128642  0.68483535  1
  O2-  O555  1  0.56759576  0.39916025  0.03159861  1
  O2-  O556  1  0.58226363  0.41101199  0.34336214  1
  O2-  O557  1  0.58042792  0.40419568  0.67971326  1
  O2-  O558  1  0.57493186  0.66087744  0.03337010  1
  O2-  O559  1  0.56392817  0.66187942  0.35395353  1
  O2-  O560  1  0.59569484  0.65788269  0.67174387  1
  O2-  O561  1  0.57709689  0.90955786  0.02126155  1
  O2-  O562  1  0.58598940  0.92045717  0.36362095  1
  O2-  O563  1  0.57581997  0.92358401  0.69362334  1
  O2-  O564  1  0.83968903  0.16249911  0.02288581  1
  O2-  O565  1  0.83598433  0.14418981  0.36736815  1
  O2-  O566  1  0.85840468  0.18801257  0.69215232  1
  O2-  O567  1  0.81100828  0.42004491  0.00149891  1
  O2-  O568  1  0.82401934  0.39661197  0.35833262  1
  O2-  O569  1  0.83213302  0.40816494  0.68648319  1
  O2-  O570  1  0.84122775  0.67165199  0.02625847  1
  O2-  O571  1  0.81692678  0.68139524  0.36409101  1
  O2-  O572  1  0.82692154  0.64252414  0.67264915  1
  O2-  O573  1  0.83973918  0.91614650  0.01870605  1
  O2-  O574  1  0.86545251  0.89955448  0.37634377  1
  O2-  O575  1  0.82934828  0.92545658  0.68671547  1
