# generated using pymatgen
data_H2O
_symmetry_space_group_name_H-M   'P 1'
_cell_length_a   17.87614360
_cell_length_b   17.92213062
_cell_length_c   21.96196752
_cell_angle_alpha   89.99718312
_cell_angle_beta   89.94146649
_cell_angle_gamma   119.82939126
_symmetry_Int_Tables_number   1
_chemical_formula_structural   H2O
_chemical_formula_sum   'H384 O192'
_cell_volume   6103.92366595
_cell_formula_units_Z   192
loop_
 _symmetry_equiv_pos_site_id
 _symmetry_equiv_pos_as_xyz
  1  'x, y, z'
loop_
 _atom_type_symbol
 _atom_type_oxidation_number
  H+  1.0
  O2-  -2.0
loop_
 _atom_site_type_symbol
 _atom_site_label
 _atom_site_symmetry_multiplicity
 _atom_site_fract_x
 _atom_site_fract_y
 _atom_site_fract_z
 _atom_site_occupancy
  H+  H0  1  0.11771940  0.46981607  0.48666282  1
  H+  H1  1  0.13292912  0.32920848  0.65631846  1
  H+  H2  1  0.73538039  0.35616766  0.50169347  1
  H+  H3  1  0.15787936  0.15604115  0.85421094  1
  H+  H4  1  0.62167740  0.57957642  0.00061904  1
  H+  H5  1  0.60264169  0.45467970  0.03555620  1
  H+  H6  1  0.61248957  0.65158440  0.16327590  1
  H+  H7  1  0.62750695  0.10803827  0.66956769  1
  H+  H8  1  0.85683678  0.62446760  0.67741856  1
  H+  H9  1  0.11848393  0.72224991  0.49651727  1
  H+  H10  1  0.84335440  0.58445386  0.12725804  1
  H+  H11  1  0.88751838  0.12327165  0.50511856  1
  H+  H12  1  0.11687445  0.11719767  0.33697469  1
  H+  H13  1  0.87009507  0.98358643  0.32971455  1
  H+  H14  1  0.14181616  0.35527530  0.49920900  1
  H+  H15  1  0.47739831  0.59332037  0.66042867  1
  H+  H16  1  0.43248883  0.13111653  0.32934365  1
  H+  H17  1  0.46908930  0.84308768  0.51206316  1
  H+  H18  1  0.71463406  0.35491052  0.31237843  1
  H+  H19  1  0.89442506  0.27893729  0.49616943  1
  H+  H20  1  0.28283705  0.87466042  0.34173499  1
  H+  H21  1  0.02730356  0.87275226  0.49086336  1
  H+  H22  1  0.00859747  0.27034870  0.68732163  1
  H+  H23  1  0.17181126  0.01720350  0.16457876  1
  H+  H24  1  0.64753256  0.88922950  0.98957202  1
  H+  H25  1  0.38278741  0.85056025  0.51232793  1
  H+  H26  1  0.12826021  0.78977914  0.66491947  1
  H+  H27  1  0.85695413  0.63448871  0.34556417  1
  H+  H28  1  0.86719404  0.44816130  0.09799567  1
  H+  H29  1  0.83651528  -0.00762180  0.48433999  1
  H+  H30  1  0.72802812  0.61725581  0.50021991  1
  H+  H31  1  0.12843388  0.12432609  0.16056201  1
  H+  H32  1  0.35863311  0.63368786  0.34432795  1
  H+  H33  1  1.01984139  0.62418505  0.34910738  1
  H+  H34  1  0.94335950  0.49341171  0.20913417  1
  H+  H35  1  0.38863081  0.60845631  0.50561406  1
  H+  H36  1  0.35376107  0.21576059  0.02371740  1
  H+  H37  1  0.10218137  0.98673974  0.68268229  1
  H+  H38  1  0.36386720  0.70737833  0.69032727  1
  H+  H39  1  0.91238405  0.50079570  0.65423747  1
  H+  H40  1  0.77051967  0.89027476  0.15442482  1
  H+  H41  1  0.60186571  -0.01234782  0.52280877  1
  H+  H42  1  0.89273231  0.76762940  0.65580369  1
  H+  H43  1  0.90997776  0.34197697  0.25844698  1
  H+  H44  1  -0.03441296  0.85674679  -0.00591546  1
  H+  H45  1  0.22327841  0.87058571  0.65953238  1
  H+  H46  1  0.96862184  0.60171227  0.99813354  1
  H+  H47  1  0.31361185  0.14562105  0.07809072  1
  H+  H48  1  0.86128219  0.22818762  0.30633652  1
  H+  H49  1  0.27350257  0.87140215  0.49981459  1
  H+  H50  1  0.27706390  0.37350140  0.66374286  1
  H+  H51  1  0.34734597  0.41317945  0.82997664  1
  H+  H52  1  0.63657362  0.79674191  0.32140483  1
  H+  H53  1  0.37806198  0.66269604  0.01073699  1
  H+  H54  1  0.22921044  0.68266193  0.63261744  1
  H+  H55  1  0.86123456  0.63893397  0.00891146  1
  H+  H56  1  0.59970723  0.44559090  0.25031249  1
  H+  H57  1  0.63251932  0.67090488  0.83457418  1
  H+  H58  1  0.42917159  0.85236696  0.23739797  1
  H+  H59  1  -0.01535180  0.36564002  0.50243382  1
  H+  H60  1  0.87377871  0.14084089  0.17260907  1
  H+  H61  1  0.86541686  0.63138652  0.49607567  1
  H+  H62  1  0.86490017  -0.01813561  0.67485020  1
  H+  H63  1  0.98993114  0.11561879  0.31822392  1
  H+  H64  1  0.03012547  0.11410108  0.15954395  1
  H+  H65  1  0.64089797  0.80024587  0.83145438  1
  H+  H66  1  0.88209391  0.34738860  0.15784051  1
  H+  H67  1  0.39005790  0.52120992  0.33161488  1
  H+  H68  1  0.70960076  0.11926843  0.31652231  1
  H+  H69  1  0.89951472  0.01048806  0.16397717  1
  H+  H70  1  0.52702031  0.64885719  0.49444119  1
  H+  H71  1  0.62414888  0.14749407  1.01750077  1
  H+  H72  1  0.35918680  0.71700546  0.50000559  1
  H+  H73  1  0.12153302  0.26455750  0.84123452  1
  H+  H74  1  0.46856494  0.85559207  0.66777657  1
  H+  H75  1  0.97724762  0.85846034  0.66137574  1
  H+  H76  1  0.36894956  0.62323895  0.67610267  1
  H+  H77  1  0.85581156  0.88628943  -0.00735244  1
  H+  H78  1  0.63989854  0.14608119  0.83403880  1
  H+  H79  1  0.63980780  0.00765359  1.01022295  1
  H+  H80  1  0.34241863  0.47290565  0.16018212  1
  H+  H81  1  0.88531231  0.25986040  0.17856204  1
  H+  H82  1  0.40015301  0.31990169  0.26130484  1
  H+  H83  1  0.60715548  0.22071626  0.66678840  1
  H+  H84  1  0.52928237  0.90527652  0.15853553  1
  H+  H85  1  0.83078511  0.16497467  0.25102155  1
  H+  H86  1  0.69000794  0.21936661  0.48397562  1
  H+  H87  1  0.87454492  0.77010584  0.98940197  1
  H+  H88  1  0.20411080  0.35748517  0.84109795  1
  H+  H89  1  0.86060210  0.23863118  0.82068779  1
  H+  H90  1  0.08477778  0.92093209  0.76894505  1
  H+  H91  1  0.47979124  0.36012516  0.30526964  1
  H+  H92  1  0.62056850  0.37557987  0.66413123  1
  H+  H93  1  0.27455964  0.88510690  0.01119264  1
  H+  H94  1  0.95336200  0.33112489  0.65381917  1
  H+  H95  1  0.08393851  0.36267765  0.82140002  1
  H+  H96  1  0.89446300  0.12974434  0.84215290  1
  H+  H97  1  0.97071368  0.11216201  0.50074311  1
  H+  H98  1  0.35246124  0.21967239  0.67666596  1
  H+  H99  1  0.86212881  0.90002429  0.83232292  1
  H+  H100  1  0.89775824  0.11685172  0.66067014  1
  H+  H101  1  0.13404500  0.54133974  0.94622048  1
  H+  H102  1  0.14639582  0.75818937  0.32267066  1
  H+  H103  1  0.32534815  0.10795005  0.17523158  1
  H+  H104  1  0.08662036  0.47864730  0.00232498  1
  H+  H105  1  0.18018382  0.81434167  0.26203708  1
  H+  H106  1  0.36208056  0.96187720  0.50135267  1
  H+  H107  1  0.51769917  0.35067393  0.48656778  1
  H+  H108  1  0.85518292  0.37241404  0.66851615  1
  H+  H109  1  0.75749610  0.88946982  0.98807137  1
  H+  H110  1  1.04081936  0.12144213  0.67002218  1
  H+  H111  1  0.49654804  0.93677424  0.83932135  1
  H+  H112  1  0.39577926  0.35627735  0.66272442  1
  H+  H113  1  0.74672343  0.64542599  0.84532335  1
  H+  H114  1  0.69646632  0.63260606  0.90860810  1
  H+  H115  1  0.35869560  0.34688847  0.16934139  1
  H+  H116  1  0.97886554  0.61718304  0.84404337  1
  H+  H117  1  0.76386352  0.62451144  0.36158441  1
  H+  H118  1  0.59542311  0.93971783  1.06432701  1
  H+  H119  1  0.48317768  0.35115087  0.66526190  1
  H+  H120  1  0.35958590  0.21289479  0.49228270  1
  H+  H121  1  0.87630958  0.77162870  0.33559969  1
  H+  H122  1  0.29435042  0.15937989  0.83897447  1
  H+  H123  1  0.61551035  0.89884814  0.15448037  1
  H+  H124  1  0.12628451  0.09120281  0.49955765  1
  H+  H125  1  0.89578323  0.77348984  0.50286975  1
  H+  H126  1  0.87992904  0.76735259  0.15621075  1
  H+  H127  1  0.12434282  0.22498068  0.01233336  1
  H+  H128  1  0.84716661  0.38237798  0.33384358  1
  H+  H129  1  0.37134524  0.47319049  0.49546909  1
  H+  H130  1  0.83762238  0.86083027  0.13911831  1
  H+  H131  1  0.37898763  0.01816429  0.66343058  1
  H+  H132  1  0.37386376  0.09099262  0.50581264  1
  H+  H133  1  0.20945555  0.61028123  0.17585134  1
  H+  H134  1  0.62086278  0.50991154  0.86427712  1
  H+  H135  1  1.00452803  0.52637078  0.62792869  1
  H+  H136  1  0.28156772  0.38289966  0.49294983  1
  H+  H137  1  0.02071103  0.13357338  0.82951626  1
  H+  H138  1  1.06473937  0.62207244  0.16813916  1
  H+  H139  1  0.26244957  0.34736730  0.32203135  1
  H+  H140  1  0.13408378  0.59592779  0.84889454  1
  H+  H141  1  0.58300811  0.16964784  0.07530061  1
  H+  H142  1  0.88664070  0.53252162  0.83833578  1
  H+  H143  1  0.69922966  0.89820350  0.48214540  1
  H+  H144  1  0.40135576  0.88518120  -0.00566210  1
  H+  H145  1  0.11334887  0.72070594  0.83773554  1
  H+  H146  1  0.37661402  0.90333578  0.16645838  1
  H+  H147  1  0.35531555  0.38189389  1.01151669  1
  H+  H148  1  0.69899824  0.35301347  0.97497839  1
  H+  H149  1  0.60999985  0.98571183  0.34298381  1
  H+  H150  1  0.76976848  0.40850643  0.80722685  1
  H+  H151  1  0.10948985  0.70360307  0.00967636  1
  H+  H152  1  0.39316992  0.35536206  0.50952243  1
  H+  H153  1  0.41337146  0.32725826  0.95623612  1
  H+  H154  1  0.38990111  0.75648384  1.00012873  1
  H+  H155  1  0.84703624  0.21099816  0.66740160  1
  H+  H156  1  0.13482560  0.60528728  0.50357343  1
  H+  H157  1  0.52502680  0.89317625  0.34293446  1
  H+  H158  1  0.93044055  0.83369617  0.56013814  1
  H+  H159  1  0.61337678  0.14441813  0.16314559  1
  H+  H160  1  0.09478700  0.60560913  0.01018457  1
  H+  H161  1  0.60768824  0.60058917  0.67451438  1
  H+  H162  1  0.63617682  0.88825689  0.83275776  1
  H+  H163  1  0.85168678  0.46331371  -0.02452833  1
  H+  H164  1  0.52420867  0.14483388  0.16206021  1
  H+  H165  1  0.67912843  0.57612405  0.17253510  1
  H+  H166  1  0.13182001  0.84718179  0.99961165  1
  H+  H167  1  0.10341595  0.38386229  0.33094012  1
  H+  H168  1  0.37645416  0.52228873  -0.00215093  1
  H+  H169  1  0.97382466  0.76369897  0.22069413  1
  H+  H170  1  0.23687919  0.85736873  0.16812011  1
  H+  H171  1  0.89042660  0.11478291  1.00824353  1
  H+  H172  1  0.61909594  0.42136377  0.85889956  1
  H+  H173  1  0.61491964  0.38684629  0.29426703  1
  H+  H174  1  0.89038646  0.03866767  0.84584699  1
  H+  H175  1  0.12681530  0.12863092  0.01380913  1
  H+  H176  1  0.81553401  0.54252169  0.11099100  1
  H+  H177  1  0.77571397  0.90084770  0.32724247  1
  H+  H178  1  0.37508213  0.14417548  0.83361405  1
  H+  H179  1  0.91249368  0.24770334  0.04253644  1
  H+  H180  1  0.87475978  0.51552896  0.33847269  1
  H+  H181  1  0.36090145  -0.02111036  1.00975179  1
  H+  H182  1  0.93506628  0.07214906  0.22286587  1
  H+  H183  1  0.25888433  0.38016558  0.15526354  1
  H+  H184  1  0.64485696  0.54002704  0.42014626  1
  H+  H185  1  0.39653778  0.78090300  0.33013778  1
  H+  H186  1  0.11530417  0.47786284  0.33728264  1
  H+  H187  1  0.21700650  0.65660073  0.66161636  1
  H+  H188  1  0.62121501  1.00194771  0.81362064  1
  H+  H189  1  0.35690122  0.87847304  0.67167449  1
  H+  H190  1  0.31075062  0.47585224  0.80701659  1
  H+  H191  1  0.30161098  0.74247861  0.86204588  1
  H+  H192  1  0.72529427  0.60690958  0.64732087  1
  H+  H193  1  0.60775276  0.88284611  0.67912765  1
  H+  H194  1  0.87177725  0.73796487  0.82315261  1
  H+  H195  1  0.22491028  0.10184745  1.00572769  1
  H+  H196  1  0.60436455  0.74637016  0.49131558  1
  H+  H197  1  0.93062403  0.56901346  0.56033992  1
  H+  H198  1  0.27116067  0.62585280  0.49637930  1
  H+  H199  1  0.71597900  0.10343484  0.66632746  1
  H+  H200  1  0.34032129  0.24951470  0.17437160  1
  H+  H201  1  0.62200177  0.46468836  0.66961657  1
  H+  H202  1  0.13804318  0.53512890  0.66257851  1
  H+  H203  1  0.87014891  0.38847913  0.48589123  1
  H+  H204  1  0.13177333  0.87686949  0.15405289  1
  H+  H205  1  0.13411305  0.67758022  0.68447034  1
  H+  H206  1  0.50750696  0.67223078  0.85613058  1
  H+  H207  1  1.02042418  0.89536967  0.34355745  1
  H+  H208  1  0.64545617  0.62935136  0.49866335  1
  H+  H209  1  0.36839652  0.66937782  0.15536089  1
  H+  H210  1  0.34882870  0.41468734  0.40374815  1
  H+  H211  1  0.53464139  0.16887301  0.82718004  1
  H+  H212  1  0.52432942  0.74381983  0.37454103  1
  H+  H213  1  0.58443474  0.13236449  0.32087312  1
  H+  H214  1  0.37644986  0.22084560  0.33493801  1
  H+  H215  1  0.96759034  0.36904263  0.31958752  1
  H+  H216  1  0.61609840  0.40970610  0.12080503  1
  H+  H217  1  0.10437902  -0.03882123  1.00631177  1
  H+  H218  1  0.74126781  0.67613556  0.16429865  1
  H+  H219  1  0.62890136  0.78259914  0.16640506  1
  H+  H220  1  0.76741278  0.15082697  1.01858140  1
  H+  H221  1  0.64542041  0.78529946  0.66263553  1
  H+  H222  1  0.13334214  0.25541924  0.16997037  1
  H+  H223  1  0.21890381  0.85881526  0.84250071  1
  H+  H224  1  0.51746408  0.64134636  0.15941854  1
  H+  H225  1  0.29288337  0.12769853  0.33584749  1
  H+  H226  1  0.03420791  0.63577940  0.67538990  1
  H+  H227  1  0.63205121  0.50388459  0.35251551  1
  H+  H228  1  0.20014653  0.12977184  0.67789047  1
  H+  H229  1  0.66356025  0.57843714  0.58763643  1
  H+  H230  1  0.37204474  0.10390293  0.66439152  1
  H+  H231  1  0.20374757  0.56511464  0.84714390  1
  H+  H232  1  0.64249057  0.03450335  0.16799569  1
  H+  H233  1  0.51760377  0.61257332  0.01159315  1
  H+  H234  1  0.38208113  0.38900601  0.34244945  1
  H+  H235  1  0.86967040  0.35362416  0.92178455  1
  H+  H236  1  0.87843295  0.86236370  0.32636991  1
  H+  H237  1  0.39842586  0.79838859  0.17400746  1
  H+  H238  1  0.01964901  0.38102532  0.17181396  1
  H+  H239  1  0.15470948  0.76113200  0.16361384  1
  H+  H240  1  0.32476978  0.16572976  0.73765963  1
  H+  H241  1  0.15305011  0.25348394  0.65064897  1
  H+  H242  1  0.32982389  0.98158900  0.81511829  1
  H+  H243  1  0.11469974  -0.02518737  0.83057226  1
  H+  H244  1  0.30257139  0.56097759  0.19895023  1
  H+  H245  1  0.38970885  0.11383410  1.00414114  1
  H+  H246  1  0.56952951  0.69842735  0.40562142  1
  H+  H247  1  0.46091840  0.50181991  0.91361003  1
  H+  H248  1  0.07901280  0.43942950  0.64493968  1
  H+  H249  1  0.63777425  0.38843067  0.76316646  1
  H+  H250  1  0.91532560  0.58720085  0.93623639  1
  H+  H251  1  0.86072642  0.98472563  -0.00385528  1
  H+  H252  1  0.48020069  0.11390854  1.00341788  1
  H+  H253  1  0.13166376  0.21005165  0.33266540  1
  H+  H254  1  0.08387304  0.15081171  0.77076062  1
  H+  H255  1  0.77705399  0.14530312  0.82636476  1
  H+  H256  1  0.78019911  0.17463971  0.46783793  1
  H+  H257  1  0.46734046  0.62012362  0.32894035  1
  H+  H258  1  0.21771852  0.35173367  -0.00391946  1
  H+  H259  1  0.85028154  0.39046602  0.81924526  1
  H+  H260  1  0.07488698  0.34523207  1.02017537  1
  H+  H261  1  0.39389687  0.86969765  0.33511137  1
  H+  H262  1  -0.01601802  0.60985620  0.50076618  1
  H+  H263  1  0.77562181  0.90751962  0.83157353  1
  H+  H264  1  0.36559392  0.91970543  0.82809989  1
  H+  H265  1  0.18388684  0.07364616  0.26835830  1
  H+  H266  1  0.38653752  0.51027489  0.65375273  1
  H+  H267  1  0.21761039  0.09721947  0.50044926  1
  H+  H268  1  0.40354124  0.29262614  0.85620634  1
  H+  H269  1  0.11803073  0.90535405  0.67571898  1
  H+  H270  1  1.05051822  0.88562607  0.16797075  1
  H+  H271  1  0.28824541  0.74676901  0.89368232  1
  H+  H272  1  0.97443136  0.87060465  0.83931576  1
  H+  H273  1  -0.00568708  0.36394597  0.81326441  1
  H+  H274  1  0.38032328  1.02711431  0.17691948  1
  H+  H275  1  0.48203276  0.52375464  0.88443308  1
  H+  H276  1  0.90281380  0.12114211  0.30421654  1
  H+  H277  1  0.72908507  0.87764286  0.67090927  1
  H+  H278  1  0.14393797  1.01662579  0.32940784  1
  H+  H279  1  0.51429692  0.13415375  0.67383784  1
  H+  H280  1  0.72637568  0.35248211  0.65118329  1
  H+  H281  1  0.73392601  0.12143189  0.17786129  1
  H+  H282  1  0.10457542  0.37088085  0.17229268  1
  H+  H283  1  0.11120767  0.21553969  0.48603460  1
  H+  H284  1  0.35919672  0.60354304  0.83506272  1
  H+  H285  1  0.13633683  0.85416740  0.50211650  1
  H+  H286  1  0.11655344  -0.03759893  0.49200467  1
  H+  H287  1  0.60220009  -0.02971996  0.67598021  1
  H+  H288  1  0.33616041  0.90386309  0.40433811  1
  H+  H289  1  0.08368058  0.40792193  0.42882172  1
  H+  H290  1  0.93844421  0.82037557  0.25075978  1
  H+  H291  1  0.32569740  0.40724637  0.72664979  1
  H+  H292  1  0.07872900  0.15467474  0.42764318  1
  H+  H293  1  0.17005437  0.32074191  0.55728832  1
  H+  H294  1  0.17546941  0.09678369  0.94449960  1
  H+  H295  1  0.64302745  0.88666595  0.31915773  1
  H+  H296  1  0.61896902  0.26506030  0.99718065  1
  H+  H297  1  0.46593425  0.34753320  1.01979579  1
  H+  H298  1  0.49766903  0.89888518  0.98943933  1
  H+  H299  1  0.12888484  0.85515798  0.84584735  1
  H+  H300  1  0.62210903  0.26990939  0.29797393  1
  H+  H301  1  0.91288109  0.09350433  0.94136581  1
  H+  H302  1  0.47040078  0.45124321  0.77669372  1
  H+  H303  1  0.53835061  0.54914014  0.72428211  1
  H+  H304  1  0.46279635  0.71713184  0.89119871  1
  H+  H305  1  0.63017248  0.08430911  0.88834042  1
  H+  H306  1  0.43103515  0.09632442  0.91055940  1
  H+  H307  1  0.58745786  0.67076867  0.77232452  1
  H+  H308  1  0.57808041  0.92735478  0.76172207  1
  H+  H309  1  0.16240999  0.82934114  0.56558078  1
  H+  H310  1  0.58229175  0.18465247  0.76227154  1
  H+  H311  1  0.35192304  0.70815151  0.09484287  1
  H+  H312  1  0.48071739  0.38443760  0.87508795  1
  H+  H313  1  0.81568866  0.40599659  0.39543046  1
  H+  H314  1  0.62362759  0.04970177  0.58013460  1
  H+  H315  1  0.83328531  0.93405236  0.73835310  1
  H+  H316  1  0.08982073  0.66242771  0.43570354  1
  H+  H317  1  0.15054300  0.31478821  0.93972909  1
  H+  H318  1  0.10098246  0.65011208  0.10145251  1
  H+  H319  1  0.08294477  0.66659734  0.77685816  1
  H+  H320  1  0.08537796  0.91706032  0.39922399  1
  H+  H321  1  0.38287725  0.57532261  0.23803885  1
  H+  H322  1  0.32388180  0.91136710  0.72854911  1
  H+  H323  1  0.44560122  0.91294765  0.90340051  1
  H+  H324  1  0.92781452  0.09208573  0.59941893  1
  H+  H325  1  0.72754076  0.14109842  0.95376730  1
  H+  H326  1  0.82955294  0.66131397  0.73334110  1
  H+  H327  1  0.63339514  0.51259271  0.95447372  1
  H+  H328  1  0.44741584  0.04242579  0.86209077  1
  H+  H329  1  0.59123836  0.90573733  0.43264875  1
  H+  H330  1  0.04719478  0.35200691  0.73579289  1
  H+  H331  1  0.65498638  0.11955189  0.49482208  1
  H+  H332  1  0.76752726  0.62765914  0.00864518  1
  H+  H333  1  0.16591847  0.82306237  0.94081771  1
  H+  H334  1  0.42384663  0.58075917  0.56362550  1
  H+  H335  1  0.62958645  0.31246657  0.80557244  1
  H+  H336  1  0.22905700  0.61133821  0.33606753  1
  H+  H337  1  0.67750907  0.35631125  0.20852286  1
  H+  H338  1  0.66881513  0.85779753  0.92591934  1
  H+  H339  1  0.80926673  0.93645409  0.42201122  1
  H+  H340  1  0.77455435  0.38423096  0.12370302  1
  H+  H341  1  0.49666159  0.43173953  0.76533283  1
  H+  H342  1  0.14649331  0.55305432  0.55873907  1
  H+  H343  1  0.31884443  0.59706188  0.76953263  1
  H+  H344  1  0.07966263  0.90459442  0.06628213  1
  H+  H345  1  0.90462909  0.32106719  0.59068741  1
  H+  H346  1  0.40864158  0.81936485  0.60929735  1
  H+  H347  1  0.17975020  0.57554731  0.27306044  1
  H+  H348  1  0.10875695  0.62155129  0.34276497  1
  H+  H349  1  0.63606853  0.32817983  0.49663769  1
  H+  H350  1  0.34254414  0.92690416  0.10513065  1
  H+  H351  1  0.42167810  0.59836697  0.94791794  1
  H+  H352  1  0.25591077  0.27318141  0.28123067  1
  H+  H353  1  0.33311908  0.66618844  0.40469022  1
  H+  H354  1  0.66929921  0.31838565  0.59000182  1
  H+  H355  1  0.90776349  0.54870299  0.17939308  1
  H+  H356  1  0.42196711  0.09627272  0.23152592  1
  H+  H357  1  0.66314137  0.84546485  0.22441541  1
  H+  H358  1  0.82929722  0.16154935  0.73163755  1
  H+  H359  1  0.33766159  0.15797301  0.43109156  1
  H+  H360  1  0.85423749  0.17888889  0.42353887  1
  H+  H361  1  0.40512118  0.06882131  0.56693958  1
  H+  H362  1  0.76554241  0.54933039  0.24439808  1
  H+  H363  1  0.83458957  0.41705617  0.72622839  1
  H+  H364  1  0.91216115  0.83617689  0.89736934  1
  H+  H365  1  0.55018941  0.33356426  0.42490858  1
  H+  H366  1  0.64965536  0.08349621  0.26066354  1
  H+  H367  1  0.59858899  0.36558314  0.02464599  1
  H+  H368  1  0.32052171  0.41594239  0.06460568  1
  H+  H369  1  0.09856021  0.16088475  0.07891582  1
  H+  H370  1  0.23900779  0.22041919  0.89255548  1
  H+  H371  1  0.15413254  0.50799432  0.18335193  1
  H+  H372  1  0.78718024  0.52296744  0.24784373  1
  H+  H373  1  0.86774004  0.47658808  0.48646707  1
  H+  H374  1  0.58366086  0.64909182  0.06568576  1
  H+  H375  1  0.83830860  0.66560964  0.43742397  1
  H+  H376  1  0.05476720  0.38070128  0.07967860  1
  H+  H377  1  0.86994152  0.64672453  0.82820787  1
  H+  H378  1  0.92269488  0.57611224  0.28307653  1
  H+  H379  1  0.82189698  0.38012377  0.01476223  1
  H+  H380  1  0.83708014  0.72786998  0.09073792  1
  H+  H381  1  0.85492830  0.18295298  0.09602137  1
  H+  H382  1  0.42206750  0.32152624  0.56746842  1
  H+  H383  1  0.17667620  0.31152247  0.22878327  1
  O2-  O384  1  0.09479086  0.15100841  0.14583587  1
  O2-  O385  1  0.07403939  0.15479251  0.47287304  1
  O2-  O386  1  0.08276323  0.16048842  0.81509493  1
  O2-  O387  1  0.08202680  0.40911139  0.15899313  1
  O2-  O388  1  0.08729029  0.40772972  0.47409205  1
  O2-  O389  1  0.05174930  0.38022753  0.79355998  1
  O2-  O390  1  0.11856706  0.65647034  0.14542231  1
  O2-  O391  1  0.08893840  0.66054971  0.48157720  1
  O2-  O392  1  0.08255994  0.66049341  0.82178034  1
  O2-  O393  1  0.10479595  0.91385000  0.14375725  1
  O2-  O394  1  0.08984185  0.90174263  0.47576622  1
  O2-  O395  1  0.08244128  0.91595034  0.81550768  1
  O2-  O396  1  0.28575363  0.12947048  0.15671451  1
  O2-  O397  1  0.32798254  0.15334250  0.47590082  1
  O2-  O398  1  0.35034062  0.17891538  0.81805284  1
  O2-  O399  1  0.32014389  0.41498628  0.14107226  1
  O2-  O400  1  0.34376880  0.41241391  0.48063082  1
  O2-  O401  1  0.30397756  0.41591949  0.80422442  1
  O2-  O402  1  0.34800476  0.70808986  0.14091646  1
  O2-  O403  1  0.33209547  0.65734580  0.48186361  1
  O2-  O404  1  0.30865787  0.56569209  0.80942896  1
  O2-  O405  1  0.34083357  0.92863594  0.15054023  1
  O2-  O406  1  0.33523294  0.89964881  0.48700485  1
  O2-  O407  1  0.31582439  0.92222912  0.80732039  1
  O2-  O408  1  0.58362041  0.17444353  0.14633223  1
  O2-  O409  1  0.69457445  0.17027424  0.46815944  1
  O2-  O410  1  0.59196406  0.20026150  0.80700947  1
  O2-  O411  1  0.64889224  0.43131153  0.16057907  1
  O2-  O412  1  0.57101706  0.36333509  0.46349920  1
  O2-  O413  1  0.59309972  0.45114402  0.88167102  1
  O2-  O414  1  0.57639577  0.67496306  0.14428887  1
  O2-  O415  1  0.58619840  0.68691096  0.47726837  1
  O2-  O416  1  0.59650196  0.69273296  0.81470399  1
  O2-  O417  1  0.58824129  0.93297479  0.13949863  1
  O2-  O418  1  0.58104115  0.89245050  0.47782692  1
  O2-  O419  1  0.58387647  0.93923319  0.80782425  1
  O2-  O420  1  0.84095694  0.17144594  0.17052091  1
  O2-  O421  1  0.84222743  0.18165934  0.46647075  1
  O2-  O422  1  0.83573928  0.17371308  0.80918901  1
  O2-  O423  1  0.82675036  0.38725763  0.10433250  1
  O2-  O424  1  0.83636890  0.41574607  0.47120140  1
  O2-  O425  1  0.83271279  0.43171724  0.80117734  1
  O2-  O426  1  0.82957325  0.75233759  0.12916735  1
  O2-  O427  1  0.83503137  0.66233426  0.48300666  1
  O2-  O428  1  0.83912963  0.67590348  0.81047582  1
  O2-  O429  1  0.83164547  0.91228727  0.14298885  1
  O2-  O430  1  0.78930396  0.94167448  0.46331513  1
  O2-  O431  1  0.83798743  0.93728106  0.81992108  1
  O2-  O432  1  0.19827980  0.07776684  0.18250609  1
  O2-  O433  1  0.15749086  0.06284496  0.51552696  1
  O2-  O434  1  0.20748879  0.16038613  0.87934432  1
  O2-  O435  1  0.15935727  0.31528600  0.18627277  1
  O2-  O436  1  0.17284992  0.32440660  0.51201073  1
  O2-  O437  1  0.14619113  0.32249572  0.86037946  1
  O2-  O438  1  0.20235063  0.56217799  0.20154457  1
  O2-  O439  1  0.16237864  0.56981294  0.51587447  1
  O2-  O440  1  0.15321670  0.55917000  0.86911001  1
  O2-  O441  1  0.17414023  0.82108550  0.17847274  1
  O2-  O442  1  0.16511057  0.82221992  0.52096455  1
  O2-  O443  1  0.16028895  0.82617189  0.86124998  1
  O2-  O444  1  0.40160221  0.08901966  0.18877263  1
  O2-  O445  1  0.40245740  0.06004810  0.52247847  1
  O2-  O446  1  0.43653199  0.09171642  0.86501991  1
  O2-  O447  1  0.37672367  0.30854505  0.18929657  1
  O2-  O448  1  0.41980110  0.32038838  0.52215774  1
  O2-  O449  1  0.41696143  0.34519344  0.87908459  1
  O2-  O450  1  0.36192025  0.56930896  0.19505207  1
  O2-  O451  1  0.42355197  0.58117086  0.51799104  1
  O2-  O452  1  0.45410638  0.66118196  0.87880502  1
  O2-  O453  1  0.43089003  0.85872810  0.19206553  1
  O2-  O454  1  0.40984321  0.81579238  0.52843737  1
  O2-  O455  1  0.45193690  0.94300552  0.86310917  1
  O2-  O456  1  0.66990319  0.09333598  0.18650560  1
  O2-  O457  1  0.60009963  0.03826095  0.53815306  1
  O2-  O458  1  0.66211605  0.10809712  0.85071688  1
  O2-  O459  1  0.69001371  0.37792836  0.16559125  1
  O2-  O460  1  0.67682439  0.31261135  0.51654265  1
  O2-  O461  1  0.65675235  0.37635639  0.80262991  1
  O2-  O462  1  0.68685763  0.63174321  0.18486233  1
  O2-  O463  1  0.66518815  0.58880143  0.51085882  1
  O2-  O464  1  0.68851848  0.62754613  0.86439933  1
  O2-  O465  1  0.66160917  0.84425999  0.17885419  1
  O2-  O466  1  0.63517180  0.85683422  0.49752803  1
  O2-  O467  1  0.66790722  0.85932727  0.84899921  1
  O2-  O468  1  0.93746393  0.07231285  0.17735233  1
  O2-  O469  1  0.91236404  0.08805094  0.52024495  1
  O2-  O470  1  0.92470576  0.10022552  0.85970098  1
  O2-  O471  1  0.91435000  0.32996982  0.18541153  1
  O2-  O472  1  0.92286174  0.33764448  0.51572739  1
  O2-  O473  1  0.89486220  0.33128090  0.83821400  1
  O2-  O474  1  0.95210589  0.55164286  0.20701671  1
  O2-  O475  1  0.92297701  0.57692205  0.51655469  1
  O2-  O476  1  0.91662921  0.59140485  0.85660122  1
  O2-  O477  1  0.95917193  0.80778195  0.21049579  1
  O2-  O478  1  0.93224314  0.83455468  0.51468892  1
  O2-  O479  1  0.91265082  0.83944217  0.85180903  1
  O2-  O480  1  0.18253009  0.07845362  0.31299360  1
  O2-  O481  1  0.13740518  0.09724919  0.66595847  1
  O2-  O482  1  0.16500715  0.07645339  0.98759525  1
  O2-  O483  1  0.22084897  0.29779985  0.29541209  1
  O2-  O484  1  0.17380623  0.31352140  0.63696059  1
  O2-  O485  1  0.15541532  0.31188210  0.98507550  1
  O2-  O486  1  0.16945848  0.57638351  0.31810132  1
  O2-  O487  1  0.09420166  0.49842590  0.63312711  1
  O2-  O488  1  0.12379315  0.53936991  0.99103356  1
  O2-  O489  1  0.18630018  0.81623027  0.30677261  1
  O2-  O490  1  0.16170624  0.84789440  0.64658931  1
  O2-  O491  1  0.16719266  0.82140691  0.98619963  1
  O2-  O492  1  0.46772427  0.11141701  0.30586539  1
  O2-  O493  1  0.40897081  0.08015431  0.65112512  1
  O2-  O494  1  0.42020348  0.08565507  0.98565268  1
  O2-  O495  1  0.41524070  0.32558493  0.30615036  1
  O2-  O496  1  0.42289420  0.32199197  0.64926225  1
  O2-  O497  1  0.40663995  0.31999994  1.00164396  1
  O2-  O498  1  0.40821687  0.57923815  0.31386569  1
  O2-  O499  1  0.42012666  0.57200701  0.64082632  1
  O2-  O500  1  0.41365898  0.58556799  0.99201264  1
  O2-  O501  1  0.42846708  0.84175247  0.31684774  1
  O2-  O502  1  0.40664900  0.82252950  0.65462847  1
  O2-  O503  1  0.43894189  0.86860710  0.97066481  1
  O2-  O504  1  0.64746034  0.08647723  0.30668515  1
  O2-  O505  1  0.65353261  0.07285080  0.65562899  1
  O2-  O506  1  0.71059027  0.12350114  0.99583733  1
  O2-  O507  1  0.66227933  0.33083863  0.28583281  1
  O2-  O508  1  0.66583420  0.32081568  0.63612683  1
  O2-  O509  1  0.63583294  0.32314047  0.98037898  1
  O2-  O510  1  0.65925219  0.55688914  0.37735953  1
  O2-  O511  1  0.66447324  0.57304166  0.63353386  1
  O2-  O512  1  0.65898693  0.55281199  0.98916482  1
  O2-  O513  1  0.67064847  0.85415951  0.30180304  1
  O2-  O514  1  0.66667148  0.84618988  0.65628023  1
  O2-  O515  1  0.67431636  0.85678596  0.97127334  1
  O2-  O516  1  0.93117332  0.08562203  0.29933286  1
  O2-  O517  1  0.93724999  0.09710054  0.64455827  1
  O2-  O518  1  0.90826070  0.07848879  0.98532203  1
  O2-  O519  1  0.90733733  0.34118665  0.30461070  1
  O2-  O520  1  0.89593088  0.31421280  0.63625074  1
  O2-  O521  1  0.89459705  0.31936475  0.90489672  1
  O2-  O522  1  0.91261132  0.57794478  0.32709991  1
  O2-  O523  1  0.96546556  0.54994680  0.63432869  1
  O2-  O524  1  0.90864894  0.57772312  0.98128221  1
  O2-  O525  1  0.90941758  0.83002652  0.31686882  1
  O2-  O526  1  0.92433180  0.82505853  0.63738360  1
  O2-  O527  1  0.90667257  0.83185288  0.97575476  1
  O2-  O528  1  0.09978860  0.16355778  0.03131430  1
  O2-  O529  1  0.08928039  0.15232263  0.34859909  1
  O2-  O530  1  0.10042174  0.14926497  0.68894123  1
  O2-  O531  1  0.03347264  0.36044868  0.03771050  1
  O2-  O532  1  0.07707369  0.41471973  0.34929037  1
  O2-  O533  1  0.04436556  0.33303606  0.68725957  1
  O2-  O534  1  0.07258778  0.64496263  0.02621174  1
  O2-  O535  1  0.08215975  0.65429021  0.36021197  1
  O2-  O536  1  0.08501911  0.68405870  0.69701467  1
  O2-  O537  1  0.07196726  0.90091903  0.02095497  1
  O2-  O538  1  0.08203007  0.92734328  0.35472002  1
  O2-  O539  1  0.08372022  0.92779010  0.69742169  1
  O2-  O540  1  0.32291119  0.15230643  0.03335041  1
  O2-  O541  1  0.35394557  0.16099793  0.35033241  1
  O2-  O542  1  0.31203358  0.16101988  0.69333022  1
  O2-  O543  1  0.32160860  0.41186538  0.01892509  1
  O2-  O544  1  0.35012285  0.41813354  0.35793709  1
  O2-  O545  1  0.33599159  0.40669581  0.68202115  1
  O2-  O546  1  0.35575133  0.70144198  0.02185875  1
  O2-  O547  1  0.33202307  0.66795005  0.35899601  1
  O2-  O548  1  0.33810169  0.64583163  0.70091979  1
  O2-  O549  1  0.33556436  0.91898535  0.02582263  1
  O2-  O550  1  0.34222751  0.90767099  0.35935974  1
  O2-  O551  1  0.32630893  0.91111455  0.68332106  1
  O2-  O552  1  0.58185754  0.16543233  0.02861278  1
  O2-  O553  1  0.55616452  0.16866270  0.32664306  1
  O2-  O554  1  0.57554228  0.16412577  0.68868556  1
  O2-  O555  1  0.57239540  0.39450389  0.05068491  1
  O2-  O556  1  0.58697174  0.42384474  0.29218046  1
  O2-  O557  1  0.59538417  0.40618157  0.68763152  1
  O2-  O558  1  0.57876823  0.63212879  0.02230849  1
  O2-  O559  1  0.55291188  0.71113816  0.36414517  1
  O2-  O560  1  0.56570264  0.60510162  0.70387501  1
  O2-  O561  1  0.60155065  0.94553126  0.01851936  1
  O2-  O562  1  0.58746118  0.92542587  0.35757014  1
  O2-  O563  1  0.57186991  0.90998566  0.69258854  1
  O2-  O564  1  0.86425145  0.18889889  0.04997941  1
  O2-  O565  1  0.83344847  0.16558974  0.29687339  1
  O2-  O566  1  0.82624899  0.15331704  0.68618843  1
  O2-  O567  1  0.82007376  0.39904252  -0.02707750  1
  O2-  O568  1  0.81278271  0.40848456  0.34980231  1
  O2-  O569  1  0.83298594  0.41187751  0.68039972  1
  O2-  O570  1  0.82869485  0.66949638  0.01861657  1
  O2-  O571  1  0.82796593  0.66592138  0.36079302  1
  O2-  O572  1  0.82585754  0.65458508  0.68781615  1
  O2-  O573  1  0.82461327  0.91816457  0.00391951  1
  O2-  O574  1  0.83389545  0.92424090  0.34634320  1
  O2-  O575  1  0.82559833  0.92598369  0.69375482  1
