# generated using pymatgen
data_H2O
_symmetry_space_group_name_H-M   'P 1'
_cell_length_a   17.99274715
_cell_length_b   17.98948123
_cell_length_c   22.00414558
_cell_angle_alpha   90.00745569
_cell_angle_beta   89.99552784
_cell_angle_gamma   119.99790661
_symmetry_Int_Tables_number   1
_chemical_formula_structural   H2O
_chemical_formula_sum   'H384 O192'
_cell_volume   6168.22794941
_cell_formula_units_Z   192
loop_
 _symmetry_equiv_pos_site_id
 _symmetry_equiv_pos_as_xyz
  1  'x, y, z'
loop_
 _atom_type_symbol
 _atom_type_oxidation_number
  H+  1.0
  O2-  -2.0
loop_
 _atom_site_type_symbol
 _atom_site_label
 _atom_site_symmetry_multiplicity
 _atom_site_fract_x
 _atom_site_fract_y
 _atom_site_fract_z
 _atom_site_occupancy
  H+  H0  1  0.86109429  0.47215353  0.82640256  1
  H+  H1  1  0.82797284  0.93295166  0.32706079  1
  H+  H2  1  0.38622177  0.02068492  0.30925907  1
  H+  H3  1  0.36505271  0.89473423  0.32102922  1
  H+  H4  1  0.42473271  0.28471279  0.43988339  1
  H+  H5  1  0.14012600  0.11853277  0.32085964  1
  H+  H6  1  0.91653324  0.34578212  0.22632162  1
  H+  H7  1  0.88043599  0.76603732  0.49810458  1
  H+  H8  1  0.64148608  0.77107114  0.84168435  1
  H+  H9  1  1.02324744  0.13611285  0.66955659  1
  H+  H10  1  0.41107002  0.83013523  0.90350202  1
  H+  H11  1  0.60067944  0.97917584  0.15450459  1
  H+  H12  1  0.03118257  0.15617332  0.15964304  1
  H+  H13  1  0.60853076  0.47431198  0.66788994  1
  H+  H14  1  0.14710389  0.37905797  0.32841502  1
  H+  H15  1  0.73024853  0.35927860  0.84538624  1
  H+  H16  1  0.62432915  0.27398422  0.65792547  1
  H+  H17  1  0.51458026  0.86711638  0.63434683  1
  H+  H18  1  0.52741334  0.63906872  0.82732632  1
  H+  H19  1  0.61837269  0.22796170  0.83164021  1
  H+  H20  1  0.61429958  0.14328638  0.48410506  1
  H+  H21  1  0.38321623  0.35227814  0.31754821  1
  H+  H22  1  0.82772497  0.40763353  0.76884865  1
  H+  H23  1  0.37701342  0.23981283  0.81975278  1
  H+  H24  1  0.34726959  0.85897611  0.50203929  1
  H+  H25  1  0.85445442  0.23289414  0.67055458  1
  H+  H26  1  0.48111610  0.11732801  0.84073613  1
  H+  H27  1  0.62799031  0.87692528  0.18354547  1
  H+  H28  1  0.58272429  0.66438592  0.73130746  1
  H+  H29  1  0.37602871  0.57660605  0.50457437  1
  H+  H30  1  0.73257330  0.61952401  0.16753211  1
  H+  H31  1  0.37386597  0.74362686  0.66793687  1
  H+  H32  1  0.90463258  0.14767444  0.32073557  1
  H+  H33  1  0.38390021  0.86747566  0.65746550  1
  H+  H34  1  0.07491238  0.69391591  0.01445642  1
  H+  H35  1  0.60524387  0.93034760  0.66234031  1
  H+  H36  1  0.03119769  0.88706448  0.33275567  1
  H+  H37  1  0.38995830  0.62001640  0.83576839  1
  H+  H38  1  0.35593453  -0.05045770  0.51179751  1
  H+  H39  1  0.50399676  0.39262481  0.33785017  1
  H+  H40  1  0.04405810  0.16317193  0.33596314  1
  H+  H41  1  0.83911090  0.91477434  0.15232998  1
  H+  H42  1  0.61356251  0.71648578  0.66801141  1
  H+  H43  1  0.11791515  0.50301452  0.65066260  1
  H+  H44  1  0.89829815  0.76144557  0.66917444  1
  H+  H45  1  0.72791584  0.11431000  0.84460807  1
  H+  H46  1  0.89351748  0.75691752  0.33185630  1
  H+  H47  1  0.11165094  0.36595996  0.67508514  1
  H+  H48  1  0.36677100  0.22124312  0.66683257  1
  H+  H49  1  0.35898925  0.97542146  0.00433020  1
  H+  H50  1  0.15045248  0.28994601  0.32898612  1
  H+  H51  1  0.16174281  0.05641322  0.84069335  1
  H+  H52  1  0.27117067  0.13478859  0.32635073  1
  H+  H53  1  0.97353344  0.11334822  0.98965273  1
  H+  H54  1  0.71323489  0.82067414  0.33027761  1
  H+  H55  1  0.10784360  0.72030061  0.50340466  1
  H+  H56  1  0.36731795  0.40050351  0.01788144  1
  H+  H57  1  0.60792055  0.87779828  0.48911032  1
  H+  H58  1  0.63620474  0.36417315  0.32553177  1
  H+  H59  1  0.08477939  0.96812494  0.00837182  1
  H+  H60  1  0.91611530  0.58131590  0.89327616  1
  H+  H61  1  0.97493971  0.36201920  0.84017697  1
  H+  H62  1  0.63389306  0.48578701  0.15804654  1
  H+  H63  1  0.63041720  0.18000291  -0.00651104  1
  H+  H64  1  0.48280145  0.02099914  0.55138506  1
  H+  H65  1  0.48263070  0.36453020  0.66398672  1
  H+  H66  1  0.13903760  0.27254392  0.84449232  1
  H+  H67  1  0.36149903  0.48544952  0.00775293  1
  H+  H68  1  0.39367723  0.37749999  0.83531145  1
  H+  H69  1  0.90150255  0.85998419  0.19206480  1
  H+  H70  1  0.62120672  0.11370691  0.16592730  1
  H+  H71  1  0.22228764  0.34521916  0.66839852  1
  H+  H72  1  0.28062094  0.39289677  0.33696509  1
  H+  H73  1  0.88539641  0.36252506  0.83843602  1
  H+  H74  1  0.87596798  0.24387798  0.32929755  1
  H+  H75  1  0.28555850  0.15699542  0.82670867  1
  H+  H76  1  0.37547983  0.65037341  1.00795169  1
  H+  H77  1  0.71963759  0.11824497  0.51787100  1
  H+  H78  1  0.27149226  0.88427490  0.01048775  1
  H+  H79  1  0.37319252  0.77095345  0.32411381  1
  H+  H80  1  0.53432587  0.48188599  0.36862234  1
  H+  H81  1  0.62670370  0.27211726  0.49926347  1
  H+  H82  1  0.61483596  0.63517287  0.82614727  1
  H+  H83  1  0.27659373  0.63794731  0.81983205  1
  H+  H84  1  0.84709902  0.37471681  0.48241570  1
  H+  H85  1  0.64540521  0.53124096  0.32085149  1
  H+  H86  1  0.23662107  0.36257291  0.50801136  1
  H+  H87  1  0.88334357  0.52329423  0.50468493  1
  H+  H88  1  0.38282782  0.62087903  0.33271036  1
  H+  H89  1  0.93226851  0.10967137  0.22611824  1
  H+  H90  1  0.63013307  0.60296153  0.65965074  1
  H+  H91  1  0.78623156  0.12003410  0.45378158  1
  H+  H92  1  0.23049879  0.52917866  -0.04152771  1
  H+  H93  1  0.64420854  0.12491233  0.32176225  1
  H+  H94  1  0.03300893  0.00209566  0.56340863  1
  H+  H95  1  0.61490990  0.37827553  0.00324513  1
  H+  H96  1  0.13773705  1.01816894  0.66762137  1
  H+  H97  1  0.37497289  0.74377728  0.50288082  1
  H+  H98  1  0.17372301  0.82383208  0.73238321  1
  H+  H99  1  0.11365469  0.38251085  0.83299013  1
  H+  H100  1  0.86013064  0.14030252  -0.00035268  1
  H+  H101  1  0.13590524  0.53305636  0.17938946  1
  H+  H102  1  0.38350365  0.26091334  0.17757672  1
  H+  H103  1  0.37885930  0.24313246  1.02210892  1
  H+  H104  1  0.38660215  0.11282659  0.31411383  1
  H+  H105  1  0.37758316  0.34829042  0.51185385  1
  H+  H106  1  0.13471989  0.85496254  0.82228107  1
  H+  H107  1  0.63984201  0.61455665  0.32283461  1
  H+  H108  1  1.01674135  0.63441642  0.49456206  1
  H+  H109  1  0.98895670  0.85226195  0.82033629  1
  H+  H110  1  0.99492789  0.90430521  0.63489712  1
  H+  H111  1  0.12756670  0.49087927  0.33226277  1
  H+  H112  1  0.39412125  0.78314138  0.99498095  1
  H+  H113  1  0.84994996  0.37200063  0.66738657  1
  H+  H114  1  0.87276355  0.85421625  0.83326210  1
  H+  H115  1  0.89913805  0.52705949  0.31825925  1
  H+  H116  1  0.12854477  0.85546290  0.16979055  1
  H+  H117  1  0.13661695  0.22116079  0.49303222  1
  H+  H118  1  0.22519415  0.36551106  -0.00102519  1
  H+  H119  1  0.02195852  0.13664834  0.82755220  1
  H+  H120  1  0.87174085  0.25563286  0.48626101  1
  H+  H121  1  0.77144251  0.88867102  0.48228858  1
  H+  H122  1  0.38008668  0.86091702  0.17145765  1
  H+  H123  1  0.07893137  0.33390443  0.55422009  1
  H+  H124  1  0.09365980  0.38856078  0.16003466  1
  H+  H125  1  0.62718755  0.36147253  0.50349108  1
  H+  H126  1  0.11269134  0.13524326  0.01220709  1
  H+  H127  1  0.60969149  0.23999214  0.15382839  1
  H+  H128  1  0.36734189  0.88910959  0.83048092  1
  H+  H129  1  0.64242244  0.52902268  0.50634619  1
  H+  H130  1  0.90305140  0.32321478  0.57735205  1
  H+  H131  1  0.77259600  0.38815488  0.16358448  1
  H+  H132  1  0.61052155  0.71989446  0.00476684  1
  H+  H133  1  0.37030434  0.97991883  0.82756530  1
  H+  H134  1  0.65545557  0.81906277  0.27560288  1
  H+  H135  1  0.76361903  0.37501770  0.67183474  1
  H+  H136  1  0.86275613  0.23074459  0.00111486  1
  H+  H137  1  0.13764979  0.27377081  -0.00196837  1
  H+  H138  1  0.09018513  0.67473274  0.40214612  1
  H+  H139  1  0.47616301  0.61351199  0.99127409  1
  H+  H140  1  0.86726852  0.72910513  0.15562446  1
  H+  H141  1  0.08408695  0.17090836  0.06797327  1
  H+  H142  1  0.60084081  -0.03829590  0.49792349  1
  H+  H143  1  0.24397138  0.86575070  0.68107897  1
  H+  H144  1  0.12231456  0.85435630  0.01491585  1
  H+  H145  1  0.13591645  0.11814305  0.16816501  1
  H+  H146  1  0.36434805  0.72920395  0.82535138  1
  H+  H147  1  0.62380149  0.47398676  -0.00135356  1
  H+  H148  1  0.14681332  0.51062078  0.99144811  1
  H+  H149  1  0.27805327  0.89802842  0.31914187  1
  H+  H150  1  0.86134425  0.22613042  0.82930568  1
  H+  H151  1  0.22633598  0.10960316  0.66430918  1
  H+  H152  1  0.38422470  0.12161364  0.16991635  1
  H+  H153  1  0.39909844  0.81762058  0.59554309  1
  H+  H154  1  0.47444612  0.61861191  0.66040805  1
  H+  H155  1  0.87263968  0.91600125  0.65617017  1
  H+  H156  1  0.62011696  0.13988218  0.66175573  1
  H+  H157  1  0.26419036  0.12616353  0.16089613  1
  H+  H158  1  0.23025632  0.86561457  0.82294723  1
  H+  H159  1  0.12498497  0.61018487  0.50138656  1
  H+  H160  1  0.15906399  0.62859479  0.33232442  1
  H+  H161  1  -0.04659307  0.35354115  0.48730642  1
  H+  H162  1  0.63543647  0.76616455  0.49014186  1
  H+  H163  1  0.37506858  0.61762499  0.18030109  1
  H+  H164  1  0.71468721  0.58914930  0.66060526  1
  H+  H165  1  0.16665924  0.33015462  0.90569529  1
  H+  H166  1  0.10287103  0.38192631  1.01176890  1
  H+  H167  1  0.08751140  0.69118988  0.68034186  1
  H+  H168  1  0.86609534  0.63096424  0.49664896  1
  H+  H169  1  0.64232317  0.36969496  0.16884078  1
  H+  H170  1  0.20230681  0.04391782  0.97926715  1
  H+  H171  1  0.28323314  0.13524844  0.54030900  1
  H+  H172  1  0.96783996  0.38787321  0.62556471  1
  H+  H173  1  0.08326540  0.40528402  0.77113904  1
  H+  H174  1  0.63124213  0.27303987  0.32568293  1
  H+  H175  1  0.73289768  0.12470483  0.31883636  1
  H+  H176  1  0.86905356  0.01433723  0.15289688  1
  H+  H177  1  0.22723444  0.61835021  0.17637905  1
  H+  H178  1  0.13963187  0.86614392  0.32030645  1
  H+  H179  1  0.39300930  0.11834368  0.83693421  1
  H+  H180  1  0.32830311  0.40668365  0.77747873  1
  H+  H181  1  0.63611650  0.04299089  0.99676139  1
  H+  H182  1  0.72360207  0.90177118  0.18369186  1
  H+  H183  1  0.63268665  0.83939933  0.63176942  1
  H+  H184  1  0.14282636  0.52033941  0.83378857  1
  H+  H185  1  0.08158721  0.16613393  0.76764048  1
  H+  H186  1  0.57452376  0.16627310  0.39140800  1
  H+  H187  1  0.63911783  0.52163705  0.83478570  1
  H+  H188  1  0.72294326  0.60684604  0.98989405  1
  H+  H189  1  0.87086650  0.86286712  0.98886167  1
  H+  H190  1  0.61242451  0.38617098  0.66669223  1
  H+  H191  1  0.48564627  0.13563445  0.16323917  1
  H+  H192  1  0.52057915  0.13802432  0.32885718  1
  H+  H193  1  0.77388324  0.88787986  0.82245599  1
  H+  H194  1  0.02682672  0.88482174  0.16408939  1
  H+  H195  1  0.72620896  0.85315092  0.64724871  1
  H+  H196  1  0.36409644  0.07413595  0.45188180  1
  H+  H197  1  0.01607802  0.88019727  0.47509625  1
  H+  H198  1  0.77817681  0.39167149  0.33113978  1
  H+  H199  1  0.09474236  0.48679788  0.48332356  1
  H+  H200  1  0.63402567  0.86506531  0.99498802  1
  H+  H201  1  0.25994936  0.61493531  0.49047551  1
  H+  H202  1  0.50736924  0.61726351  0.33936765  1
  H+  H203  1  0.97196856  0.36455906  0.99308029  1
  H+  H204  1  0.60020500  0.70070628  0.33834748  1
  H+  H205  1  0.82948395  0.41726907  0.10427869  1
  H+  H206  1  0.61942462  0.98001346  0.84962758  1
  H+  H207  1  0.35522677  0.34978920  0.68713505  1
  H+  H208  1  0.78016861  0.63382156  0.34056446  1
  H+  H209  1  0.90447115  0.14313444  0.16517541  1
  H+  H210  1  0.38803828  0.53008087  0.83977884  1
  H+  H211  1  0.45346050  0.60067009  0.17852718  1
  H+  H212  1  -0.02130338  0.11708772  0.49280438  1
  H+  H213  1  0.90162626  0.62255238  0.99041010  1
  H+  H214  1  0.38831115  0.11422603  -0.00541556  1
  H+  H215  1  0.59490208  0.61887488  0.15783635  1
  H+  H216  1  0.89885697  0.61448863  0.32347612  1
  H+  H217  1  0.86294129  0.97663360  0.82047277  1
  H+  H218  1  0.52401108  0.13126607  0.49302366  1
  H+  H219  1  0.85398891  0.37759340  0.01149745  1
  H+  H220  1  0.52307616  0.40933006  0.50096253  1
  H+  H221  1  0.51492029  0.88722791  0.15463879  1
  H+  H222  1  0.50698129  0.13479188  0.68121058  1
  H+  H223  1  0.10632119  0.62541292  0.82774748  1
  H+  H224  1  0.87262724  0.64597046  0.15111019  1
  H+  H225  1  0.09420276  0.97043408  0.48730048  1
  H+  H226  1  0.64143645  0.86023873  0.84912444  1
  H+  H227  1  0.06790585  0.94267435  0.80902731  1
  H+  H228  1  0.57132130  0.92090764  0.39515417  1
  H+  H229  1  0.14045214  0.13295812  0.84032966  1
  H+  H230  1  0.97194240  0.60386634  0.83314895  1
  H+  H231  1  0.26214917  0.86801657  0.15645197  1
  H+  H232  1  0.07324439  0.71147087  0.16993850  1
  H+  H233  1  0.12046760  0.88352382  0.67387958  1
  H+  H234  1  0.87781516  0.24539098  0.15434798  1
  H+  H235  1  0.58924610  0.91977187  0.79293620  1
  H+  H236  1  0.46281545  0.83577142  0.50282323  1
  H+  H237  1  0.28743608  0.15993074  0.01026679  1
  H+  H238  1  0.89644282  0.37653326  0.32144961  1
  H+  H239  1  0.28601157  0.64510165  0.00619107  1
  H+  H240  1  0.10647220  0.71292491  0.82135410  1
  H+  H241  1  0.89017733  0.84473415  0.32856526  1
  H+  H242  1  0.47542500  0.86026545  0.84858328  1
  H+  H243  1  0.11124936  0.97774113  0.15745809  1
  H+  H244  1  0.05561597  0.29423818  0.53489453  1
  H+  H245  1  0.84223760  0.59470363  0.66640099  1
  H+  H246  1  0.88485813  0.77421068  0.69778582  1
  H+  H247  1  0.91719916  0.06613377  0.32723289  1
  H+  H248  1  0.53017211  0.89955484  0.00254912  1
  H+  H249  1  0.49490078  0.37662103  1.01233508  1
  H+  H250  1  0.89048654  0.11921555  0.48870724  1
  H+  H251  1  0.95599985  0.85634068  0.99096018  1
  H+  H252  1  0.35959085  0.73380415  0.16164278  1
  H+  H253  1  0.53614871  0.39071875  0.81475364  1
  H+  H254  1  0.88287371  0.02628875  0.98560117  1
  H+  H255  1  0.98770080  0.37960771  0.31752386  1
  H+  H256  1  0.10847861  0.58704084  0.64647535  1
  H+  H257  1  0.37954016  0.09390143  0.66294986  1
  H+  H258  1  0.87856622  0.51324890  0.64779545  1
  H+  H259  1  0.01591947  0.34350125  0.68533905  1
  H+  H260  1  0.88018094  0.37595011  0.16873136  1
  H+  H261  1  0.61156452  0.63390790  0.49026210  1
  H+  H262  1  0.75880373  0.15824247  0.67580024  1
  H+  H263  1  0.38674840  0.12017768  0.46174267  1
  H+  H264  1  0.75943106  0.35975101  0.01693013  1
  H+  H265  1  0.38938581  0.86972295  0.99259459  1
  H+  H266  1  0.21953050  0.84115389  0.52941735  1
  H+  H267  1  0.27561381  0.38862123  0.83868253  1
  H+  H268  1  0.03825384  0.64333359  0.33983920  1
  H+  H269  1  0.77714762  0.63384418  0.49481262  1
  H+  H270  1  0.83281705  0.42021242  0.39209299  1
  H+  H271  1  0.39557924  0.35460765  0.17258095  1
  H+  H272  1  0.41543510  0.44568040  0.52925652  1
  H+  H273  1  0.21466985  0.42735587  0.18952125  1
  H+  H274  1  0.40802658  0.58928793  0.27252915  1
  H+  H275  1  0.89152241  0.04230644  0.64980402  1
  H+  H276  1  0.88740167  0.11492221  0.83362224  1
  H+  H277  1  0.33781634  0.16806226  0.72859330  1
  H+  H278  1  0.72723320  0.60918321  0.83795734  1
  H+  H279  1  0.33565092  0.33708909  0.41933591  1
  H+  H280  1  0.25655732  0.09736978  0.52012672  1
  H+  H281  1  0.14223643  0.77800256  0.32484330  1
  H+  H282  1  0.60954948  0.62975891  0.99968548  1
  H+  H283  1  0.00780891  0.39448426  0.15731938  1
  H+  H284  1  0.37826557  0.64594665  0.66738956  1
  H+  H285  1  0.12365137  0.24222768  0.15727407  1
  H+  H286  1  0.76365964  0.38392621  0.48476105  1
  H+  H287  1  0.85385785  0.71113773  0.82472945  1
  H+  H288  1  0.83234154  0.90638644  0.39687837  1
  H+  H289  1  0.60313707  -0.01786054  0.33700161  1
  H+  H290  1  0.76552801  0.89150498  1.00156163  1
  H+  H291  1  0.07307149  0.41855075  0.06804814  1
  H+  H292  1  0.57702540  0.18951218  0.08994254  1
  H+  H293  1  0.06228723  0.89417734  0.72146589  1
  H+  H294  1  0.17825920  0.57784149  0.89256400  1
  H+  H295  1  0.56099527  0.64256519  0.09935451  1
  H+  H296  1  0.09508446  0.12046257  0.49582327  1
  H+  H297  1  0.66450588  0.83067900  0.93772252  1
  H+  H298  1  0.67003050  0.09373668  0.90560947  1
  H+  H299  1  0.12796794  0.06443082  0.57916294  1
  H+  H300  1  0.06371009  0.91221969  0.06848921  1
  H+  H301  1  0.35433430  0.91530129  0.72634653  1
  H+  H302  1  0.42065609  0.32674179  0.25717134  1
  H+  H303  1  0.38586962  0.00113113  0.66794743  1
  H+  H304  1  0.08209192  0.42863028  0.38856728  1
  H+  H305  1  0.92776118  0.81797814  0.24370041  1
  H+  H306  1  0.60685398  0.42638617  0.09855367  1
  H+  H307  1  0.85275253  0.18203235  0.38973362  1
  H+  H308  1  0.65510150  0.08615688  0.22368615  1
  H+  H309  1  0.31861177  0.64593845  0.43132629  1
  H+  H310  1  0.72780301  0.12790320  0.99564821  1
  H+  H311  1  0.15587225  0.82220330  0.22837283  1
  H+  H312  1  0.66720284  0.58549209  0.56631950  1
  H+  H313  1  0.66407470  0.57548068  0.92953377  1
  H+  H314  1  0.58511439  0.92534253  0.06351196  1
  H+  H315  1  0.83209429  0.92189511  0.72015875  1
  H+  H316  1  0.87782448  0.85486717  0.48981905  1
  H+  H317  1  0.86231003  0.98013254  0.48256983  1
  H+  H318  1  0.02711176  0.63647510  0.07045964  1
  H+  H319  1  0.91347613  0.33468779  0.93283895  1
  H+  H320  1  0.85936077  0.62383136  0.82767705  1
  H+  H321  1  0.10034229  0.17739625  0.39619694  1
  H+  H322  1  0.41314499  0.83227346  0.23030957  1
  H+  H323  1  0.89827106  0.82444288  0.89537756  1
  H+  H324  1  0.34128541  0.21710902  0.40855257  1
  H+  H325  1  0.65895513  0.32934176  0.59583560  1
  H+  H326  1  0.42586052  0.09649852  0.23229972  1
  H+  H327  1  0.42110147  0.34578876  0.96273034  1
  H+  H328  1  0.91683695  0.08540772  0.89310980  1
  H+  H329  1  0.64236469  0.36032319  0.84269895  1
  H+  H330  1  0.17657721  0.09452950  0.93362644  1
  H+  H331  1  0.83730437  0.65706331  0.40194226  1
  H+  H332  1  0.41062570  0.08080033  0.93388123  1
  H+  H333  1  0.44628934  0.35467162  0.88243915  1
  H+  H334  1  0.46455538  0.86070050  0.32440782  1
  H+  H335  1  0.33937719  0.41704620  0.10483849  1
  H+  H336  1  0.65172616  0.29918237  0.93746955  1
  H+  H337  1  0.90699789  0.57586608  0.57145998  1
  H+  H338  1  0.82546878  0.17024815  0.76897642  1
  H+  H339  1  0.81169723  0.62175322  0.73035848  1
  H+  H340  1  0.33360823  0.67533049  0.10197625  1
  H+  H341  1  0.43663328  0.06368378  0.58530705  1
  H+  H342  1  0.08975189  0.92564615  0.39128889  1
  H+  H343  1  0.19950378  0.31901357  0.57174173  1
  H+  H344  1  0.99642236  0.61228078  0.65539677  1
  H+  H345  1  0.41317298  0.58549315  0.60164718  1
  H+  H346  1  0.11017082  0.13075713  0.67849907  1
  H+  H347  1  0.66153276  0.32934167  0.22903434  1
  H+  H348  1  0.13289493  0.26091506  0.66108690  1
  H+  H349  1  0.41530178  0.58855568  0.93288097  1
  H+  H350  1  0.67151016  0.82045409  0.55038576  1
  H+  H351  1  0.32739149  0.90749187  0.10082987  1
  H+  H352  1  0.57274599  0.65013097  0.42898590  1
  H+  H353  1  0.57520394  0.17442067  0.73831362  1
  H+  H354  1  0.42163437  0.35406212  0.60719228  1
  H+  H355  1  0.55417154  0.97098396  0.72885520  1
  H+  H356  1  0.84819890  0.72279760  0.99953344  1
  H+  H357  1  0.67701765  0.59090638  0.22847384  1
  H+  H358  1  0.82685880  0.66620016  0.05955603  1
  H+  H359  1  0.82890925  0.93583750  0.05749895  1
  H+  H360  1  0.57039924  0.42396780  0.43688030  1
  H+  H361  1  0.59981945  0.41855338  0.75997872  1
  H+  H362  1  0.13491319  0.02539506  0.31934717  1
  H+  H363  1  0.95120266  0.61224096  0.22987643  1
  H+  H364  1  0.84848837  0.18125055  0.09659174  1
  H+  H365  1  0.18644821  0.59754015  0.27130016  1
  H+  H366  1  0.93269330  0.87341586  0.57700325  1
  H+  H367  1  0.14558381  0.56599897  0.55897267  1
  H+  H368  1  0.32954993  0.16219310  0.10331899  1
  H+  H369  1  0.62093571  0.05303257  0.66197372  1
  H+  H370  1  0.61557805  0.13745884  0.82956396  1
  H+  H371  1  0.27413489  0.28967577  0.72647844  1
  H+  H372  1  0.36303047  0.22258092  0.32190217  1
  H+  H373  1  0.34549967  0.67836758  0.73154362  1
  H+  H374  1  0.65061466  0.09351781  0.56885482  1
  H+  H375  1  0.17766101  0.35643735  0.24023297  1
  H+  H376  1  0.16071920  0.08350633  0.22767100  1
  H+  H377  1  0.09012817  0.39639658  0.47878862  1
  H+  H378  1  0.60249009  0.98847523  0.73055402  1
  H+  H379  1  0.15511670  0.81640549  0.06465542  1
  H+  H380  1  0.28930651  0.38129263  0.16633760  1
  H+  H381  1  0.16142107  0.79880625  0.58763958  1
  H+  H382  1  0.47183418  0.59653037  0.50627117  1
  H+  H383  1  0.93013230  0.09581754  0.58963909  1
  O2-  O384  1  0.09253188  0.18221450  0.14359462  1
  O2-  O385  1  0.09249457  0.16726586  0.47291597  1
  O2-  O386  1  0.08397226  0.16763379  0.81357485  1
  O2-  O387  1  0.07013921  0.42250942  0.14205267  1
  O2-  O388  1  0.06093136  0.42581472  0.46344712  1
  O2-  O389  1  0.08364546  0.41193030  0.81620649  1
  O2-  O390  1  0.03028422  0.65019709  0.15854433  1
  O2-  O391  1  0.07758078  0.66456747  0.47957415  1
  O2-  O392  1  0.07086595  0.65034807  0.81512988  1
  O2-  O393  1  0.08281047  0.91709114  0.14218275  1
  O2-  O394  1  0.07621477  0.91895984  0.46191776  1
  O2-  O395  1  0.04917609  0.88270710  0.80181238  1
  O2-  O396  1  0.32628989  0.15587033  0.14865335  1
  O2-  O397  1  0.36309046  0.26282166  0.44085075  1
  O2-  O398  1  0.34280719  0.17823765  0.80798130  1
  O2-  O399  1  0.34496642  0.40108540  0.14682253  1
  O2-  O400  1  0.32416185  0.38602867  0.41580360  1
  O2-  O401  1  0.33575234  0.42063043  0.82187006  1
  O2-  O402  1  0.32717477  0.67245319  0.14679018  1
  O2-  O403  1  0.32055569  0.63892028  0.47672433  1
  O2-  O404  1  0.33821788  0.67096432  0.80575023  1
  O2-  O405  1  0.32348734  0.90232708  0.14575500  1
  O2-  O406  1  0.31608395  0.89115301  0.49731121  1
  O2-  O407  1  0.33946398  0.91976462  0.81231556  1
  O2-  O408  1  0.57283421  0.18052837  0.13441084  1
  O2-  O409  1  0.57867299  0.16833426  0.47042932  1
  O2-  O410  1  0.58546541  0.16801722  0.81483086  1
  O2-  O411  1  0.60946387  0.42558027  0.14324662  1
  O2-  O412  1  0.57758955  0.42013163  0.48167355  1
  O2-  O413  1  0.59807165  0.41703853  0.80587884  1
  O2-  O414  1  0.55436829  0.63716541  0.14379792  1
  O2-  O415  1  0.57653935  0.65879999  0.47458777  1
  O2-  O416  1  0.58751114  0.66891905  0.81166670  1
  O2-  O417  1  0.57524035  0.91855376  0.13875162  1
  O2-  O418  1  0.57261202  0.90474787  0.47867514  1
  O2-  O419  1  0.58876819  0.91699857  0.83720097  1
  O2-  O420  1  0.86002502  0.18559532  0.14095527  1
  O2-  O421  1  0.84510187  0.16608734  0.45912864  1
  O2-  O422  1  0.83021926  0.16533813  0.81423043  1
  O2-  O423  1  0.83316454  0.42142577  0.14980495  1
  O2-  O424  1  0.82324675  0.41161405  0.46856189  1
  O2-  O425  1  0.82954952  0.40922820  0.81427350  1
  O2-  O426  1  0.83683972  0.67079932  0.13761155  1
  O2-  O427  1  0.83662771  0.66200791  0.47795598  1
  O2-  O428  1  0.82406585  0.64992819  0.81261727  1
  O2-  O429  1  0.82723158  0.95667272  0.13387185  1
  O2-  O430  1  0.83229013  0.91934399  0.46701315  1
  O2-  O431  1  0.83273266  0.91678458  0.80422250  1
  O2-  O432  1  0.16067637  0.08213720  0.18168262  1
  O2-  O433  1  0.08835670  0.04329508  0.54369395  1
  O2-  O434  1  0.18040814  0.11257874  0.85848355  1
  O2-  O435  1  0.17979104  0.36512945  0.19442060  1
  O2-  O436  1  0.21938802  0.31042384  0.53135156  1
  O2-  O437  1  0.17103790  0.33265857  0.86006083  1
  O2-  O438  1  0.17191281  0.58890116  0.19929716  1
  O2-  O439  1  0.15005959  0.57272079  0.51265520  1
  O2-  O440  1  0.17594279  0.58143121  0.84758086  1
  O2-  O441  1  0.14854508  0.81544789  0.18266206  1
  O2-  O442  1  0.15860476  0.80720882  0.54419791  1
  O2-  O443  1  0.16753209  0.82522377  0.81720066  1
  O2-  O444  1  0.42579185  0.10147415  0.18405646  1
  O2-  O445  1  0.45308427  0.05265867  0.54303142  1
  O2-  O446  1  0.41960855  0.08619188  0.85394879  1
  O2-  O447  1  0.41955799  0.32047082  0.19212221  1
  O2-  O448  1  0.42468879  0.39606722  0.53381737  1
  O2-  O449  1  0.42865742  0.34735287  0.84012856  1
  O2-  O450  1  0.39717612  0.58195619  0.19850018  1
  O2-  O451  1  0.41402359  0.55858996  0.52463150  1
  O2-  O452  1  0.42009277  0.59091732  0.85363433  1
  O2-  O453  1  0.41456349  0.83339140  0.18463280  1
  O2-  O454  1  0.40337225  0.80401098  0.51917683  1
  O2-  O455  1  0.41296200  0.82884001  0.85743342  1
  O2-  O456  1  0.64602590  0.07862704  0.17920530  1
  O2-  O457  1  0.65744286  0.08683044  0.52411273  1
  O2-  O458  1  0.66726260  0.08406395  0.86022061  1
  O2-  O459  1  0.66352243  0.32905387  0.18410524  1
  O2-  O460  1  0.65815373  0.33132816  0.51678965  1
  O2-  O461  1  0.66904669  0.32818889  0.86063809  1
  O2-  O462  1  0.67287925  0.58726483  0.18339487  1
  O2-  O463  1  0.67152984  0.58953014  0.52047119  1
  O2-  O464  1  0.66495997  0.58080623  0.85181716  1
  O2-  O465  1  0.66928624  0.86357388  0.20413337  1
  O2-  O466  1  0.66829791  0.82702087  0.50548893  1
  O2-  O467  1  0.67440628  0.83073501  0.85885713  1
  O2-  O468  1  0.93340426  0.10814745  0.18093161  1
  O2-  O469  1  0.91818155  0.08581808  0.50686866  1
  O2-  O470  1  0.91888097  0.08493693  0.84751681  1
  O2-  O471  1  0.91453682  0.34579004  0.18107989  1
  O2-  O472  1  0.89476734  0.31649179  0.50424077  1
  O2-  O473  1  0.91425015  0.33077704  0.85447051  1
  O2-  O474  1  0.95241467  0.63682979  0.18854666  1
  O2-  O475  1  0.91221368  0.58195422  0.52154508  1
  O2-  O476  1  0.90978776  0.57347803  0.84773822  1
  O2-  O477  1  0.92923651  0.82595773  0.19728393  1
  O2-  O478  1  0.91076843  0.82926218  0.50742289  1
  O2-  O479  1  0.89809292  0.81988000  0.84993223  1
  O2-  O480  1  0.16565373  0.08559865  0.30228014  1
  O2-  O481  1  0.16345368  0.07998847  0.65542559  1
  O2-  O482  1  0.17735935  0.08133123  0.97801804  1
  O2-  O483  1  0.17981533  0.35041834  0.31344157  1
  O2-  O484  1  0.16674466  0.32253773  0.64656740  1
  O2-  O485  1  0.16502010  0.33397041  0.98271277  1
  O2-  O486  1  0.18514196  0.59419335  0.31767578  1
  O2-  O487  1  0.14112379  0.55832278  0.63004556  1
  O2-  O488  1  0.19752185  0.55712587  0.96838134  1
  O2-  O489  1  0.16703401  0.83434248  0.30292343  1
  O2-  O490  1  0.17926692  0.83367457  0.68775647  1
  O2-  O491  1  0.15514081  0.82408486  1.02073190  1
  O2-  O492  1  0.42019602  0.08699717  0.29707830  1
  O2-  O493  1  0.41740042  0.06998080  0.65443547  1
  O2-  O494  1  0.40534755  0.07384482  0.97869910  1
  O2-  O495  1  0.41906286  0.32662004  0.30533417  1
  O2-  O496  1  0.42045335  0.33371560  0.64945103  1
  O2-  O497  1  0.42903467  0.34844306  1.00643072  1
  O2-  O498  1  0.41456244  0.59231186  0.31824775  1
  O2-  O499  1  0.41417611  0.59691350  0.64626682  1
  O2-  O500  1  0.41412217  0.58683911  0.97829485  1
  O2-  O501  1  0.40532482  0.83021835  0.30629087  1
  O2-  O502  1  0.40974415  0.82714748  0.64040623  1
  O2-  O503  1  0.42240608  0.84216247  0.97683444  1
  O2-  O504  1  0.67189151  0.09296447  0.30597415  1
  O2-  O505  1  0.65072067  0.10968907  0.64320178  1
  O2-  O506  1  0.66680083  0.10318953  0.98100230  1
  O2-  O507  1  0.66512863  0.33428803  0.31055767  1
  O2-  O508  1  0.65999670  0.33313258  0.64119354  1
  O2-  O509  1  0.65076898  0.29943663  0.98341325  1
  O2-  O510  1  0.67835663  0.59202204  0.30825508  1
  O2-  O511  1  0.65485804  0.56973608  0.64093658  1
  O2-  O512  1  0.66144103  0.57260707  0.97510803  1
  O2-  O513  1  0.65347852  0.79762912  0.31775147  1
  O2-  O514  1  0.66896314  0.81169983  0.62934924  1
  O2-  O515  1  0.66282868  0.83164844  0.98308123  1
  O2-  O516  1  0.94167005  0.12091676  0.30625150  1
  O2-  O517  1  0.93459173  0.09962486  0.63469723  1
  O2-  O518  1  0.91572038  0.08738498  0.97093783  1
  O2-  O519  1  0.92606433  0.34649488  0.30473767  1
  O2-  O520  1  0.91346154  0.33398936  0.62298944  1
  O2-  O521  1  0.91155227  0.33161271  0.97820399  1
  O2-  O522  1  0.93194536  0.58871798  0.30580151  1
  O2-  O523  1  0.90288031  0.57303791  0.63429928  1
  O2-  O524  1  0.93999723  0.60915769  0.96630436  1
  O2-  O525  1  0.92322051  0.81716693  0.31407062  1
  O2-  O526  1  0.95397569  0.91515468  0.61180371  1
  O2-  O527  1  0.89750127  0.82941699  0.97285525  1
  O2-  O528  1  0.08241418  0.16618910  0.02226653  1
  O2-  O529  1  0.10382955  0.18458341  0.35071100  1
  O2-  O530  1  0.08147738  0.16381924  0.69134133  1
  O2-  O531  1  0.07568576  0.41665266  0.02200800  1
  O2-  O532  1  0.09216434  0.42820256  0.34378749  1
  O2-  O533  1  0.07502444  0.38843005  0.69313195  1
  O2-  O534  1  0.05059234  0.63514913  0.03022011  1
  O2-  O535  1  0.09726555  0.67670912  0.35673225  1
  O2-  O536  1  0.05831468  0.63087749  0.66896397  1
  O2-  O537  1  0.05871747  0.90862064  0.02263297  1
  O2-  O538  1  0.09215391  0.92492987  0.34476130  1
  O2-  O539  1  0.08354434  0.91059911  0.67924042  1
  O2-  O540  1  0.34416313  0.17943768  0.02859782  1
  O2-  O541  1  0.33195212  0.16388511  0.34114394  1
  O2-  O542  1  0.33301308  0.16201014  0.68350580  1
  O2-  O543  1  0.32956142  0.42527573  0.02411898  1
  O2-  O544  1  0.33952173  0.40653772  0.35100040  1
  O2-  O545  1  0.30637849  0.34870775  0.71181006  1
  O2-  O546  1  0.34527138  0.68134074  0.02188764  1
  O2-  O547  1  0.31736693  0.66691088  0.35466518  1
  O2-  O548  1  0.34842342  0.68032752  0.68546633  1
  O2-  O549  1  0.33369354  0.91458227  0.01971720  1
  O2-  O550  1  0.34019076  0.93288623  0.32896394  1
  O2-  O551  1  0.35078444  0.91626484  0.68163959  1
  O2-  O552  1  0.59707961  0.20961752  0.00348188  1
  O2-  O553  1  0.58007698  0.17116590  0.34623203  1
  O2-  O554  1  0.56948508  0.17660905  0.69310833  1
  O2-  O555  1  0.59148793  0.41457883  0.01752987  1
  O2-  O556  1  0.55384569  0.44048808  0.36226039  1
  O2-  O557  1  0.58096387  0.41364412  0.68534262  1
  O2-  O558  1  0.57670376  0.65752214  0.01428266  1
  O2-  O559  1  0.56939163  0.63889830  0.35351854  1
  O2-  O560  1  0.57810428  0.65796718  0.68620261  1
  O2-  O561  1  0.59062323  0.92974320  0.01756287  1
  O2-  O562  1  0.56452770  0.92278517  0.35082014  1
  O2-  O563  1  0.57839836  0.89308618  0.62758108  1
  O2-  O564  1  0.83063585  0.16985816  0.01673752  1
  O2-  O565  1  0.84849299  0.18230337  0.34253545  1
  O2-  O566  1  0.81625173  0.18137211  0.69415886  1
  O2-  O567  1  0.81849067  0.39988360  0.02957884  1
  O2-  O568  1  0.83804405  0.42272399  0.34646342  1
  O2-  O569  1  0.82237115  0.39969611  0.68924011  1
  O2-  O570  1  0.82206534  0.66264309  0.01436960  1
  O2-  O571  1  0.84023472  0.65907640  0.35601851  1
  O2-  O572  1  0.79587112  0.60433027  0.68774388  1
  O2-  O573  1  0.82834334  0.92506410  0.01296225  1
  O2-  O574  1  0.83124875  0.89019297  0.35205171  1
  O2-  O575  1  0.82800877  0.92598433  0.67537593  1
