# generated using pymatgen
data_H2O
_symmetry_space_group_name_H-M   'P 1'
_cell_length_a   18.00512696
_cell_length_b   18.00229183
_cell_length_c   22.01605526
_cell_angle_alpha   89.98211591
_cell_angle_beta   90.01749742
_cell_angle_gamma   119.99909237
_symmetry_Int_Tables_number   1
_chemical_formula_structural   H2O
_chemical_formula_sum   'H384 O192'
_cell_volume   6180.13651338
_cell_formula_units_Z   192
loop_
 _symmetry_equiv_pos_site_id
 _symmetry_equiv_pos_as_xyz
  1  'x, y, z'
loop_
 _atom_type_symbol
 _atom_type_oxidation_number
  H+  1.0
  O2-  -2.0
loop_
 _atom_site_type_symbol
 _atom_site_label
 _atom_site_symmetry_multiplicity
 _atom_site_fract_x
 _atom_site_fract_y
 _atom_site_fract_z
 _atom_site_occupancy
  H+  H0  1  0.37958987  0.51660756  0.65572105  1
  H+  H1  1  0.77767397  0.63947457  0.46748578  1
  H+  H2  1  0.87450666  1.00761331  0.65863859  1
  H+  H3  1  0.35867814  0.64834615  1.00815636  1
  H+  H4  1  0.65856154  0.54770258  0.84169843  1
  H+  H5  1  0.25194590  0.12873343  1.00131181  1
  H+  H6  1  0.97667027  0.86783187  0.85089858  1
  H+  H7  1  0.16654664  0.82996947  0.60049442  1
  H+  H8  1  0.86839496  0.76172403  0.18288712  1
  H+  H9  1  0.48212663  0.16739418  0.65948154  1
  H+  H10  1  0.98112502  0.62359636  0.50314858  1
  H+  H11  1  0.65481459  0.62244868  0.50580151  1
  H+  H12  1  0.35291992  0.88479423  -0.00833957  1
  H+  H13  1  0.10773668  0.22192541  0.00633314  1
  H+  H14  1  0.65197370  0.38000701  0.65597175  1
  H+  H15  1  0.40075802  0.82731915  0.92789506  1
  H+  H16  1  0.78251050  0.63814845  0.68152075  1
  H+  H17  1  0.37876656  0.52649209  0.83872455  1
  H+  H18  1  0.46713684  0.86020796  0.17286516  1
  H+  H19  1  0.25562383  0.38403890  0.66556494  1
  H+  H20  1  0.62902950  0.04902572  0.51060214  1
  H+  H21  1  0.10710064  0.37338480  0.83404774  1
  H+  H22  1  0.88436892  0.85459500  0.00088056  1
  H+  H23  1  0.96698770  0.10953779  0.99287297  1
  H+  H24  1  0.16269268  0.07408550  0.57046934  1
  H+  H25  1  0.86231281  0.63522980  0.16716738  1
  H+  H26  1  0.11003393  0.63250863  0.49350100  1
  H+  H27  1  0.72182399  0.37147330  0.33680980  1
  H+  H28  1  0.86130828  0.97492789  0.00812493  1
  H+  H29  1  0.51581802  0.13892937  0.33708145  1
  H+  H30  1  0.88399708  0.01273794  0.18033514  1
  H+  H31  1  0.63398094  0.49750062  0.00136835  1
  H+  H32  1  0.84792957  0.38585445  0.50206353  1
  H+  H33  1  0.73376982  0.63186286  0.34336655  1
  H+  H34  1  0.87982035  0.85820620  0.34108870  1
  H+  H35  1  0.65057405  0.53322697  0.50215754  1
  H+  H36  1  0.60943831  0.63967828  0.16765679  1
  H+  H37  1  0.53232299  0.56464525  0.03944609  1
  H+  H38  1  0.86595188  0.46919186  0.00481298  1
  H+  H39  1  0.73654872  0.11430867  0.66235566  1
  H+  H40  1  0.03082697  0.65715724  0.34043551  1
  H+  H41  1  0.78965583  0.40448350  0.68085718  1
  H+  H42  1  0.02379983  0.38250360  0.83655765  1
  H+  H43  1  0.83068572  0.42404499  0.09402554  1
  H+  H44  1  0.10935038  0.72412109  0.67197933  1
  H+  H45  1  0.63042670  0.36811603  0.51381487  1
  H+  H46  1  0.51490265  0.13977712  0.00596059  1
  H+  H47  1  0.34817064  0.38390709  0.81406413  1
  H+  H48  1  0.36771143  0.41814674  0.50124319  1
  H+  H49  1  0.76992430  0.89103252  0.16847062  1
  H+  H50  1  0.02621218  0.32884402  0.48231125  1
  H+  H51  1  0.38116015  0.60889793  0.17482223  1
  H+  H52  1  0.36598984  0.40423856  0.00437649  1
  H+  H53  1  0.21848352  0.35536808  0.84234376  1
  H+  H54  1  0.51637310  0.63184810  0.35092113  1
  H+  H55  1  0.36814458  0.07134497  0.51089930  1
  H+  H56  1  0.89184159  0.61905762  0.34353274  1
  H+  H57  1  0.87614425  0.49357563  0.67146887  1
  H+  H58  1  0.46756585  0.62077254  -0.00835306  1
  H+  H59  1  0.62957607  0.02435873  0.33087303  1
  H+  H60  1  0.10425798  0.11756512  0.67322021  1
  H+  H61  1  0.86143081  0.22308600  1.00458753  1
  H+  H62  1  0.85505690  -0.02179439  0.50117742  1
  H+  H63  1  0.45737239  0.85706167  0.83234811  1
  H+  H64  1  0.99345848  0.36504543  1.01012828  1
  H+  H65  1  0.10677575  0.71971234  0.15529846  1
  H+  H66  1  0.37672076  0.52669972  0.33568394  1
  H+  H67  1  0.09425795  0.41776938  0.10900603  1
  H+  H68  1  0.78677078  0.65730424  0.82707769  1
  H+  H69  1  0.37927234  0.30002138  0.51601377  1
  H+  H70  1  0.87702565  0.38716475  1.01515285  1
  H+  H71  1  0.00165586  0.87178779  0.17296871  1
  H+  H72  1  0.33791190  0.19820914  0.14911560  1
  H+  H73  1  0.14602651  0.00992551  0.67454175  1
  H+  H74  1  1.09369763  0.11978074  0.16218086  1
  H+  H75  1  0.81751097  0.16540600  0.81320461  1
  H+  H76  1  0.11772746  0.51316743  0.51214965  1
  H+  H77  1  0.40184698  0.29147487  0.31295802  1
  H+  H78  1  0.10444758  0.12185787  0.49426909  1
  H+  H79  1  0.62721270  0.84892809  0.51025098  1
  H+  H80  1  0.59375726  0.98331149  0.00093092  1
  H+  H81  1  0.36871517  0.85835363  0.83460185  1
  H+  H82  1  0.65557762  0.08032835  0.23292182  1
  H+  H83  1  0.62341650  0.10834370  0.17329546  1
  H+  H84  1  0.10818684  0.63172344  0.15704491  1
  H+  H85  1  0.34712288  0.67958395  0.72939702  1
  H+  H86  1  0.39369177  0.30354965  0.20584770  1
  H+  H87  1  0.90339724  0.39061490  0.17377521  1
  H+  H88  1  0.61320366  0.38897556  0.99591052  1
  H+  H89  1  -0.02268940  0.61987454  0.65352431  1
  H+  H90  1  0.51506474  0.39038899  0.14350695  1
  H+  H91  1  0.19884456  0.09459800  0.17087580  1
  H+  H92  1  0.13698192  0.08829762  0.83838802  1
  H+  H93  1  0.45707373  0.51697181  0.62313319  1
  H+  H94  1  0.61791698  0.39777480  0.35416828  1
  H+  H95  1  0.61505234  0.23424777  0.82632120  1
  H+  H96  1  0.12743815  0.60036607  -0.00123699  1
  H+  H97  1  0.87496690  0.10825515  0.33040814  1
  H+  H98  1  0.37547138  0.65279667  0.49661522  1
  H+  H99  1  0.52033990  0.40077870  0.50182680  1
  H+  H100  1  0.15174329  0.64872878  0.32579738  1
  H+  H101  1  0.62887361  0.11336828  0.33093231  1
  H+  H102  1  0.11588013  0.32251329  0.30670303  1
  H+  H103  1  0.39326236  0.87202106  0.65748812  1
  H+  H104  1  0.45124743  0.38538952  0.27935844  1
  H+  H105  1  0.35251491  0.97628803  0.67560954  1
  H+  H106  1  0.36721125  0.96002979  0.50159359  1
  H+  H107  1  0.41341919  0.23815306  0.64687904  1
  H+  H108  1  0.62357567  -0.02320090  0.67337464  1
  H+  H109  1  0.22489617  0.11378582  0.51522773  1
  H+  H110  1  0.02964358  0.39465306  0.67892365  1
  H+  H111  1  0.38778334  0.86304479  0.32847833  1
  H+  H112  1  0.57947326  0.43098337  0.77673971  1
  H+  H113  1  0.14360810  0.52437632  0.17841761  1
  H+  H114  1  0.60991949  0.27348210  0.98800397  1
  H+  H115  1  0.62619949  0.27670459  0.50956290  1
  H+  H116  1  0.13087772  0.85780478  0.99560123  1
  H+  H117  1  0.37598183  0.01708737  0.98693770  1
  H+  H118  1  0.37483009  0.10539894  -0.00804080  1
  H+  H119  1  0.03853131  0.88048691  0.69479615  1
  H+  H120  1  0.07042279  0.70956854  0.82450074  1
  H+  H121  1  0.92365263  0.13995422  0.83876774  1
  H+  H122  1  0.36904093  0.34894435  0.15485211  1
  H+  H123  1  0.61196394  0.64275194  0.83546099  1
  H+  H124  1  0.53022428  0.89232480  0.66912968  1
  H+  H125  1  0.14639159  0.07189859  0.26615200  1
  H+  H126  1  0.74022774  0.84946878  0.98576143  1
  H+  H127  1  0.99451511  0.12041518  0.34922896  1
  H+  H128  1  0.86054328  0.23384436  0.49954275  1
  H+  H129  1  0.34513382  0.36724922  0.34675782  1
  H+  H130  1  0.61303332  0.64442474  0.34966331  1
  H+  H131  1  0.09312491  0.87522847  0.16688206  1
  H+  H132  1  0.60244918  0.21549113  0.16588276  1
  H+  H133  1  0.74807107  0.62425072  0.99957639  1
  H+  H134  1  0.34836404  0.72434194  0.82126293  1
  H+  H135  1  0.35323660  0.96413218  0.15117386  1
  H+  H136  1  0.34860257  0.20804140  0.81657292  1
  H+  H137  1  0.46320148  0.86663054  -0.01371128  1
  H+  H138  1  0.62476599  0.76931547  0.17846116  1
  H+  H139  1  0.64593897  0.60995942  0.69484826  1
  H+  H140  1  0.27534401  0.88636843  0.34539709  1
  H+  H141  1  0.59807427  0.88063905  0.82631237  1
  H+  H142  1  0.57124522  0.16982023  0.39829735  1
  H+  H143  1  0.63319208  0.28116613  0.33406503  1
  H+  H144  1  0.09907824  0.71691806  0.99934904  1
  H+  H145  1  0.62911048  0.77764569  0.83509106  1
  H+  H146  1  0.15122166  0.57728939  0.56720880  1
  H+  H147  1  0.60592842  0.24668898  0.67611739  1
  H+  H148  1  0.33470081  0.91000519  0.40458660  1
  H+  H149  1  0.38230667  0.74906303  0.49721466  1
  H+  H150  1  0.63094841  0.76949486  0.33975972  1
  H+  H151  1  0.22323585  0.35976566  -0.00528831  1
  H+  H152  1  0.89384398  0.62329235  0.49573471  1
  H+  H153  1  0.21605023  0.10629913  0.31734603  1
  H+  H154  1  0.13151228  0.35218816  0.16831109  1
  H+  H155  1  0.83607710  0.66333179  0.10473618  1
  H+  H156  1  0.89100995  0.77950579  0.84158586  1
  H+  H157  1  0.84482561  0.12284699  0.15387806  1
  H+  H158  1  0.37752943  0.29243583  0.68067325  1
  H+  H159  1  0.20599346  0.32944507  0.32348248  1
  H+  H160  1  0.78130927  0.45905637  0.13262241  1
  H+  H161  1  0.65295360  0.81775472  0.57439509  1
  H+  H162  1  0.89288155  0.25869354  0.81628490  1
  H+  H163  1  0.98775020  0.11299003  0.17351344  1
  H+  H164  1  0.76554044  0.87903714  0.81476248  1
  H+  H165  1  0.13786676  0.26025785  0.84372620  1
  H+  H166  1  0.48027668  0.33548530  0.96340721  1
  H+  H167  1  0.68876694  0.08187974  0.84054389  1
  H+  H168  1  0.96839746  0.60305508  0.98390115  1
  H+  H169  1  1.03716972  0.39726203  0.16979584  1
  H+  H170  1  0.09631792  0.21349574  0.15889780  1
  H+  H171  1  0.60156226  0.48161386  0.15397464  1
  H+  H172  1  0.91172150  0.35001041  0.57426491  1
  H+  H173  1  0.61019562  0.88552512  0.34051214  1
  H+  H174  1  0.27479471  0.63624231  0.16270627  1
  H+  H175  1  0.37207261  0.09335529  0.17187088  1
  H+  H176  1  0.27497853  0.31949719  0.39643060  1
  H+  H177  1  0.12004193  0.47857941  0.01884593  1
  H+  H178  1  0.15236450  0.34853932  0.50393642  1
  H+  H179  1  0.39392823  0.54641721  0.50336726  1
  H+  H180  1  0.21288033  0.10883125  0.68742605  1
  H+  H181  1  0.86060502  0.14424633  0.50094450  1
  H+  H182  1  0.53317373  0.62976210  0.68156600  1
  H+  H183  1  0.13691813  0.88536143  0.32178320  1
  H+  H184  1  0.97892494  0.61569316  0.18165021  1
  H+  H185  1  0.41542942  0.83271896  0.26753090  1
  H+  H186  1  0.12102929  0.88329599  0.48868136  1
  H+  H187  1  -0.03193360  0.10920073  0.50923957  1
  H+  H188  1  0.96671683  0.09106469  0.66391333  1
  H+  H189  1  0.37782084  0.53627100  -0.00883303  1
  H+  H190  1  0.89571268  0.37782063  0.66631488  1
  H+  H191  1  0.12364204  0.87773739  0.67832676  1
  H+  H192  1  0.22775048  0.85742593  0.65974514  1
  H+  H193  1  0.09500978  0.20413873  0.34351570  1
  H+  H194  1  -0.03351947  0.85436973  0.33628274  1
  H+  H195  1  0.84819579  0.25756101  0.32525485  1
  H+  H196  1  0.37701413  0.18151298  0.55000231  1
  H+  H197  1  0.87218677  0.85291472  0.65727712  1
  H+  H198  1  0.41356075  0.08885238  0.90112727  1
  H+  H199  1  0.36778476  0.12254643  0.83279391  1
  H+  H200  1  0.65693422  0.62345534  0.99843117  1
  H+  H201  1  0.40776579  0.58932459  0.89630662  1
  H+  H202  1  0.79248376  0.27961916  0.28286825  1
  H+  H203  1  0.49146113  0.87014069  0.51323931  1
  H+  H204  1  0.36689792  0.87323531  0.49669513  1
  H+  H205  1  0.63986201  0.78950277  0.98804153  1
  H+  H206  1  0.03273685  0.25685329  0.61856979  1
  H+  H207  1  0.11976892  0.38754644  1.01574651  1
  H+  H208  1  0.89013504  0.52908916  0.18366875  1
  H+  H209  1  0.87691112  0.10788974  0.99065609  1
  H+  H210  1  0.37144368  0.73612301  0.34307951  1
  H+  H211  1  0.76690033  0.87390462  0.66622351  1
  H+  H212  1  0.61186292  0.15507424  0.49432526  1
  H+  H213  1  0.09377806  0.33354148  0.66028912  1
  H+  H214  1  0.39834219  0.78417469  0.66042081  1
  H+  H215  1  0.38335823  0.61778696  0.33539299  1
  H+  H216  1  0.87082188  0.72798328  1.01031564  1
  H+  H217  1  0.91782689  0.59153683  0.28027495  1
  H+  H218  1  0.66144491  0.96635912  0.47817058  1
  H+  H219  1  0.72471385  0.12904582  0.50844539  1
  H+  H220  1  0.87361079  0.64314264  0.66620559  1
  H+  H221  1  0.32011550  0.91120888  0.05044805  1
  H+  H222  1  0.29992710  0.06693565  0.65089449  1
  H+  H223  1  0.87714747  0.75876159  0.65881167  1
  H+  H224  1  0.58505512  0.42809688  0.59012745  1
  H+  H225  1  0.85284514  0.88028523  0.17214917  1
  H+  H226  1  0.89662048  0.39168058  0.84406366  1
  H+  H227  1  0.12755209  0.60941785  0.65953788  1
  H+  H228  1  0.74366926  0.38072395  0.84295503  1
  H+  H229  1  0.77078743  0.88668062  0.34914575  1
  H+  H230  1  0.60036934  0.13823442  0.82348822  1
  H+  H231  1  0.51718266  0.63453674  0.16792859  1
  H+  H232  1  0.87510810  0.01788248  0.33269521  1
  H+  H233  1  0.13688295  0.52676154  0.66277285  1
  H+  H234  1  0.52141030  0.37956682  0.64419548  1
  H+  H235  1  0.21026697  0.85126209  0.97579590  1
  H+  H236  1  0.35117355  0.87544466  0.15047858  1
  H+  H237  1  0.14484255  0.55895171  0.33500275  1
  H+  H238  1  0.61081133  0.90013061  0.13641676  1
  H+  H239  1  0.87853463  0.77213386  0.50060107  1
  H+  H240  1  0.74881229  0.37895236  0.49811168  1
  H+  H241  1  0.38183511  0.76850220  0.17586974  1
  H+  H242  1  0.12887451  0.89462047  0.78148445  1
  H+  H243  1  0.11146364  0.21469759  0.49491888  1
  H+  H244  1  0.84924927  0.68326731  0.76998045  1
  H+  H245  1  0.96521389  0.38796290  0.51381718  1
  H+  H246  1  0.05103704  0.41390687  0.33595589  1
  H+  H247  1  0.12433953  0.10610171  -0.00963439  1
  H+  H248  1  0.03803437  0.12933891  0.83552064  1
  H+  H249  1  0.27863407  0.65266877  0.34627133  1
  H+  H250  1  0.06492840  0.15207335  0.41424971  1
  H+  H251  1  0.35563892  0.47158206  0.16159664  1
  H+  H252  1  0.61706374  0.73991994  0.50425177  1
  H+  H253  1  0.26335184  0.11213940  0.83018513  1
  H+  H254  1  0.21673136  0.85666491  0.15961717  1
  H+  H255  1  0.51759476  0.14073924  0.49513593  1
  H+  H256  1  0.84881919  0.38921531  0.34644958  1
  H+  H257  1  0.60317990  0.98061406  0.15879419  1
  H+  H258  1  0.12726959  0.97729094  0.01882877  1
  H+  H259  1  0.35130251  0.63720617  0.82224512  1
  H+  H260  1  0.12569297  0.52764716  0.83105396  1
  H+  H261  1  0.85944617  0.45576683  0.77066438  1
  H+  H262  1  0.87288106  0.85759759  0.50990850  1
  H+  H263  1  0.72375723  0.61225516  0.17319488  1
  H+  H264  1  0.87271523  0.14000674  0.66393923  1
  H+  H265  1  0.66273545  0.38632826  0.82742662  1
  H+  H266  1  0.73329910  0.69815172  0.29959553  1
  H+  H267  1  0.38175425  0.02274129  0.32836512  1
  H+  H268  1  0.22779545  0.85425808  0.51049047  1
  H+  H269  1  0.53357087  0.40418520  0.35673333  1
  H+  H270  1  0.14948535  0.00274054  0.84453663  1
  H+  H271  1  0.41805751  0.68195803  0.68658780  1
  H+  H272  1  0.14834100  0.44578382  0.34913324  1
  H+  H273  1  0.11763892  0.82863505  0.89622513  1
  H+  H274  1  0.76314866  0.12921999  0.34559508  1
  H+  H275  1  0.89405778  0.28662819  0.65819902  1
  H+  H276  1  0.11523220  0.74948898  0.33854566  1
  H+  H277  1  0.36516245  0.14331772  0.31948894  1
  H+  H278  1  0.35627467  0.98020773  0.82474821  1
  H+  H279  1  0.63056179  0.76573544  0.66426931  1
  H+  H280  1  0.44674875  0.33921735  0.80980199  1
  H+  H281  1  0.60746707  0.14894578  1.00479944  1
  H+  H282  1  0.09985950  -0.02929000  0.33879761  1
  H+  H283  1  0.59860993  1.00175406  0.83679283  1
  H+  H284  1  0.86737345  0.48748415  0.35150564  1
  H+  H285  1  0.10794608  0.00727143  0.17519165  1
  H+  H286  1  0.47688196  0.12569425  0.84055278  1
  H+  H287  1  0.86401909  0.72774119  0.37073939  1
  H+  H288  1  0.14972911  0.30489058  0.56539821  1
  H+  H289  1  0.34429226  0.68414214  0.43284797  1
  H+  H290  1  0.42481533  0.59811361  0.56609080  1
  H+  H291  1  0.81887913  0.15631862  0.05879500  1
  H+  H292  1  0.21982219  0.61019917  1.00604969  1
  H+  H293  1  0.06901494  0.65889743  0.05952839  1
  H+  H294  1  0.33221186  0.42590051  0.06505611  1
  H+  H295  1  0.07078203  0.15665513  0.06248313  1
  H+  H296  1  0.06742518  0.66168220  0.72955845  1
  H+  H297  1  0.64865725  0.08572008  0.93356894  1
  H+  H298  1  0.39143331  0.24864740  0.96560190  1
  H+  H299  1  0.22226105  0.93317247  0.28434858  1
  H+  H300  1  0.82792953  0.16599049  0.40279361  1
  H+  H301  1  0.40533767  0.31410782  0.87521396  1
  H+  H302  1  0.33157844  0.17964368  0.37072183  1
  H+  H303  1  0.51814344  0.63606045  0.83153447  1
  H+  H304  1  0.66850875  0.58842501  0.23355768  1
  H+  H305  1  0.51952629  0.64335079  0.50116015  1
  H+  H306  1  0.82526409  0.89996232  0.72755793  1
  H+  H307  1  0.08206804  0.91036987  0.39802201  1
  H+  H308  1  0.16230882  0.31060080  0.22025004  1
  H+  H309  1  0.64172763  0.52689255  0.66489608  1
  H+  H310  1  0.75739452  0.12335807  0.15448323  1
  H+  H311  1  0.55927868  0.18009299  0.73135371  1
  H+  H312  1  0.21077732  0.61668334  0.82327838  1
  H+  H313  1  0.76808338  0.88644768  0.50125288  1
  H+  H314  1  0.85536869  0.88059337  0.81938537  1
  H+  H315  1  0.66417317  0.50671847  0.75351601  1
  H+  H316  1  0.41996910  0.08704982  0.57069759  1
  H+  H317  1  0.30958128  0.42277023  0.76597495  1
  H+  H318  1  0.57288986  0.16449033  0.10267915  1
  H+  H319  1  0.09018759  0.91536303  0.07601307  1
  H+  H320  1  0.94557348  0.34865476  0.94721839  1
  H+  H321  1  0.40810809  0.07202847  0.26393918  1
  H+  H322  1  0.91010113  0.07973111  0.56956047  1
  H+  H323  1  0.55842500  0.92219998  0.05754425  1
  H+  H324  1  0.52006963  0.88473075  0.34033653  1
  H+  H325  1  0.91088243  0.82610665  0.94073171  1
  H+  H326  1  0.26601559  0.38152643  0.15402729  1
  H+  H327  1  0.91491173  0.07849430  0.24012676  1
  H+  H328  1  0.86007144  0.18567584  0.72119150  1
  H+  H329  1  0.42812930  0.83807222  0.57264815  1
  H+  H330  1  0.08080109  0.40763225  0.43968957  1
  H+  H331  1  0.40847647  0.57841926  0.23504039  1
  H+  H332  1  0.58433066  0.66883263  0.74413977  1
  H+  H333  1  0.91717310  0.59213617  0.59314495  1
  H+  H334  1  0.17126013  0.59289842  0.23306292  1
  H+  H335  1  0.08322920  0.40811329  0.74014782  1
  H+  H336  1  0.67170376  0.83697732  0.89132187  1
  H+  H337  1  0.15729310  0.07036088  0.93445944  1
  H+  H338  1  0.09014031  0.19893977  0.67352631  1
  H+  H339  1  0.40914431  0.34829588  0.57623929  1
  H+  H340  1  0.35436268  0.73430550  0.00934223  1
  H+  H341  1  0.30211351  0.12453040  0.10066679  1
  H+  H342  1  0.83230647  0.91835997  0.06898438  1
  H+  H343  1  0.83147089  0.92177631  0.40759389  1
  H+  H344  1  0.68348367  0.60189536  0.90351852  1
  H+  H345  1  0.23373895  0.45247460  0.68813193  1
  H+  H346  1  0.66884472  0.09078486  0.61015667  1
  H+  H347  1  0.57231326  0.90917638  0.76449277  1
  H+  H348  1  0.33024091  0.91465500  0.73144139  1
  H+  H349  1  0.58492599  0.42296983  0.44476381  1
  H+  H350  1  0.58762194  0.43219198  0.06239770  1
  H+  H351  1  0.33560159  0.66982408  0.10396783  1
  H+  H352  1  0.89993088  0.82008995  0.59227393  1
  H+  H353  1  0.90264518  0.56343232  0.92770164  1
  H+  H354  1  0.09125755  0.14980540  0.77403148  1
  H+  H355  1  0.64881061  0.33736333  0.92752665  1
  H+  H356  1  0.16475657  0.83309423  0.22170072  1
  H+  H357  1  0.61098504  0.84269940  0.20740118  1
  H+  H358  1  0.66568357  0.32617265  0.23861575  1
  H+  H359  1  0.95089828  0.57420715  0.82548213  1
  H+  H360  1  0.66846142  0.82307036  0.27844148  1
  H+  H361  1  0.13692616  0.76828178  0.50971399  1
  H+  H362  1  0.16073809  0.32537189  0.93734114  1
  H+  H363  1  0.58941380  0.91465210  0.42971380  1
  H+  H364  1  0.38294065  0.18962344  0.47861976  1
  H+  H365  1  0.89539270  0.81745660  0.24496067  1
  H+  H366  1  0.71740240  0.11961548  0.98844536  1
  H+  H367  1  0.33582817  0.43970950  0.43977190  1
  H+  H368  1  0.68232106  0.34036144  0.60703673  1
  H+  H369  1  0.72093845  0.34597456  0.17792926  1
  H+  H370  1  0.57036560  0.65029350  0.07505266  1
  H+  H371  1  0.63035802  0.85639241  0.66018745  1
  H+  H372  1  0.82071419  0.41720862  0.43636491  1
  H+  H373  1  0.09331636  0.63256632  0.82006379  1
  H+  H374  1  0.46526578  0.10109667  0.17094781  1
  H+  H375  1  0.31808152  0.21228289  0.03804676  1
  H+  H376  1  0.86731695  0.63539727  0.00685329  1
  H+  H377  1  0.85433125  0.31164237  0.88646747  1
  H+  H378  1  0.11859045  0.97025983  0.48842849  1
  H+  H379  1  0.58082949  0.66923710  0.43909739  1
  H+  H380  1  0.92739925  0.09276050  0.89919485  1
  H+  H381  1  0.09235948  0.67640637  0.43482313  1
  H+  H382  1  0.91464958  0.35328684  0.23521459  1
  H+  H383  1  0.26032561  0.90635785  0.81745900  1
  O2-  O384  1  0.06017829  0.14986579  0.14893989  1
  O2-  O385  1  0.07511050  0.15326155  0.47888799  1
  O2-  O386  1  0.09885338  0.15156108  0.81876518  1
  O2-  O387  1  0.09681878  0.41650344  0.15509665  1
  O2-  O388  1  0.07336780  0.38812753  0.48259712  1
  O2-  O389  1  0.07955825  0.40516676  0.81660040  1
  O2-  O390  1  0.07376095  0.65796154  0.14320303  1
  O2-  O391  1  0.08714890  0.67105933  0.47948985  1
  O2-  O392  1  0.05189141  0.65257946  0.80654732  1
  O2-  O393  1  0.06157390  0.90634702  0.15769509  1
  O2-  O394  1  0.09441195  0.91389831  0.46874386  1
  O2-  O395  1  0.15433558  0.90320825  0.82315008  1
  O2-  O396  1  0.30572789  0.13465259  0.14500401  1
  O2-  O397  1  0.34731293  0.18534038  0.51345909  1
  O2-  O398  1  0.32448535  0.14422883  0.81173194  1
  O2-  O399  1  0.32768035  0.41389523  0.14128318  1
  O2-  O400  1  0.34752919  0.45539513  0.48281386  1
  O2-  O401  1  0.31939174  0.41831442  0.80970852  1
  O2-  O402  1  0.33640098  0.66521607  0.14968005  1
  O2-  O403  1  0.34857378  0.68689977  0.47978042  1
  O2-  O404  1  0.32163537  0.66542283  0.80324066  1
  O2-  O405  1  0.32163953  0.90517809  0.13361607  1
  O2-  O406  1  0.33565107  0.90265871  0.48241186  1
  O2-  O407  1  0.32037077  0.92130075  0.80898508  1
  O2-  O408  1  0.56893912  0.15608880  0.14752854  1
  O2-  O409  1  0.57601731  0.17938200  0.47880142  1
  O2-  O410  1  0.57533044  0.17484964  0.81192530  1
  O2-  O411  1  0.57440491  0.42803745  0.12943456  1
  O2-  O412  1  0.58145345  0.42253618  0.49172183  1
  O2-  O413  1  0.64003532  0.46336829  0.78725976  1
  O2-  O414  1  0.57767953  0.66866499  0.15260883  1
  O2-  O415  1  0.58228257  0.67171360  0.48593922  1
  O2-  O416  1  0.57881279  0.66817711  0.81681906  1
  O2-  O417  1  0.57006405  0.92036121  0.14134745  1
  O2-  O418  1  0.60188924  0.91995157  0.47540305  1
  O2-  O419  1  0.56384156  0.90669023  0.80961578  1
  O2-  O420  1  0.81481910  0.14954309  0.13502666  1
  O2-  O421  1  0.83064913  0.17415301  0.48403968  1
  O2-  O422  1  0.87587926  0.20138570  0.79857877  1
  O2-  O423  1  0.81811523  0.43419938  0.13853254  1
  O2-  O424  1  0.81217999  0.40919238  0.48283570  1
  O2-  O425  1  0.85850597  0.44995956  0.81666211  1
  O2-  O426  1  0.82872213  0.66092481  0.15015709  1
  O2-  O427  1  0.83943955  0.67373700  0.45196714  1
  O2-  O428  1  0.84772516  0.68584450  0.81462327  1
  O2-  O429  1  0.83092713  0.91861912  0.15658171  1
  O2-  O430  1  0.82687085  0.91825640  0.48465289  1
  O2-  O431  1  0.82247013  0.90091283  0.79520152  1
  O2-  O432  1  0.13891701  0.07084864  0.18587416  1
  O2-  O433  1  0.16367105  0.08066047  0.52590931  1
  O2-  O434  1  0.17217605  0.06351209  0.85629841  1
  O2-  O435  1  0.15916983  0.31495930  0.17567715  1
  O2-  O436  1  0.16807191  0.30843305  0.52247432  1
  O2-  O437  1  0.15921114  0.31999822  0.85873275  1
  O2-  O438  1  0.17020299  0.58685626  0.18822885  1
  O2-  O439  1  0.14781131  0.57416878  0.52134488  1
  O2-  O440  1  0.14996043  0.58969724  0.83624420  1
  O2-  O441  1  0.15719493  0.82676933  0.17720101  1
  O2-  O442  1  0.16798864  0.82920919  0.52542934  1
  O2-  O443  1  0.09208237  0.82218089  0.85390922  1
  O2-  O444  1  0.40490482  0.06614736  0.18694392  1
  O2-  O445  1  0.41625055  0.06727483  0.52774215  1
  O2-  O446  1  0.41502964  0.09239444  0.85476075  1
  O2-  O447  1  0.39645797  0.31258306  0.16207020  1
  O2-  O448  1  0.41108442  0.35912969  0.53207019  1
  O2-  O449  1  0.39134994  0.31216418  0.83032754  1
  O2-  O450  1  0.40982075  0.57623151  0.19016221  1
  O2-  O451  1  0.42629174  0.60815969  0.52134709  1
  O2-  O452  1  0.41032831  0.58772541  0.85099371  1
  O2-  O453  1  0.40848756  0.82940971  0.19058943  1
  O2-  O454  1  0.43095150  0.83564946  0.52559478  1
  O2-  O455  1  0.39753525  0.82681281  0.84874100  1
  O2-  O456  1  0.65357493  0.07714622  0.18785613  1
  O2-  O457  1  0.66511929  0.10834251  0.52399302  1
  O2-  O458  1  0.62981549  0.06399590  0.85156686  1
  O2-  O459  1  0.66335792  0.31004700  0.19542617  1
  O2-  O460  1  0.66150105  0.33691880  0.52590158  1
  O2-  O461  1  0.68074472  0.35015093  0.84963255  1
  O2-  O462  1  0.66320558  0.58571128  0.18887479  1
  O2-  O463  1  0.69021163  0.59540036  0.50879269  1
  O2-  O464  1  0.67834581  0.60552010  0.85860599  1
  O2-  O465  1  0.65540268  0.82833928  0.19787493  1
  O2-  O466  1  0.65464500  0.81665929  0.52693106  1
  O2-  O467  1  0.65987126  0.83934542  0.84699940  1
  O2-  O468  1  0.91768142  0.07609188  0.19424289  1
  O2-  O469  1  0.90805526  0.08442421  0.52393669  1
  O2-  O470  1  0.94509821  0.10387184  0.85576373  1
  O2-  O471  1  0.94552549  0.38568750  0.19873294  1
  O2-  O472  1  0.90642730  0.34908594  0.52800231  1
  O2-  O473  1  0.90564323  0.34464514  0.86160886  1
  O2-  O474  1  0.92016006  0.58805498  0.20077921  1
  O2-  O475  1  0.92092185  0.59583467  0.51817101  1
  O2-  O476  1  0.89070525  0.53689725  0.84222492  1
  O2-  O477  1  0.89446684  0.82133590  0.19979710  1
  O2-  O478  1  0.89583077  0.82220075  0.52732447  1
  O2-  O479  1  0.91550376  0.83954092  0.85968705  1
  O2-  O480  1  0.15384596  0.07263020  0.31089748  1
  O2-  O481  1  0.17560467  0.06952144  0.65599644  1
  O2-  O482  1  0.15868143  0.07819417  0.97926082  1
  O2-  O483  1  0.14918667  0.29349977  0.30244491  1
  O2-  O484  1  0.09105422  0.28496325  0.63486482  1
  O2-  O485  1  0.16194085  0.32602564  0.98286106  1
  O2-  O486  1  0.18072634  0.61485692  0.31521363  1
  O2-  O487  1  0.15837682  0.58167335  0.64167472  1
  O2-  O488  1  0.16008002  0.56995476  0.99302836  1
  O2-  O489  1  0.18338850  0.87626156  0.30092846  1
  O2-  O490  1  0.16663170  0.82997854  0.64645751  1
  O2-  O491  1  0.14750741  0.82299514  0.96842893  1
  O2-  O492  1  0.40857409  0.08066623  0.30926687  1
  O2-  O493  1  0.42114513  0.15070389  0.63328998  1
  O2-  O494  1  0.40766578  0.08038496  0.97443108  1
  O2-  O495  1  0.42461304  0.35496802  0.31697681  1
  O2-  O496  1  0.41437232  0.29491052  0.64740408  1
  O2-  O497  1  0.42191283  0.30651967  0.94710662  1
  O2-  O498  1  0.41249204  0.58545649  0.32125329  1
  O2-  O499  1  0.43557536  0.55491832  0.63541398  1
  O2-  O500  1  0.40870764  0.59589540  0.97506441  1
  O2-  O501  1  0.41877392  0.83335293  0.31337787  1
  O2-  O502  1  0.42542364  0.84398336  0.64182944  1
  O2-  O503  1  0.40103037  0.83134272  0.97313027  1
  O2-  O504  1  0.66151224  0.08501969  0.31667714  1
  O2-  O505  1  0.67465176  0.07886988  0.65293104  1
  O2-  O506  1  0.65498695  0.09394469  0.97810777  1
  O2-  O507  1  0.66257873  0.34218964  0.32035026  1
  O2-  O508  1  0.68223337  0.34694816  0.65185838  1
  O2-  O509  1  0.62327295  0.32968551  0.96876660  1
  O2-  O510  1  0.69565312  0.63987346  0.31448430  1
  O2-  O511  1  0.67520508  0.57507330  0.69327845  1
  O2-  O512  1  0.68641288  0.59372585  0.98232334  1
  O2-  O513  1  0.66569500  0.82889341  0.32321954  1
  O2-  O514  1  0.65694030  0.82267621  0.64294133  1
  O2-  O515  1  0.68919924  0.80882264  0.96134508  1
  O2-  O516  1  0.90721768  0.07892357  0.31627386  1
  O2-  O517  1  0.90892021  0.06926819  0.64527856  1
  O2-  O518  1  0.90721166  0.07681312  0.97720938  1
  O2-  O519  1  0.84793992  0.30659764  0.30358959  1
  O2-  O520  1  0.92511564  0.34890397  0.64666634  1
  O2-  O521  1  0.93440239  0.33534657  0.99054372  1
  O2-  O522  1  0.92257973  0.59132604  0.32573106  1
  O2-  O523  1  0.91570856  0.58988143  0.63922847  1
  O2-  O524  1  0.90602828  0.57164203  0.97221107  1
  O2-  O525  1  0.90304756  0.82102671  0.32732731  1
  O2-  O526  1  0.90409061  0.82244255  0.64070222  1
  O2-  O527  1  0.91081822  0.82138569  0.98570099  1
  O2-  O528  1  0.07486754  0.15945665  0.01781652  1
  O2-  O529  1  0.05641715  0.14939562  0.36612925  1
  O2-  O530  1  0.07158233  0.14198619  0.69238416  1
  O2-  O531  1  0.09113894  0.41642110  0.03531887  1
  O2-  O532  1  0.09800653  0.44708101  0.36435051  1
  O2-  O533  1  0.08786792  0.41015017  0.69444889  1
  O2-  O534  1  0.06882206  0.65643818  0.01443060  1
  O2-  O535  1  0.09318400  0.69031280  0.35181767  1
  O2-  O536  1  0.07369086  0.66288345  0.68428045  1
  O2-  O537  1  0.12697300  0.92886536  0.03991879  1
  O2-  O538  1  0.07333050  0.90907143  0.35187589  1
  O2-  O539  1  0.10030518  0.91021206  0.70273493  1
  O2-  O540  1  0.31400059  0.16184499  0.01816984  1
  O2-  O541  1  0.34074406  0.18251108  0.32693108  1
  O2-  O542  1  0.35400413  0.07956302  0.67116628  1
  O2-  O543  1  0.33223242  0.42926487  0.01932808  1
  O2-  O544  1  0.29531432  0.36721793  0.36763340  1
  O2-  O545  1  0.28004436  0.43878188  0.68711956  1
  O2-  O546  1  0.32926690  0.67595053  0.02842438  1
  O2-  O547  1  0.33916069  0.67676204  0.36197391  1
  O2-  O548  1  0.36827486  0.68953029  0.68609002  1
  O2-  O549  1  0.32259074  0.91649715  0.00544106  1
  O2-  O550  1  0.33574572  0.91334509  0.35907966  1
  O2-  O551  1  0.33380224  0.91596137  0.68600389  1
  O2-  O552  1  0.57479153  0.17678170  0.02045156  1
  O2-  O553  1  0.57572620  0.16942536  0.35318694  1
  O2-  O554  1  0.55636072  0.18900952  0.68700137  1
  O2-  O555  1  0.59437379  0.43474827  0.01507815  1
  O2-  O556  1  0.59128434  0.42866134  0.37424971  1
  O2-  O557  1  0.58209333  0.42252914  0.63445316  1
  O2-  O558  1  0.56105414  0.62644120  0.03273067  1
  O2-  O559  1  0.57547994  0.66476277  0.36857680  1
  O2-  O560  1  0.59106345  0.66725843  0.69820312  1
  O2-  O561  1  0.56043495  0.92198402  0.01283263  1
  O2-  O562  1  0.58046628  0.91546262  0.35686603  1
  O2-  O563  1  0.58903483  0.91447845  0.68620158  1
  O2-  O564  1  0.82263580  0.16103668  0.01317249  1
  O2-  O565  1  0.82555952  0.16124369  0.35758662  1
  O2-  O566  1  0.85182346  0.17984080  0.67639245  1
  O2-  O567  1  0.84133243  0.41294117  0.02613129  1
  O2-  O568  1  0.83082126  0.42710309  0.36702419  1
  O2-  O569  1  0.85087621  0.43673108  0.69370080  1
  O2-  O570  1  0.84005031  0.66581539  0.02652862  1
  O2-  O571  1  0.83358646  0.66591546  0.38495458  1
  O2-  O572  1  0.84617225  0.67610030  0.68424506  1
  O2-  O573  1  0.83378265  0.91498291  0.02441005  1
  O2-  O574  1  0.83211506  0.92123530  0.36194191  1
  O2-  O575  1  0.82768703  0.90205040  0.67992930  1
