# generated using pymatgen
data_H2O
_symmetry_space_group_name_H-M   'P 1'
_cell_length_a   17.98705302
_cell_length_b   17.98838887
_cell_length_c   22.00662446
_cell_angle_alpha   90.00881330
_cell_angle_beta   89.98969610
_cell_angle_gamma   120.00063331
_symmetry_Int_Tables_number   1
_chemical_formula_structural   H2O
_chemical_formula_sum   'H384 O192'
_cell_volume   6166.42660209
_cell_formula_units_Z   192
loop_
 _symmetry_equiv_pos_site_id
 _symmetry_equiv_pos_as_xyz
  1  'x, y, z'
loop_
 _atom_type_symbol
 _atom_type_oxidation_number
  H+  1.0
  O2-  -2.0
loop_
 _atom_site_type_symbol
 _atom_site_label
 _atom_site_symmetry_multiplicity
 _atom_site_fract_x
 _atom_site_fract_y
 _atom_site_fract_z
 _atom_site_occupancy
  H+  H0  1  0.36183919  0.62305941  0.48871485  1
  H+  H1  1  0.04375664  0.31429920  0.68385624  1
  H+  H2  1  0.43261551  0.33042692  0.28119459  1
  H+  H3  1  0.17687601  0.15199047  0.13330722  1
  H+  H4  1  0.36245236  0.90696994  0.00945534  1
  H+  H5  1  0.90134451  0.33287297  0.23671413  1
  H+  H6  1  0.13822290  0.11508678  0.41647266  1
  H+  H7  1  0.63370025  0.35739547  0.17141849  1
  H+  H8  1  0.04472930  0.14233585  0.15971954  1
  H+  H9  1  0.97891300  0.62153873  0.33243769  1
  H+  H10  1  0.74091348  0.87755886  0.48775279  1
  H+  H11  1  0.87800827  0.73991580  0.49631406  1
  H+  H12  1  0.88523604  0.77069357  0.66060502  1
  H+  H13  1  0.70978589  0.84823316  0.95618433  1
  H+  H14  1  0.59575273  0.77409452  0.62644592  1
  H+  H15  1  0.88270437  0.52477382  0.51104132  1
  H+  H16  1  0.11195467  0.72469536  0.49537276  1
  H+  H17  1  0.63627079  0.60123736  0.84479927  1
  H+  H18  1  0.87858845  0.90095775  0.01545418  1
  H+  H19  1  0.34002909  0.92676152  0.10049139  1
  H+  H20  1  0.06431509  0.62342745  1.00126860  1
  H+  H21  1  0.52354523  0.89731846  0.66865158  1
  H+  H22  1  0.63452650  0.59572794  0.99749731  1
  H+  H23  1  0.39741764  0.00833198  0.84760281  1
  H+  H24  1  0.71584374  0.60202647  0.17872185  1
  H+  H25  1  0.89107895  0.28413389  0.50811476  1
  H+  H26  1  0.37245102  0.57970130  0.99854558  1
  H+  H27  1  0.14490923  0.77623622  0.64538351  1
  H+  H28  1  0.22042400  1.10873635  0.83547562  1
  H+  H29  1  0.90740933  1.04001380  -0.00199554  1
  H+  H30  1  0.77771506  0.63376153  0.00968328  1
  H+  H31  1  0.78195469  0.39633259  0.83468978  1
  H+  H32  1  0.58937192  0.87039138  0.80863943  1
  H+  H33  1  0.80293833  0.92244744  0.02083277  1
  H+  H34  1  0.52451858  0.63399145  0.16267429  1
  H+  H35  1  0.90473387  0.02835587  0.48798272  1
  H+  H36  1  0.56825671  0.91991876  0.75854253  1
  H+  H37  1  0.97815248  0.61999926  0.86234911  1
  H+  H38  1  0.94247851  0.60646729  0.95204077  1
  H+  H39  1  0.66543945  0.12227782  0.83185933  1
  H+  H40  1  0.90028543  0.53138177  0.66501789  1
  H+  H41  1  0.37660657  -0.01321920  0.16733199  1
  H+  H42  1  -0.00882780  0.12858331  -0.01533861  1
  H+  H43  1  0.60425521  0.14578840  0.49380806  1
  H+  H44  1  0.21774933  0.38250448  0.15302589  1
  H+  H45  1  0.62413348  0.14783229  0.66375468  1
  H+  H46  1  0.37554908  0.48042194  0.67267142  1
  H+  H47  1  0.65378689  0.28072791  0.66593860  1
  H+  H48  1  0.21720435  0.09518256  0.53170427  1
  H+  H49  1  0.90758901  0.29573593  0.82181518  1
  H+  H50  1  0.22909052  0.36189389  -0.00638146  1
  H+  H51  1  0.66239718  0.78464621  0.48479073  1
  H+  H52  1  0.66482462  0.57261392  0.57110060  1
  H+  H53  1  0.31275887  0.52328873  0.55141350  1
  H+  H54  1  0.36515594  0.46040273  1.01293097  1
  H+  H55  1  0.36898742  0.72692179  0.82988697  1
  H+  H56  1  0.28412541  0.63168263  0.67415622  1
  H+  H57  1  0.22832859  0.86407686  0.83922777  1
  H+  H58  1  0.53500254  0.95793585  0.45505742  1
  H+  H59  1  0.48858374  0.36739973  0.66085535  1
  H+  H60  1  0.62511219  0.39206631  0.68018164  1
  H+  H61  1  0.87103544  0.97248651  0.67525497  1
  H+  H62  1  0.87701290  0.02271564  0.33233990  1
  H+  H63  1  0.56186899  0.88520255  0.39217068  1
  H+  H64  1  0.14351472  0.26479855  0.49720754  1
  H+  H65  1  0.76409166  0.38664605  0.50784837  1
  H+  H66  1  0.14348840  0.50638020  0.64988601  1
  H+  H67  1  0.34101878  0.11859081  0.51164955  1
  H+  H68  1  0.38542798  0.86082081  0.32180528  1
  H+  H69  1  0.59364918  0.08493072  0.18372142  1
  H+  H70  1  0.73568939  0.62504622  0.32934494  1
  H+  H71  1  0.90914344  0.38353846  0.83315328  1
  H+  H72  1  0.62221840  0.09547379  0.36686749  1
  H+  H73  1  0.37179223  0.88612443  0.16008769  1
  H+  H74  1  0.77799762  0.89175570  0.16852233  1
  H+  H75  1  0.61577278  0.37406675  -0.00427821  1
  H+  H76  1  0.88025621  0.15909573  0.80622433  1
  H+  H77  1  -0.02688676  0.85539940  0.51010377  1
  H+  H78  1  0.36459764  0.22666033  0.82845852  1
  H+  H79  1  0.65872392  0.04909487  0.99105486  1
  H+  H80  1  0.60588795  0.70693951  0.82592866  1
  H+  H81  1  0.78927036  0.40156123  0.68649202  1
  H+  H82  1  0.27444480  0.37564047  0.48231162  1
  H+  H83  1  0.64101285  0.77174805  0.17128781  1
  H+  H84  1  0.39554309  0.11295224  0.18058020  1
  H+  H85  1  0.62149402  0.48032575  0.49757660  1
  H+  H86  1  0.88255675  0.77914169  0.99602082  1
  H+  H87  1  0.59631678  0.30377540  0.56208111  1
  H+  H88  1  0.09206059  0.38856688  0.31862610  1
  H+  H89  1  0.40462032  0.81902504  0.99704734  1
  H+  H90  1  0.47389674  0.85765967  0.31776221  1
  H+  H91  1  0.12221713  0.13435646  0.51201992  1
  H+  H92  1  0.88160816  0.23847807  0.16318137  1
  H+  H93  1  0.35808996  0.63024944  0.16392380  1
  H+  H94  1  0.96021548  0.84436056  0.17232658  1
  H+  H95  1  0.35107316  0.68072262  0.00362695  1
  H+  H96  1  0.36595363  0.72640774  0.67671614  1
  H+  H97  1  0.63518729  0.85727640  0.17111018  1
  H+  H98  1  0.86079001  0.38774071  0.16389577  1
  H+  H99  1  0.86429077  0.48866716  0.01680741  1
  H+  H100  1  0.38907846  0.35799485  0.99528012  1
  H+  H101  1  0.85742174  0.72115098  0.83342555  1
  H+  H102  1  0.64005891  0.36040264  0.84013748  1
  H+  H103  1  0.19328432  0.07328940  0.13402296  1
  H+  H104  1  0.10848539  0.89254028  -0.00299707  1
  H+  H105  1  0.27590282  0.89489053  0.67297208  1
  H+  H106  1  0.62897953  0.05664543  0.23980356  1
  H+  H107  1  0.13255012  0.85993171  0.50371416  1
  H+  H108  1  0.38720185  0.36083645  0.83516432  1
  H+  H109  1  0.13380762  0.78239758  0.33753327  1
  H+  H110  1  0.59835622  0.20557994  0.33321681  1
  H+  H111  1  0.85372251  0.38669614  0.50188131  1
  H+  H112  1  0.21281531  0.85623156  0.99970788  1
  H+  H113  1  0.40910895  0.72246260  0.47570929  1
  H+  H114  1  0.24848172  0.13278031  -0.01237173  1
  H+  H115  1  0.05750540  0.65758184  0.10110189  1
  H+  H116  1  0.34505868  -0.01532713  1.01479242  1
  H+  H117  1  -0.05201783  0.36911653  0.32148220  1
  H+  H118  1  0.36375616  0.13813341  0.82942334  1
  H+  H119  1  0.01998251  0.79854333  0.77330707  1
  H+  H120  1  0.36280631  0.72424916  0.32973609  1
  H+  H121  1  0.73774131  0.87068199  0.33171962  1
  H+  H122  1  0.12796349  0.61263096  0.16953988  1
  H+  H123  1  0.39262183  0.61482505  0.32107736  1
  H+  H124  1  0.61374279  0.80747907  0.55980373  1
  H+  H125  1  0.36252869  0.26011395  0.32540427  1
  H+  H126  1  0.37251354  0.76509955  0.16844759  1
  H+  H127  1  0.11804430  0.90469858  0.35224613  1
  H+  H128  1  0.82547521  0.39850791  0.34755905  1
  H+  H129  1  0.84790788  0.71950020  0.17035223  1
  H+  H130  1  0.52926031  0.39166300  0.48952896  1
  H+  H131  1  0.35812099  0.98103459  0.49492677  1
  H+  H132  1  0.84921403  0.67781744  0.42833439  1
  H+  H133  1  1.02650175  0.14316739  0.31893466  1
  H+  H134  1  0.89582536  0.38067812  0.66595668  1
  H+  H135  1  0.65782629  0.00504443  0.50860403  1
  H+  H136  1  0.20669641  0.69569888  0.98152023  1
  H+  H137  1  0.34584739  0.77095065  0.51753825  1
  H+  H138  1  0.46207510  0.10453389  0.32999185  1
  H+  H139  1  0.26095558  0.13996710  0.36907158  1
  H+  H140  1  0.87289152  0.64915022  1.01768935  1
  H+  H141  1  0.13582384  0.86133034  0.64799987  1
  H+  H142  1  0.77346457  0.62803862  0.83302470  1
  H+  H143  1  0.54004757  0.13743809  0.82273046  1
  H+  H144  1  0.45960380  0.30837009  0.17407216  1
  H+  H145  1  0.12519654  0.11294359  0.98071353  1
  H+  H146  1  0.38023371  0.26650478  -0.01115925  1
  H+  H147  1  0.88868245  0.61990117  0.85952887  1
  H+  H148  1  0.58416000  0.65918220  0.43188495  1
  H+  H149  1  0.40222263  0.62038013  0.66524384  1
  H+  H150  1  1.01527380  0.87826963  0.65575139  1
  H+  H151  1  0.10534921  0.98075903  -0.00305704  1
  H+  H152  1  0.37389880  1.01560176  0.32882215  1
  H+  H153  1  0.12788903  0.85169095  0.17999563  1
  H+  H154  1  0.11106209  0.99058731  0.36738392  1
  H+  H155  1  0.85838560  0.89919498  0.33662086  1
  H+  H156  1  0.13838156  0.35354713  0.49811424  1
  H+  H157  1  0.63012441  0.27432418  -0.00061284  1
  H+  H158  1  0.66011805  0.52947321  0.33333041  1
  H+  H159  1  0.72207359  0.36742188  0.99890408  1
  H+  H160  1  0.36669176  0.98262950  0.67657109  1
  H+  H161  1  0.82309897  0.66403793  0.10915834  1
  H+  H162  1  0.09771238  0.85629026  0.81499117  1
  H+  H163  1  0.63883513  0.60332808  0.51040416  1
  H+  H164  1  0.98104167  0.87267683  0.33493838  1
  H+  H165  1  0.87544537  0.64034120  0.67841581  1
  H+  H166  1  0.33835837  0.41528707  0.42520258  1
  H+  H167  1  0.60075808  0.23231406  0.49379932  1
  H+  H168  1  0.72565836  0.36174052  0.16996401  1
  H+  H169  1  0.73315681  0.60951666  0.66475832  1
  H+  H170  1  0.62262403  0.36984283  0.50663712  1
  H+  H171  1  0.84995545  0.87630947  0.82640306  1
  H+  H172  1  0.88055055  0.85940637  0.18276786  1
  H+  H173  1  0.75385730  0.13035845  -0.01048169  1
  H+  H174  1  0.13527670  0.23159853  0.65495723  1
  H+  H175  1  0.54775777  0.66171545  0.49878444  1
  H+  H176  1  0.71115038  0.44573729  0.36882539  1
  H+  H177  1  0.12290217  0.38943663  0.81552984  1
  H+  H178  1  0.86739321  0.48753051  0.84371093  1
  H+  H179  1  0.12667192  0.37040651  0.16822679  1
  H+  H180  1  0.89532351  0.11466341  0.67141977  1
  H+  H181  1  0.33062113  0.91998641  0.76857328  1
  H+  H182  1  0.91553452  0.12098872  0.49866105  1
  H+  H183  1  0.06030579  0.88764304  0.08750463  1
  H+  H184  1  0.61574478  0.63500660  0.33972068  1
  H+  H185  1  0.52535405  0.38197653  0.82811427  1
  H+  H186  1  0.46726766  0.59081328  -0.00038187  1
  H+  H187  1  0.61141786  0.46941768  0.99701029  1
  H+  H188  1  0.46514703  0.11382435  0.51044523  1
  H+  H189  1  0.63754228  0.34162450  0.32293034  1
  H+  H190  1  1.02551534  0.13699877  0.79997131  1
  H+  H191  1  0.71328620  0.84832124  0.82653505  1
  H+  H192  1  0.11635097  0.72877219  0.84040745  1
  H+  H193  1  0.51268052  0.86703044  0.15363221  1
  H+  H194  1  0.02136884  0.79459331  0.11299618  1
  H+  H195  1  0.80009615  0.14151819  0.49963962  1
  H+  H196  1  0.39766928  0.52421235  0.17505735  1
  H+  H197  1  0.11358857  0.64493188  0.34076153  1
  H+  H198  1  0.12301600  0.13718801  0.65114114  1
  H+  H199  1  0.97153759  0.36606168  0.18145774  1
  H+  H200  1  0.79351228  0.16005728  0.81449377  1
  H+  H201  1  0.96445494  0.85031115  0.83602223  1
  H+  H202  1  0.53959056  0.63645003  0.67449354  1
  H+  H203  1  0.60121488  0.46815887  0.17307425  1
  H+  H204  1  0.22990032  0.36012725  0.83605166  1
  H+  H205  1  0.85391740  0.18124841  0.43986898  1
  H+  H206  1  0.62970475  0.00914523  0.36364540  1
  H+  H207  1  0.39526082  0.11860635  0.66368747  1
  H+  H208  1  0.42233747  0.58595582  0.23265554  1
  H+  H209  1  0.62658237  0.42801816  0.40453469  1
  H+  H210  1  0.36437203  0.86707181  0.51049141  1
  H+  H211  1  0.12821116  0.00956133  0.62918173  1
  H+  H212  1  1.03903116  0.13125302  0.48614228  1
  H+  H213  1  0.03337307  0.63250963  0.65574506  1
  H+  H214  1  0.14698350  0.61204510  0.85062066  1
  H+  H215  1  0.21757711  0.61221521  0.17206530  1
  H+  H216  1  0.12954060  0.12493756  0.34707086  1
  H+  H217  1  0.60960670  0.98841806  0.66757080  1
  H+  H218  1  0.80665090  0.06077364  0.86593128  1
  H+  H219  1  0.89412962  0.38022869  0.00575214  1
  H+  H220  1  0.39984841  0.36693119  0.65899681  1
  H+  H221  1  0.62173763  0.91475386  1.00639937  1
  H+  H222  1  0.26960778  0.88351586  0.34019688  1
  H+  H223  1  0.13098515  0.76750075  0.18501195  1
  H+  H224  1  0.48350785  0.11560665  0.66042934  1
  H+  H225  1  0.11542824  0.39443366  0.01729436  1
  H+  H226  1  0.87672599  0.64150765  0.49221832  1
  H+  H227  1  0.73363429  0.12431603  0.64656314  1
  H+  H228  1  0.61938395  0.72631561  0.33987025  1
  H+  H229  1  0.35823681  0.88113357  0.82483146  1
  H+  H230  1  0.36255297  0.47030342  0.82393144  1
  H+  H231  1  0.64427897  0.61074838  0.66652290  1
  H+  H232  1  0.83856965  0.95955294  0.82652937  1
  H+  H233  1  0.47283428  0.86309746  0.83008110  1
  H+  H234  1  0.34528459  0.17058760  0.72991728  1
  H+  H235  1  0.23631020  0.61994461  0.49731965  1
  H+  H236  1  0.50796927  0.15049960  1.01308212  1
  H+  H237  1  -0.02087129  0.36992040  0.65872903  1
  H+  H238  1  0.22287801  0.61631583  0.32323435  1
  H+  H239  1  0.51895682  0.61700355  0.83019170  1
  H+  H240  1  0.15546558  0.36290746  0.64606845  1
  H+  H241  1  0.61202950  0.22138099  0.16208168  1
  H+  H242  1  0.35464214  0.38170565  0.32990251  1
  H+  H243  1  0.48354622  0.61652573  0.32385483  1
  H+  H244  1  0.38741761  0.60803012  0.84220915  1
  H+  H245  1  0.87223341  0.65054860  0.34233438  1
  H+  H246  1  0.88403186  0.53744487  0.33767335  1
  H+  H247  1  0.88432421  0.86103004  0.65654769  1
  H+  H248  1  0.36042809  0.49807844  0.50295896  1
  H+  H249  1  0.77044464  0.13380275  0.36414796  1
  H+  H250  1  0.02785713  0.38879945  0.49581451  1
  H+  H251  1  0.75745073  0.15504392  0.24722304  1
  H+  H252  1  0.12026902  0.23727069  0.99977471  1
  H+  H253  1  0.67270180  0.07151976  0.45871686  1
  H+  H254  1  0.74586842  0.18254440  0.22795363  1
  H+  H255  1  0.10239435  0.96509030  0.51195406  1
  H+  H256  1  0.22711695  0.37426991  0.32139182  1
  H+  H257  1  0.91323910  0.12349731  0.17347466  1
  H+  H258  1  0.28855014  0.39023065  0.66445026  1
  H+  H259  1  0.90407149  0.03081081  0.17977895  1
  H+  H260  1  0.87295985  0.74145543  0.34451739  1
  H+  H261  1  0.37932872  0.23017661  0.67098235  1
  H+  H262  1  0.87671659  0.60951637  0.18122297  1
  H+  H263  1  0.85994867  0.47695920  0.16807415  1
  H+  H264  1  0.48430548  0.87331462  0.49125298  1
  H+  H265  1  0.32778867  0.37288579  0.18349515  1
  H+  H266  1  0.52025565  0.13536322  0.16640050  1
  H+  H267  1  1.00957229  0.62998805  0.16455274  1
  H+  H268  1  0.14188731  0.59402831  0.64593500  1
  H+  H269  1  0.36935652  0.47822547  0.33320589  1
  H+  H270  1  0.38109408  0.86235982  0.66890067  1
  H+  H271  1  0.32728634  0.18204110  0.14631909  1
  H+  H272  1  0.86447646  0.23663775  0.65851652  1
  H+  H273  1  0.60087795  0.69870218  0.01382754  1
  H+  H274  1  0.25368340  0.61644166  0.01021238  1
  H+  H275  1  0.36018455  0.11296685  0.99419193  1
  H+  H276  1  0.49277939  0.90343350  -0.00604688  1
  H+  H277  1  0.98416292  0.11571323  0.67247186  1
  H+  H278  1  0.97673827  0.61096082  0.50800238  1
  H+  H279  1  0.51635858  0.37361419  -0.00484886  1
  H+  H280  1  0.09445473  0.47762583  0.32077782  1
  H+  H281  1  0.82698531  0.42523273  0.07305837  1
  H+  H282  1  0.74291615  0.94461708  0.93945300  1
  H+  H283  1  0.88581304  0.15599577  0.00316689  1
  H+  H284  1  0.80286362  0.14472907  0.15590525  1
  H+  H285  1  0.58950241  0.95748111  0.16614643  1
  H+  H286  1  0.97328675  0.86641168  0.99097022  1
  H+  H287  1  0.39958868  0.36799084  0.50169117  1
  H+  H288  1  0.13954852  0.27430464  0.83501175  1
  H+  H289  1  0.65421013  0.30812057  0.26030636  1
  H+  H290  1  0.16158671  0.59326852  0.26553377  1
  H+  H291  1  0.64080659  0.82966225  0.87642941  1
  H+  H292  1  0.40643973  0.20114611  0.10571944  1
  H+  H293  1  0.62423956  0.22952434  0.82323686  1
  H+  H294  1  0.40245431  0.08026589  0.94285230  1
  H+  H295  1  0.16089427  0.83800540  0.27714900  1
  H+  H296  1  0.57735595  0.64516433  0.07485694  1
  H+  H297  1  0.11514119  0.63700525  0.49520233  1
  H+  H298  1  0.57196867  0.17197356  0.06902941  1
  H+  H299  1  0.32241789  0.64884274  0.10338220  1
  H+  H300  1  0.15110500  0.07861569  0.91922545  1
  H+  H301  1  0.18444499  0.10757668  0.24447549  1
  H+  H302  1  0.30813299  0.15337069  0.45757532  1
  H+  H303  1  0.61083576  0.62812545  0.16592851  1
  H+  H304  1  0.86051660  0.14066411  0.34629041  1
  H+  H305  1  0.66879250  0.32988197  0.89917151  1
  H+  H306  1  0.62314610  0.48020755  0.67870769  1
  H+  H307  1  0.67206749  0.09182454  0.58870873  1
  H+  H308  1  0.90219647  0.29682636  0.00029060  1
  H+  H309  1  0.08023509  0.91154868  0.71110199  1
  H+  H310  1  0.18217990  0.58266358  0.55830312  1
  H+  H311  1  0.43264458  0.34332551  0.56150559  1
  H+  H312  1  0.41082368  0.56844289  0.89988138  1
  H+  H313  1  0.10378242  0.47510319  0.16715088  1
  H+  H314  1  0.34395934  0.40227338  0.07287543  1
  H+  H315  1  0.33807780  0.66440223  0.38852727  1
  H+  H316  1  0.07743000  0.41779468  0.10607395  1
  H+  H317  1  0.91217117  0.58503962  0.24045374  1
  H+  H318  1  0.09574409  0.17113730  0.74866936  1
  H+  H319  1  0.08535214  0.39424648  0.73294737  1
  H+  H320  1  0.58820847  0.41472820  0.77030654  1
  H+  H321  1  0.13380719  0.11016529  0.82822026  1
  H+  H322  1  0.85934946  0.18378361  0.06449045  1
  H+  H323  1  0.11546444  0.23155735  0.31240833  1
  H+  H324  1  0.69501281  0.35021171  0.61254387  1
  H+  H325  1  0.66162670  0.57672695  0.24019703  1
  H+  H326  1  0.07836291  0.91761900  0.44586025  1
  H+  H327  1  0.17230089  0.33924796  0.93265099  1
  H+  H328  1  0.86581116  0.89275981  0.47598754  1
  H+  H329  1  0.18414912  0.33485543  0.58443721  1
  H+  H330  1  0.17252222  0.83603556  0.55974909  1
  H+  H331  1  0.11879600  0.47243401  0.49089335  1
  H+  H332  1  0.83635343  0.17862558  0.71708299  1
  H+  H333  1  0.92158888  0.58617950  0.60221504  1
  H+  H334  1  0.33629216  0.41301385  0.76320881  1
  H+  H335  1  0.42972275  0.59025892  0.60600242  1
  H+  H336  1  0.40750382  0.82743871  0.22718657  1
  H+  H337  1  0.12375051  0.23798331  0.15343346  1
  H+  H338  1  0.40917850  0.07331353  0.24287832  1
  H+  H339  1  0.17785867  0.61564344  0.93747307  1
  H+  H340  1  0.91716070  0.34728404  0.56544967  1
  H+  H341  1  0.58469977  0.92731615  0.06911339  1
  H+  H342  1  0.03715307  0.39652140  0.81131595  1
  H+  H343  1  0.03182749  0.40349336  0.01823531  1
  H+  H344  1  0.16712936  0.83710521  0.89871301  1
  H+  H345  1  0.33315311  0.91496986  0.39704794  1
  H+  H346  1  0.84657576  0.92587528  0.11395014  1
  H+  H347  1  0.17507958  0.35018320  0.25930085  1
  H+  H348  1  0.28098029  0.15799065  0.05344140  1
  H+  H349  1  0.42152031  0.40458407  0.16413431  1
  H+  H350  1  0.84075069  0.66393873  0.73845375  1
  H+  H351  1  0.23249176  0.12950397  0.24507323  1
  H+  H352  1  0.91337787  0.08744688  0.27513657  1
  H+  H353  1  0.47777413  0.04167607  0.89011225  1
  H+  H354  1  0.91222892  0.83460257  0.89922173  1
  H+  H355  1  0.59053462  0.65402570  0.73581473  1
  H+  H356  1  0.92298825  0.83703619  0.27407957  1
  H+  H357  1  0.83497175  0.92668892  0.41599203  1
  H+  H358  1  0.41562301  0.33175546  0.89598231  1
  H+  H359  1  0.59650600  0.17363275  0.72673681  1
  H+  H360  1  0.40276769  0.83130278  0.60756327  1
  H+  H361  1  0.61246277  0.87312612  0.33575689  1
  H+  H362  1  0.42083490  0.84583708  0.89374950  1
  H+  H363  1  0.11145425  0.66716171  0.70279846  1
  H+  H364  1  0.67418763  0.83147208  0.27179421  1
  H+  H365  1  0.33927304  0.66507052  0.77186723  1
  H+  H366  1  0.88871848  0.07399191  0.90289776  1
  H+  H367  1  0.90624697  0.82133944  0.56602071  1
  H+  H368  1  0.23882032  0.61893791  0.85112185  1
  H+  H369  1  0.70146548  0.10391100  0.89285071  1
  H+  H370  1  0.82544824  0.90015191  0.72331677  1
  H+  H371  1  0.34431615  0.13175834  0.35342284  1
  H+  H372  1  0.85074043  0.43730819  0.74483284  1
  H+  H373  1  0.82109772  0.43253906  0.41307480  1
  H+  H374  1  0.66822514  0.57325008  0.93565549  1
  H+  H375  1  0.56426379  0.16184942  0.39829565  1
  H+  H376  1  0.41374107  0.07961577  0.57354817  1
  H+  H377  1  0.11789729  0.77141232  0.99380409  1
  H+  H378  1  0.26760804  0.89192147  0.48903834  1
  H+  H379  1  0.63940787  0.51381996  0.84413840  1
  H+  H380  1  0.08209347  0.66766681  0.40278454  1
  H+  H381  1  0.08992500  0.17589396  0.05878500  1
  H+  H382  1  0.86305411  0.28054892  0.33149621  1
  H+  H383  1  0.06550774  0.65432023  0.79191655  1
  O2-  O384  1  0.10108662  0.17808233  0.13833603  1
  O2-  O385  1  0.10439209  0.16076587  0.47993755  1
  O2-  O386  1  0.08747957  0.16920354  0.79410101  1
  O2-  O387  1  0.07303738  0.41419460  0.15296091  1
  O2-  O388  1  0.08835157  0.40994787  0.48430253  1
  O2-  O389  1  0.09619844  0.41731815  0.79221928  1
  O2-  O390  1  0.06808261  0.65973152  0.14523050  1
  O2-  O391  1  0.07974493  0.66292040  0.48254551  1
  O2-  O392  1  0.08012262  0.66412597  0.83474475  1
  O2-  O393  1  0.04468541  0.85389268  0.12633035  1
  O2-  O394  1  0.07515857  0.90789633  0.49125166  1
  O2-  O395  1  0.05028815  0.85599858  0.79091140  1
  O2-  O396  1  0.38992468  0.20076193  0.14803762  1
  O2-  O397  1  0.29958789  0.13808287  0.50118644  1
  O2-  O398  1  0.33286773  0.16548339  0.81355551  1
  O2-  O399  1  0.37134466  0.41316871  0.15537919  1
  O2-  O400  1  0.33662188  0.41248918  0.47088626  1
  O2-  O401  1  0.33382074  0.40978647  0.80883284  1
  O2-  O402  1  0.32628989  0.65864731  0.14796759  1
  O2-  O403  1  0.35400126  0.66990345  0.46916871  1
  O2-  O404  1  0.34045173  0.66519057  0.81730687  1
  O2-  O405  1  0.34872643  0.92622238  0.14646249  1
  O2-  O406  1  0.32995630  0.92158792  0.47687287  1
  O2-  O407  1  0.32986394  0.91586853  0.81437163  1
  O2-  O408  1  0.57819975  0.16016793  0.14785512  1
  O2-  O409  1  0.57084350  0.17127093  0.47874509  1
  O2-  O410  1  0.59778681  0.17076281  0.80477505  1
  O2-  O411  1  0.57078271  0.40767433  0.15589827  1
  O2-  O412  1  0.59291625  0.42017699  0.47755784  1
  O2-  O413  1  0.58727162  0.41205274  0.81614326  1
  O2-  O414  1  0.58445405  0.65994928  0.14610646  1
  O2-  O415  1  0.59638257  0.66148426  0.47565749  1
  O2-  O416  1  0.58021930  0.64451665  0.81681884  1
  O2-  O417  1  0.57447117  0.90328333  0.14287776  1
  O2-  O418  1  0.53663258  0.90637600  0.46598318  1
  O2-  O419  1  0.56101114  0.90460380  0.80349963  1
  O2-  O420  1  0.86297703  0.18011007  0.14413782  1
  O2-  O421  1  0.85872093  0.18256030  0.48559816  1
  O2-  O422  1  0.85167751  0.19043857  0.79269236  1
  O2-  O423  1  0.83020477  0.41829665  0.14948198  1
  O2-  O424  1  0.82249087  0.41897544  0.49123148  1
  O2-  O425  1  0.84264288  0.43263275  0.82091331  1
  O2-  O426  1  0.81963784  0.65908903  0.15420430  1
  O2-  O427  1  0.85155727  0.67681712  0.47555015  1
  O2-  O428  1  0.83515701  0.66050935  0.81990932  1
  O2-  O429  1  0.84095406  0.92185750  0.15901790  1
  O2-  O430  1  0.84249473  0.93014962  0.46411275  1
  O2-  O431  1  0.81431830  0.90024074  0.81039277  1
  O2-  O432  1  0.22154285  0.13450603  0.12496971  1
  O2-  O433  1  0.15252485  0.06320691  0.54819106  1
  O2-  O434  1  0.15948305  0.07901073  0.84836986  1
  O2-  O435  1  0.16589595  0.34486278  0.17600914  1
  O2-  O436  1  0.17371525  0.32688046  0.51053966  1
  O2-  O437  1  0.17004677  0.33285687  0.85263801  1
  O2-  O438  1  0.15759933  0.58346881  0.18757609  1
  O2-  O439  1  0.17768404  0.59067010  0.51384680  1
  O2-  O440  1  0.18255054  0.59354205  0.87262401  1
  O2-  O441  1  0.15861810  0.82677242  0.20093895  1
  O2-  O442  1  0.16723202  0.83182425  0.51428962  1
  O2-  O443  1  0.16672162  0.83167206  0.85365619  1
  O2-  O444  1  0.41432062  0.07311833  0.19626882  1
  O2-  O445  1  0.40689668  0.07808328  0.52781481  1
  O2-  O446  1  0.44090286  0.06065773  0.87126096  1
  O2-  O447  1  0.48824679  0.36915368  0.18866207  1
  O2-  O448  1  0.43664318  0.34562142  0.51643460  1
  O2-  O449  1  0.41757824  0.33040911  0.85081692  1
  O2-  O450  1  0.42013325  0.58503550  0.18652089  1
  O2-  O451  1  0.36583418  0.54930825  0.52794496  1
  O2-  O452  1  0.41393058  0.57278609  0.85489323  1
  O2-  O453  1  0.40499185  0.82695138  0.18122537  1
  O2-  O454  1  0.38740847  0.83041642  0.52894524  1
  O2-  O455  1  0.41173442  0.83375309  0.84988086  1
  O2-  O456  1  0.58835290  0.03412051  0.20611333  1
  O2-  O457  1  0.68008931  0.06701413  0.50360521  1
  O2-  O458  1  0.70580523  0.10447422  0.84721260  1
  O2-  O459  1  0.66388870  0.32582390  0.18242861  1
  O2-  O460  1  0.63981451  0.32749384  0.53014597  1
  O2-  O461  1  0.67263514  0.33161885  0.85412109  1
  O2-  O462  1  0.65542180  0.57161848  0.19459173  1
  O2-  O463  1  0.66438410  0.56923146  0.52605294  1
  O2-  O464  1  0.66966471  0.57400338  0.86073118  1
  O2-  O465  1  0.67028330  0.83209791  0.18584220  1
  O2-  O466  1  0.67752558  0.84280730  0.49635609  1
  O2-  O467  1  0.64890974  0.81539636  0.83583001  1
  O2-  O468  1  0.94150508  0.09264664  0.19040366  1
  O2-  O469  1  0.94337478  0.08604576  0.50621757  1
  O2-  O470  1  0.85798110  0.05561271  0.86263431  1
  O2-  O471  1  0.90869857  0.33211924  0.19127077  1
  O2-  O472  1  0.91446259  0.34592302  0.52010729  1
  O2-  O473  1  0.94355080  0.35497605  0.83738832  1
  O2-  O474  1  0.90956589  0.58130933  0.19486009  1
  O2-  O475  1  0.91633000  0.58667786  0.52359791  1
  O2-  O476  1  0.91900330  0.59221468  0.87968229  1
  O2-  O477  1  0.90570811  0.82278301  0.19533980  1
  O2-  O478  1  0.90993227  0.82100486  0.52008155  1
  O2-  O479  1  0.90646824  0.82861679  0.85405994  1
  O2-  O480  1  0.15286376  0.09794294  0.37723721  1
  O2-  O481  1  0.15970668  0.07076397  0.61485976  1
  O2-  O482  1  0.15123892  0.07834475  0.96593797  1
  O2-  O483  1  0.16799921  0.34609609  0.30393308  1
  O2-  O484  1  0.18962516  0.33744511  0.63042641  1
  O2-  O485  1  0.16977344  0.33758845  0.97810935  1
  O2-  O486  1  0.16207222  0.59363447  0.31098507  1
  O2-  O487  1  0.17682245  0.56642445  0.63661427  1
  O2-  O488  1  0.17503834  0.63316286  0.98238973  1
  O2-  O489  1  0.16523004  0.84307975  0.32273334  1
  O2-  O490  1  0.17470090  0.83846569  0.63624564  1
  O2-  O491  1  0.15722077  0.83120586  0.97832035  1
  O2-  O492  1  0.40151493  0.07658662  0.31415744  1
  O2-  O493  1  0.42208856  0.08316009  0.64817111  1
  O2-  O494  1  0.39411729  0.08333114  0.98721110  1
  O2-  O495  1  0.37505464  0.30898314  0.29746218  1
  O2-  O496  1  0.42968827  0.33676351  0.64315316  1
  O2-  O497  1  0.41813372  0.32775545  0.97647019  1
  O2-  O498  1  0.42372831  0.58496801  0.30660587  1
  O2-  O499  1  0.43003649  0.58738487  0.65064470  1
  O2-  O500  1  0.40857013  0.55706505  0.98180217  1
  O2-  O501  1  0.41277434  0.82957628  0.30303960  1
  O2-  O502  1  0.40781941  0.82946804  0.65242295  1
  O2-  O503  1  0.43126340  0.87564727  0.97835995  1
  O2-  O504  1  0.65620559  0.06845034  0.38122119  1
  O2-  O505  1  0.67164577  0.09614456  0.63312702  1
  O2-  O506  1  0.69850463  0.09918024  0.96692524  1
  O2-  O507  1  0.64851755  0.29770369  0.30485242  1
  O2-  O508  1  0.68793551  0.34488327  0.65677185  1
  O2-  O509  1  0.66265569  0.33517050  0.98115918  1
  O2-  O510  1  0.67513385  0.58696626  0.31589216  1
  O2-  O511  1  0.67246954  0.57708896  0.65116813  1
  O2-  O512  1  0.66730079  0.56859937  0.98170526  1
  O2-  O513  1  0.67163402  0.83028389  0.31677520  1
  O2-  O514  1  0.56604008  0.76924303  0.58816265  1
  O2-  O515  1  0.71070892  0.89999403  0.97004139  1
  O2-  O516  1  0.90957159  0.08744517  0.31975946  1
  O2-  O517  1  0.92364992  0.08297305  0.68566124  1
  O2-  O518  1  0.92824425  0.09380907  0.97407517  1
  O2-  O519  1  0.88434927  0.33818985  0.31332619  1
  O2-  O520  1  0.91957776  0.34864431  0.64361169  1
  O2-  O521  1  0.93307417  0.35954220  0.99301378  1
  O2-  O522  1  0.91804868  0.59504431  0.31754171  1
  O2-  O523  1  0.93185947  0.59107405  0.64720330  1
  O2-  O524  1  0.94498717  0.60585824  0.99862634  1
  O2-  O525  1  0.92130234  0.83760024  0.31929578  1
  O2-  O526  1  0.91394844  0.82808721  0.64057411  1
  O2-  O527  1  0.91103210  0.83839722  0.97893167  1
  O2-  O528  1  0.08884762  0.17516259  0.01340883  1
  O2-  O529  1  0.08836960  0.16828268  0.30899578  1
  O2-  O530  1  0.10227526  0.17227303  0.67205453  1
  O2-  O531  1  0.09088030  0.42674219  0.03661664  1
  O2-  O532  1  0.05533677  0.41471646  0.31941459  1
  O2-  O533  1  0.07485390  0.37702965  0.68386472  1
  O2-  O534  1  0.03695620  0.65695770  0.01566783  1
  O2-  O535  1  0.08206039  0.67342816  0.35768393  1
  O2-  O536  1  0.09881454  0.66106998  0.65953033  1
  O2-  O537  1  0.07669948  0.92021009  0.01341919  1
  O2-  O538  1  0.08180485  0.92620497  0.37089626  1
  O2-  O539  1  0.07909003  0.91057061  0.66625874  1
  O2-  O540  1  0.30449959  0.16347821  0.01188738  1
  O2-  O541  1  0.32530723  0.16946956  0.37216165  1
  O2-  O542  1  0.35199343  0.16971774  0.68548145  1
  O2-  O543  1  0.33575939  0.39949916  0.02824845  1
  O2-  O544  1  0.33369240  0.41865527  0.34901589  1
  O2-  O545  1  0.34525141  0.41895992  0.68584449  1
  O2-  O546  1  0.31197080  0.62677395  0.02378025  1
  O2-  O547  1  0.33405710  0.66296002  0.34349604  1
  O2-  O548  1  0.34222617  0.66577799  0.69177818  1
  O2-  O549  1  0.32283836  0.92364363  0.02924485  1
  O2-  O550  1  0.33225887  0.91191505  0.35176335  1
  O2-  O551  1  0.33347208  0.92211333  0.69265049  1
  O2-  O552  1  0.56904065  0.18213753  0.02484573  1
  O2-  O553  1  0.56483498  0.14758424  0.35480802  1
  O2-  O554  1  0.59553253  0.17881914  0.68140919  1
  O2-  O555  1  0.57947698  0.40549519  0.00847478  1
  O2-  O556  1  0.65292939  0.43755288  0.36299778  1
  O2-  O557  1  0.59150860  0.41884969  0.69432772  1
  O2-  O558  1  0.57311411  0.63961418  0.02829591  1
  O2-  O559  1  0.58400304  0.66441218  0.35348192  1
  O2-  O560  1  0.59849438  0.66123980  0.69121825  1
  O2-  O561  1  0.58725359  0.93802615  0.02382109  1
  O2-  O562  1  0.57520352  0.89851818  0.34828478  1
  O2-  O563  1  0.58115307  0.93142206  0.68703409  1
  O2-  O564  1  0.85524924  0.18503503  0.01950316  1
  O2-  O565  1  0.83345048  0.17292480  0.36487260  1
  O2-  O566  1  0.83448228  0.17539512  0.67152438  1
  O2-  O567  1  0.82472247  0.42814463  0.02752654  1
  O2-  O568  1  0.81534660  0.44118844  0.36895526  1
  O2-  O569  1  0.85086024  0.43545054  0.69904700  1
  O2-  O570  1  0.83520626  0.67299904  0.02765855  1
  O2-  O571  1  0.84166632  0.67961957  0.36005190  1
  O2-  O572  1  0.84249878  0.66769922  0.69324532  1
  O2-  O573  1  0.86110230  0.94021140  0.03560432  1
  O2-  O574  1  0.82467382  0.92622955  0.35012601  1
  O2-  O575  1  0.83850491  0.90872507  0.67952187  1
