# generated using pymatgen
data_H2O
_symmetry_space_group_name_H-M   'P 1'
_cell_length_a   18.00197757
_cell_length_b   17.99954077
_cell_length_c   22.00616016
_cell_angle_alpha   90.00807312
_cell_angle_beta   89.97821541
_cell_angle_gamma   120.02007480
_symmetry_Int_Tables_number   1
_chemical_formula_structural   H2O
_chemical_formula_sum   'H384 O192'
_cell_volume   6174.02839623
_cell_formula_units_Z   192
loop_
 _symmetry_equiv_pos_site_id
 _symmetry_equiv_pos_as_xyz
  1  'x, y, z'
loop_
 _atom_type_symbol
 _atom_type_oxidation_number
  H+  1.0
  O2-  -2.0
loop_
 _atom_site_type_symbol
 _atom_site_label
 _atom_site_symmetry_multiplicity
 _atom_site_fract_x
 _atom_site_fract_y
 _atom_site_fract_z
 _atom_site_occupancy
  H+  H0  1  0.86915054  0.63681096  0.67826917  1
  H+  H1  1  0.99995107  0.33723335  0.66199130  1
  H+  H2  1  0.39257064  0.62483339  0.51361903  1
  H+  H3  1  0.86663007  0.39549066  0.99831585  1
  H+  H4  1  0.14991324  0.53769356  0.82790957  1
  H+  H5  1  0.52287283  0.13042166  0.68886891  1
  H+  H6  1  0.47751146  0.11626226  0.84194455  1
  H+  H7  1  0.37298138  0.72599365  0.15732516  1
  H+  H8  1  0.40764837  0.29819653  0.50374101  1
  H+  H9  1  0.35665764  0.23523290  -0.00581755  1
  H+  H10  1  0.29653217  0.38675705  0.33427864  1
  H+  H11  1  0.22336732  0.86131234  0.33096664  1
  H+  H12  1  0.89340656  0.77215359  0.50400586  1
  H+  H13  1  0.62819074  0.35307466  0.31343330  1
  H+  H14  1  0.59738654  0.37549152  0.67506005  1
  H+  H15  1  0.47681490  0.12260150  0.99216910  1
  H+  H16  1  0.06484555  0.39853702  0.51721143  1
  H+  H17  1  0.02045544  0.14492967  0.82709531  1
  H+  H18  1  0.62500724  0.26530691  0.66130696  1
  H+  H19  1  0.62764592  0.27644683  0.49695190  1
  H+  H20  1  0.38569732  0.85936915  0.16481409  1
  H+  H21  1  0.13624005  0.39507189  0.82347298  1
  H+  H22  1  0.90486854  0.86650251  0.32910891  1
  H+  H23  1  0.40796935  0.33200420  0.90217373  1
  H+  H24  1  0.38350431  0.86744448  0.51146797  1
  H+  H25  1  0.33097474  0.66719827  0.41126915  1
  H+  H26  1  0.12426935  0.11354873  0.32149234  1
  H+  H27  1  0.21926563  0.12329990  0.16852795  1
  H+  H28  1  0.38298302  0.40430587  0.48720648  1
  H+  H29  1  1.02325252  0.13894092  0.99434208  1
  H+  H30  1  0.37204840  0.23933286  0.83861583  1
  H+  H31  1  0.36784606  0.96499341  0.16441634  1
  H+  H32  1  0.37216806  0.22832757  0.68542354  1
  H+  H33  1  0.39546731  0.38316261  0.67671872  1
  H+  H34  1  0.23626444  0.36599542  0.98165675  1
  H+  H35  1  0.73598473  0.69783711  0.62596205  1
  H+  H36  1  0.87274755  0.62228011  0.83524582  1
  H+  H37  1  0.33602048  0.18432600  0.39033257  1
  H+  H38  1  0.48592968  0.85919164  0.32987314  1
  H+  H39  1  0.26634783  0.09551061  0.63836374  1
  H+  H40  1  0.35642545  0.98343822  0.83227405  1
  H+  H41  1  0.35927755  -0.01115861  1.00820124  1
  H+  H42  1  0.72980377  0.59350648  0.84426616  1
  H+  H43  1  0.83253715  0.92019514  0.06979935  1
  H+  H44  1  0.97465064  0.61079370  0.32309050  1
  H+  H45  1  0.64694205  0.56103282  0.34243707  1
  H+  H46  1  0.89785226  0.27645739  0.83907044  1
  H+  H47  1  0.35666224  0.71809076  0.66543062  1
  H+  H48  1  0.13717604  0.76559155  0.66514581  1
  H+  H49  1  0.86345489  0.64658751  0.15968968  1
  H+  H50  1  0.87574976  0.48292260  0.81775156  1
  H+  H51  1  0.13439468  0.03825883  0.87286944  1
  H+  H52  1  0.87881362  0.73257356  0.33891383  1
  H+  H53  1  0.63519944  0.87001442  0.16666145  1
  H+  H54  1  0.51258902  0.37913055  0.67128489  1
  H+  H55  1  0.17025191  0.60964040  0.18051478  1
  H+  H56  1  0.12634768  0.40095724  0.67513703  1
  H+  H57  1  0.41701423  0.09001323  0.90267102  1
  H+  H58  1  0.12535294  0.61341839  0.66501285  1
  H+  H59  1  0.64644364  0.32711208  0.90055277  1
  H+  H60  1  0.60786342  0.45615595  0.29601269  1
  H+  H61  1  0.77358302  0.13672314  0.32723944  1
  H+  H62  1  0.11134114  0.48218791  0.67487935  1
  H+  H63  1  0.51903790  0.38554274  0.32232458  1
  H+  H64  1  0.70756238  0.85081816  0.66803404  1
  H+  H65  1  0.01939427  0.63695655  0.67469760  1
  H+  H66  1  0.35258281  0.50775046  0.85197247  1
  H+  H67  1  0.08980021  0.41057942  0.09802742  1
  H+  H68  1  0.47581985  0.36654549  0.99056032  1
  H+  H69  1  0.60735583  0.90508605  0.51191863  1
  H+  H70  1  0.38772263  0.12523307  -0.00961821  1
  H+  H71  1  0.39708392  0.37381720  0.32520194  1
  H+  H72  1  0.62369231  0.73002683  0.15866986  1
  H+  H73  1  0.37930065  0.00752833  0.68599515  1
  H+  H74  1  0.77135120  0.13795570  0.15557771  1
  H+  H75  1  0.86204426  0.96399269  0.49303060  1
  H+  H76  1  0.26942129  0.87815252  0.68173234  1
  H+  H77  1  0.11156025  0.98625845  0.16352046  1
  H+  H78  1  0.08737900  0.14771015  0.67618602  1
  H+  H79  1  0.76428648  0.12996147  0.67766531  1
  H+  H80  1  0.21455966  0.60564088  1.00359320  1
  H+  H81  1  0.18769369  0.07098662  0.45357188  1
  H+  H82  1  0.60870318  0.62831139  0.67650244  1
  H+  H83  1  0.64422972  0.64932183  0.83190166  1
  H+  H84  1  0.87591913  0.53033764  0.66010452  1
  H+  H85  1  0.60618126  0.02535354  0.51450802  1
  H+  H86  1  0.26412817  0.89513189  0.83191545  1
  H+  H87  1  0.35977212  0.14138435  0.33532814  1
  H+  H88  1  0.68533741  0.12145135  0.51728595  1
  H+  H89  1  0.37947861  0.14230925  0.83819702  1
  H+  H90  1  0.87313670  0.39882679  0.63799839  1
  H+  H91  1  0.88814787  0.61526273  0.32384116  1
  H+  H92  1  0.60100464  0.22523519  0.83407549  1
  H+  H93  1  0.10327050  0.13288827  0.14979056  1
  H+  H94  1  0.13448611  0.88107398  0.84163141  1
  H+  H95  1  0.14213797  0.77189382  0.50726479  1
  H+  H96  1  0.12276674  0.88594814  0.68630304  1
  H+  H97  1  0.60969611  0.13828492  0.83219716  1
  H+  H98  1  0.03861821  0.87926643  0.01666569  1
  H+  H99  1  0.62758093  0.60667859  0.18328306  1
  H+  H100  1  0.86610523  0.20370948  0.67547952  1
  H+  H101  1  0.72632345  0.85938218  0.50425699  1
  H+  H102  1  0.22551069  0.61235095  0.33699510  1
  H+  H103  1  0.47445557  0.11250428  0.32907470  1
  H+  H104  1  0.60773116  0.62151691  0.50517035  1
  H+  H105  1  0.60957066  0.70878357  0.51555021  1
  H+  H106  1  0.20029654  0.34378491  0.89028409  1
  H+  H107  1  0.17248040  0.24833718  0.31758103  1
  H+  H108  1  0.77157168  0.89712658  0.15855365  1
  H+  H109  1  0.16409258  0.36652485  0.50582188  1
  H+  H110  1  0.26208877  0.63598931  0.67022086  1
  H+  H111  1  0.61469391  0.22482140  0.15336474  1
  H+  H112  1  0.61401545  0.38454298  0.15570943  1
  H+  H113  1  0.85982607  0.98605120  0.15677700  1
  H+  H114  1  0.58476289  0.13823182  0.48840079  1
  H+  H115  1  0.32545212  0.90781982  0.74405831  1
  H+  H116  1  0.74869096  0.40132810  0.67582363  1
  H+  H117  1  0.12203311  0.46702861  0.15954338  1
  H+  H118  1  -0.00676819  0.64124668  0.15904452  1
  H+  H119  1  0.53090972  0.89806476  0.83225032  1
  H+  H120  1  0.86190763  0.48308463  -0.00181073  1
  H+  H121  1  0.34117380  0.59149274  0.65017634  1
  H+  H122  1  0.38410188  0.61281037  0.33719433  1
  H+  H123  1  0.99360401  0.40617841  0.36357946  1
  H+  H124  1  0.21929264  0.35463446  0.67389157  1
  H+  H125  1  0.89157592  0.85914689  0.50593693  1
  H+  H126  1  0.08039177  0.64297116  0.15311732  1
  H+  H127  1  0.38882057  0.27921172  0.31979969  1
  H+  H128  1  0.63299001  0.81635788  0.47790622  1
  H+  H129  1  0.89252651  0.09443191  0.50317680  1
  H+  H130  1  0.86231209  0.14277343  0.15550855  1
  H+  H131  1  0.90007637  0.88899761  0.99563787  1
  H+  H132  1  0.11985369  0.86807271  1.02099135  1
  H+  H133  1  0.38237500  0.85950356  0.66784571  1
  H+  H134  1  0.46758312  0.60869161  -0.00565852  1
  H+  H135  1  0.47806261  0.61165685  0.52308811  1
  H+  H136  1  0.87958830  0.39665580  0.81629930  1
  H+  H137  1  0.33269932  0.91037447  0.39971008  1
  H+  H138  1  0.72549532  0.36522111  -0.00913665  1
  H+  H139  1  0.62720683  0.51695905  0.18299456  1
  H+  H140  1  0.86397735  0.09225880  0.65810348  1
  H+  H141  1  0.28678477  0.38618349  0.48968341  1
  H+  H142  1  0.12869520  0.53181866  0.33854274  1
  H+  H143  1  0.96751175  0.62149707  0.99356003  1
  H+  H144  1  0.14607744  0.38186429  0.32576563  1
  H+  H145  1  0.97654747  0.12001924  0.16565402  1
  H+  H146  1  0.11475999  0.64178107  0.33706277  1
  H+  H147  1  0.60662314  0.89133726  1.00782339  1
  H+  H148  1  0.15261780  0.53723908  0.51063347  1
  H+  H149  1  0.10921014  0.72788344  0.33967923  1
  H+  H150  1  0.66465879  0.83596613  0.94023884  1
  H+  H151  1  0.13388002  0.35392399  0.16975963  1
  H+  H152  1  0.63017239  0.11273734  0.67536211  1
  H+  H153  1  0.93836380  0.83459109  0.23902295  1
  H+  H154  1  0.34838028  0.62912642  0.00216686  1
  H+  H155  1  0.77281667  0.88617269  0.00984593  1
  H+  H156  1  0.36135543  0.17054395  0.13611779  1
  H+  H157  1  0.88401100  0.28044010  0.15973617  1
  H+  H158  1  0.13765206  0.86672942  0.33156399  1
  H+  H159  1  0.46006923  0.36315446  0.83862791  1
  H+  H160  1  0.11641682  0.38763579  0.00017670  1
  H+  H161  1  0.88288897  0.81072354  0.59948224  1
  H+  H162  1  0.73744224  0.62663030  0.66106199  1
  H+  H163  1  0.77729504  0.88993438  0.83332565  1
  H+  H164  1  0.29226940  0.65061683  0.82576394  1
  H+  H165  1  1.02416917  0.89780817  0.82780584  1
  H+  H166  1  0.95734264  0.10656646  0.65992534  1
  H+  H167  1  0.53510920  0.64264856  0.16536685  1
  H+  H168  1  0.88681581  0.28021390  0.33158538  1
  H+  H169  1  0.38660486  0.37035096  0.98889135  1
  H+  H170  1  0.40861538  0.62256861  0.17580537  1
  H+  H171  1  0.13466235  0.78279636  0.17451795  1
  H+  H172  1  0.75712248  0.39385780  0.49051677  1
  H+  H173  1  0.36271234  0.40008549  0.14724485  1
  H+  H174  1  0.88505663  0.53743873  0.50372527  1
  H+  H175  1  0.61146018  0.13606841  0.33334165  1
  H+  H176  1  0.36977609  0.51819608  0.66115099  1
  H+  H177  1  0.37838173  0.08392364  0.18248623  1
  H+  H178  1  0.37872059  0.14168082  0.69228389  1
  H+  H179  1  0.27587868  0.87842119  0.16269078  1
  H+  H180  1  0.36336828  0.47751821  -0.00285074  1
  H+  H181  1  0.46393076  0.12354251  0.48416493  1
  H+  H182  1  0.52673674  0.65431207  0.33696424  1
  H+  H183  1  0.90353399  0.57590047  0.22970379  1
  H+  H184  1  0.45842776  0.52042512  0.72364625  1
  H+  H185  1  0.11098964  0.47370503  0.01009322  1
  H+  H186  1  0.63469087  0.02917141  0.32568021  1
  H+  H187  1  0.12155952  0.39971801  0.30971340  1
  H+  H188  1  0.97813036  0.36397490  0.99298289  1
  H+  H189  1  0.35515201  -0.02403815  0.48447901  1
  H+  H190  1  0.60649658  0.34900052  0.84269950  1
  H+  H191  1  0.02424095  0.88092653  0.50053002  1
  H+  H192  1  -0.02575131  0.36601772  0.16156522  1
  H+  H193  1  0.61025798  0.89829176  0.34725418  1
  H+  H194  1  0.16456960  0.11580030  0.68136482  1
  H+  H195  1  0.27072313  0.88348131  0.49264254  1
  H+  H196  1  0.52624422  0.38873494  0.15668368  1
  H+  H197  1  0.86738664  0.70844074  0.83317807  1
  H+  H198  1  0.83182629  0.16071438  0.77185605  1
  H+  H199  1  0.10737340  0.22272989  0.14678396  1
  H+  H200  1  0.86333814  0.64513874  0.00254756  1
  H+  H201  1  0.61092808  0.13741865  -0.00124008  1
  H+  H202  1  0.24667294  0.86376063  -0.01028176  1
  H+  H203  1  0.35892321  0.88284885  0.33769661  1
  H+  H204  1  0.35929426  0.72064875  0.34904594  1
  H+  H205  1  0.61087658  0.38628788  1.00454145  1
  H+  H206  1  0.62449275  0.78519233  0.32627166  1
  H+  H207  1  0.37829406  0.73120148  0.84647301  1
  H+  H208  1  0.18882730  0.15418396  0.66064707  1
  H+  H209  1  0.88398976  1.02412527  -0.00327312  1
  H+  H210  1  0.38196113  0.29198338  0.16306508  1
  H+  H211  1  0.60973722  0.22453052  0.33023446  1
  H+  H212  1  0.71917889  0.35897931  0.31775947  1
  H+  H213  1  0.13011631  0.11480110  -0.02909105  1
  H+  H214  1  0.64351462  0.86908684  0.84383024  1
  H+  H215  1  0.12334716  0.60275129  0.00597208  1
  H+  H216  1  0.63975213  0.02968343  0.83722921  1
  H+  H217  1  1.01885144  0.11107916  0.48433807  1
  H+  H218  1  0.92186467  0.33811245  0.49894583  1
  H+  H219  1  0.25158411  0.27484166  0.27405323  1
  H+  H220  1  0.86300296  0.13442465  0.83175740  1
  H+  H221  1  0.39550284  0.53026627  0.33193966  1
  H+  H222  1  0.60715077  -0.02714208  0.67750058  1
  H+  H223  1  0.86411158  0.22950225  1.00130972  1
  H+  H224  1  0.97041609  0.09865394  0.32923626  1
  H+  H225  1  0.32885611  0.41265497  0.05479780  1
  H+  H226  1  0.86167286  0.73300042  0.00289879  1
  H+  H227  1  0.21718421  0.11631754  0.32279726  1
  H+  H228  1  0.84627331  0.96494293  0.67440144  1
  H+  H229  1  0.36925783  0.73496562  0.50193392  1
  H+  H230  1  0.14504269  0.97775201  0.67107981  1
  H+  H231  1  0.02336125  0.64156643  0.83064644  1
  H+  H232  1  0.71260874  0.87558437  0.32727997  1
  H+  H233  1  0.26577174  0.37862120  0.14362912  1
  H+  H234  1  0.38313473  0.60771664  0.84635504  1
  H+  H235  1  1.00771792  0.87887122  0.17450635  1
  H+  H236  1  0.52716523  0.13445572  0.15847369  1
  H+  H237  1  0.90373972  0.77747376  0.17402650  1
  H+  H238  1  0.63681230  0.02289354  0.16916100  1
  H+  H239  1  0.63649598  0.27492697  0.99407151  1
  H+  H240  1  1.11324227  0.72609251  1.00349936  1
  H+  H241  1  0.85265405  0.47845153  0.33155057  1
  H+  H242  1  0.11302635  0.96981190  0.50218021  1
  H+  H243  1  0.89564277  0.62959187  0.50376871  1
  H+  H244  1  0.85171392  0.30277170  0.55047703  1
  H+  H245  1  0.11789189  0.98508103  0.34422357  1
  H+  H246  1  0.14606527  0.27719505  0.97611231  1
  H+  H247  1  0.02658019  0.64020027  0.49275305  1
  H+  H248  1  0.38454245  0.02317178  0.33112016  1
  H+  H249  1  0.77803008  0.09160468  0.47381420  1
  H+  H250  1  0.85027805  0.40598965  0.48620649  1
  H+  H251  1  0.87242987  0.36195532  0.33233843  1
  H+  H252  1  0.88958663  1.02229021  0.84081224  1
  H+  H253  1  0.90027712  0.37854811  0.63133461  1
  H+  H254  1  0.63467939  0.36812537  0.49816736  1
  H+  H255  1  0.87411704  0.51863044  0.16771751  1
  H+  H256  1  0.12428432  0.27678282  0.66489502  1
  H+  H257  1  0.88434588  0.10699503  0.32339863  1
  H+  H258  1  0.06252393  0.19333571  0.31716085  1
  H+  H259  1  0.60605485  0.63507449  0.00653766  1
  H+  H260  1  0.14094319  0.85989870  0.51084707  1
  H+  H261  1  0.59812324  0.46889962  0.82885700  1
  H+  H262  1  0.53938363  0.40309199  0.48101336  1
  H+  H263  1  0.63622417  0.52361904  0.99562463  1
  H+  H264  1  0.81632573  0.88460217  0.28981243  1
  H+  H265  1  0.84589002  0.19028629  0.48868797  1
  H+  H266  1  0.52712255  0.89260012  0.15436455  1
  H+  H267  1  0.28079077  0.64585572  0.50323529  1
  H+  H268  1  0.29342863  0.63081282  0.16551033  1
  H+  H269  1  0.85803624  0.75607673  0.66207827  1
  H+  H270  1  0.78066706  0.64271299  0.48887382  1
  H+  H271  1  0.36700987  0.16250407  0.47824869  1
  H+  H272  1  0.72808916  0.36114074  0.16175816  1
  H+  H273  1  0.68397159  0.59247396  0.56230371  1
  H+  H274  1  0.83363719  0.87001983  0.67353430  1
  H+  H275  1  0.51197653  0.89169904  0.50638522  1
  H+  H276  1  0.65224879  0.52733866  0.50313987  1
  H+  H277  1  0.99553435  0.86980278  0.33412474  1
  H+  H278  1  0.86458816  0.39063049  0.15061811  1
  H+  H279  1  0.57359746  0.69102849  0.68359435  1
  H+  H280  1  0.88140833  0.85345486  0.83563422  1
  H+  H281  1  0.88497392  0.11411885  0.99297438  1
  H+  H282  1  0.28553005  0.17357345  0.48372632  1
  H+  H283  1  0.72371339  0.61476554  -0.00387766  1
  H+  H284  1  0.62153495  0.66696923  0.33415689  1
  H+  H285  1  0.14587822  0.62411241  0.82242516  1
  H+  H286  1  0.63776347  0.11251451  0.16944906  1
  H+  H287  1  0.37868451  0.87927892  0.84530535  1
  H+  H288  1  0.44510160  0.35771665  0.56303253  1
  H+  H289  1  0.81440237  0.42406412  0.39222579  1
  H+  H290  1  0.26820836  0.14427541  -0.01267287  1
  H+  H291  1  0.39774719  0.09729638  0.53896389  1
  H+  H292  1  0.57836755  0.92757046  0.40731372  1
  H+  H293  1  0.91576458  0.08059107  0.90096987  1
  H+  H294  1  0.66639605  0.59416244  0.27291142  1
  H+  H295  1  0.91672244  0.59424760  0.93045038  1
  H+  H296  1  0.06040561  0.17725783  0.73561282  1
  H+  H297  1  0.98603870  0.93173834  0.95875895  1
  H+  H298  1  0.91065064  0.06392670  0.56720940  1
  H+  H299  1  0.58177853  0.91765520  0.76998604  1
  H+  H300  1  0.17275176  0.82871672  0.60731970  1
  H+  H301  1  0.83069412  0.90424791  0.43341146  1
  H+  H302  1  0.84489447  0.68712940  0.10130717  1
  H+  H303  1  0.34686991  0.42035569  0.39888554  1
  H+  H304  1  0.66394871  0.08280598  0.26241976  1
  H+  H305  1  0.08178960  0.43086944  0.44810334  1
  H+  H306  1  0.18019305  0.57316416  0.24272289  1
  H+  H307  1  0.09443279  0.94011444  0.77543423  1
  H+  H308  1  0.95220951  0.54043304  0.87753059  1
  H+  H309  1  0.72880235  0.11914069  0.83904943  1
  H+  H310  1  0.41772274  0.34415224  0.22550522  1
  H+  H311  1  0.08462493  0.66831000  0.43237731  1
  H+  H312  1  0.60450408  0.67079167  0.77501861  1
  H+  H313  1  0.65918058  0.84408649  0.22961265  1
  H+  H314  1  0.84137317  0.67316312  0.42899049  1
  H+  H315  1  0.17434329  0.31814556  0.22131644  1
  H+  H316  1  0.60346813  0.88081952  0.67687945  1
  H+  H317  1  0.64653468  0.08237149  0.61186346  1
  H+  H318  1  0.11021331  0.73545953  0.82171439  1
  H+  H319  1  0.13490825  0.11323237  0.48271950  1
  H+  H320  1  0.40925247  0.57625845  0.93332817  1
  H+  H321  1  0.92313911  0.33776373  0.93162552  1
  H+  H322  1  0.62979567  0.77383037  0.99809315  1
  H+  H323  1  0.18626214  0.33918957  0.56789876  1
  H+  H324  1  0.43484256  0.59919776  0.23924823  1
  H+  H325  1  0.83293750  0.42223965  0.09256506  1
  H+  H326  1  0.92164781  0.09116402  0.22800136  1
  H+  H327  1  0.06622784  0.67802203  0.06530447  1
  H+  H328  1  0.36941866  0.45335618  0.75549999  1
  H+  H329  1  0.32904105  0.66076596  0.06316722  1
  H+  H330  1  0.14362907  0.62189342  0.50622771  1
  H+  H331  1  0.56310548  0.40928532  0.76878922  1
  H+  H332  1  0.08577947  0.16699263  0.05071208  1
  H+  H333  1  0.33710512  0.31340491  0.62894269  1
  H+  H334  1  0.95348796  0.29029509  0.60042783  1
  H+  H335  1  0.32139571  0.35820543  0.84062794  1
  H+  H336  1  0.64984336  0.81990610  0.60887806  1
  H+  H337  1  0.83135520  0.16905339  0.06020090  1
  H+  H338  1  0.41104571  0.06721091  0.62902702  1
  H+  H339  1  0.38766501  0.56673234  0.58080942  1
  H+  H340  1  0.02321895  0.49352244  0.40020965  1
  H+  H341  1  0.82912435  0.91296859  0.77087080  1
  H+  H342  1  0.57293303  0.17080359  0.42224210  1
  H+  H343  1  0.66801404  0.32779526  0.22135540  1
  H+  H344  1  0.45969312  0.77975936  0.28855647  1
  H+  H345  1  0.60828082  0.98037628  0.00519431  1
  H+  H346  1  0.31383349  0.18376078  0.08238949  1
  H+  H347  1  0.42011182  0.83464548  0.22428791  1
  H+  H348  1  0.15925607  0.58825107  0.60451046  1
  H+  H349  1  0.58000311  0.66372309  0.06753567  1
  H+  H350  1  0.09186059  0.92447783  0.40554819  1
  H+  H351  1  0.22042039  0.78296916  0.94816102  1
  H+  H352  1  0.09490071  0.41875774  0.76840106  1
  H+  H353  1  0.17324702  0.83288882  0.23653771  1
  H+  H354  1  0.72555984  0.11812949  -0.01094897  1
  H+  H355  1  0.91567538  0.83075360  0.89450330  1
  H+  H356  1  0.42092974  0.07439268  0.24162704  1
  H+  H357  1  0.58632108  0.92590966  0.09437903  1
  H+  H358  1  0.59630866  0.42939384  0.41998777  1
  H+  H359  1  0.64899807  0.32206467  0.59949808  1
  H+  H360  1  0.41218285  0.83893262  0.57394198  1
  H+  H361  1  0.81796095  0.43022319  0.73092199  1
  H+  H362  1  0.66811078  0.57374067  0.90181222  1
  H+  H363  1  0.07826572  0.66796735  0.73582710  1
  H+  H364  1  0.65352280  0.78459274  0.84370150  1
  H+  H365  1  0.58615298  0.17058892  0.74450380  1
  H+  H366  1  0.16209678  0.08920566  0.23022087  1
  H+  H367  1  0.33124310  0.92536984  0.06678100  1
  H+  H368  1  0.98999229  0.36245612  0.83968862  1
  H+  H369  1  0.58181078  0.41682474  0.06380001  1
  H+  H370  1  0.58179237  0.16363015  0.06004324  1
  H+  H371  1  0.08972073  0.91475737  0.11010728  1
  H+  H372  1  0.91893254  0.59111639  0.60071291  1
  H+  H373  1  0.47220817  0.86124454  0.66438678  1
  H+  H374  1  0.83347404  0.15879236  0.38551630  1
  H+  H375  1  0.66597036  0.08792885  0.92977144  1
  H+  H376  1  0.16681620  0.84172312  0.89554243  1
  H+  H377  1  0.21363859  0.06818624  0.57750601  1
  H+  H378  1  0.78394683  0.65036897  0.33718982  1
  H+  H379  1  0.07184526  0.15082154  0.42140224  1
  H+  H380  1  0.86120566  0.97358218  0.32426027  1
  H+  H381  1  0.34462960  0.17367848  0.77637790  1
  H+  H382  1  0.11600050  0.22791873  0.82164292  1
  H+  H383  1  0.83657086  0.65471301  0.74206054  1
  O2-  O384  1  0.07465331  0.16230065  0.13081116  1
  O2-  O385  1  0.07658118  0.14206970  0.46592847  1
  O2-  O386  1  0.07447240  0.17324006  0.80276178  1
  O2-  O387  1  0.08758090  0.40781088  0.14387414  1
  O2-  O388  1  0.11000042  0.43043861  0.48765824  1
  O2-  O389  1  0.09684507  0.41655615  0.81379651  1
  O2-  O390  1  0.05493291  0.67808806  0.14365571  1
  O2-  O391  1  0.08738594  0.66800810  0.47780432  1
  O2-  O392  1  0.08195433  0.67526376  0.80768593  1
  O2-  O393  1  0.08343778  0.92329948  0.15461732  1
  O2-  O394  1  0.08565763  0.91101009  0.48551455  1
  O2-  O395  1  0.08663120  0.93710156  0.82073335  1
  O2-  O396  1  0.31859548  0.18737288  0.12858167  1
  O2-  O397  1  0.34613191  0.20326653  0.46862053  1
  O2-  O398  1  0.34836422  0.17567075  0.82254947  1
  O2-  O399  1  0.32350155  0.41422430  0.12554761  1
  O2-  O400  1  0.34294077  0.41894936  0.46759049  1
  O2-  O401  1  0.29336660  0.39063932  0.82487907  1
  O2-  O402  1  0.34901490  0.66499872  0.14460255  1
  O2-  O403  1  0.34125843  0.67430530  0.48717691  1
  O2-  O404  1  0.35605715  0.67683532  0.82486653  1
  O2-  O405  1  0.33601021  0.90826704  0.14443354  1
  O2-  O406  1  0.33110819  0.91417541  0.47526812  1
  O2-  O407  1  0.32658982  0.92228267  0.81878460  1
  O2-  O408  1  0.58491928  0.16314407  0.13986966  1
  O2-  O409  1  0.56382792  0.17348065  0.46752379  1
  O2-  O410  1  0.57435903  0.16350212  0.81732478  1
  O2-  O411  1  0.58707315  0.41870661  0.14234263  1
  O2-  O412  1  0.59944016  0.42906773  0.46473117  1
  O2-  O413  1  0.55802031  0.40896901  0.81427025  1
  O2-  O414  1  0.59444558  0.66901638  0.14586028  1
  O2-  O415  1  0.57265812  0.65013907  0.50082436  1
  O2-  O416  1  0.63252819  0.69333066  0.81456325  1
  O2-  O417  1  0.58818992  0.92514409  0.14131227  1
  O2-  O418  1  0.57438933  0.92868267  0.49221016  1
  O2-  O419  1  0.58924815  0.92401644  0.81511858  1
  O2-  O420  1  0.83041012  0.17001695  0.13815542  1
  O2-  O421  1  0.83549719  0.13875172  0.46500361  1
  O2-  O422  1  0.83445952  0.16670584  0.81703542  1
  O2-  O423  1  0.83110040  0.42033069  0.13803863  1
  O2-  O424  1  0.81683307  0.43171931  0.47268347  1
  O2-  O425  1  0.84794643  0.42431984  0.80058637  1
  O2-  O426  1  0.84974617  0.69104825  0.14629843  1
  O2-  O427  1  0.84197785  0.67465059  0.47467248  1
  O2-  O428  1  0.83797393  0.64746722  0.82003238  1
  O2-  O429  1  0.83090092  0.92594942  0.14201446  1
  O2-  O430  1  0.82801990  0.90238474  0.47786425  1
  O2-  O431  1  0.83697975  0.91554003  0.81594715  1
  O2-  O432  1  0.15997497  0.08929570  0.18459124  1
  O2-  O433  1  0.17946999  0.09158988  0.49260402  1
  O2-  O434  1  0.16260055  0.09751578  0.88974667  1
  O2-  O435  1  0.16368202  0.31998398  0.17742654  1
  O2-  O436  1  0.19241898  0.33702861  0.52345589  1
  O2-  O437  1  0.20222287  0.34137884  0.84312107  1
  O2-  O438  1  0.18712903  0.57040711  0.19740719  1
  O2-  O439  1  0.17752664  0.59746494  0.52504430  1
  O2-  O440  1  0.18430787  0.60064287  0.83012915  1
  O2-  O441  1  0.18377914  0.83406819  0.19228179  1
  O2-  O442  1  0.17436748  0.83184719  0.52344465  1
  O2-  O443  1  0.16448191  0.84776238  0.85076681  1
  O2-  O444  1  0.42209202  0.07080745  0.19562277  1
  O2-  O445  1  0.40027963  0.09107814  0.49518660  1
  O2-  O446  1  0.41552265  0.09014061  0.85650756  1
  O2-  O447  1  0.42128967  0.34937887  0.18031462  1
  O2-  O448  1  0.44608426  0.35846344  0.51848053  1
  O2-  O449  1  0.39983961  0.32686878  0.85613734  1
  O2-  O450  1  0.44313541  0.59966835  0.19480507  1
  O2-  O451  1  0.41464864  0.58865014  0.53232346  1
  O2-  O452  1  0.40075271  0.56518087  0.86050236  1
  O2-  O453  1  0.42016478  0.83223135  0.17963797  1
  O2-  O454  1  0.41545490  0.83954457  0.52769629  1
  O2-  O455  1  0.41701153  0.85523680  0.85979383  1
  O2-  O456  1  0.66722698  0.08287726  0.18705155  1
  O2-  O457  1  0.62577572  0.08587832  0.52971249  1
  O2-  O458  1  0.66723128  0.09022761  0.85231706  1
  O2-  O459  1  0.66658780  0.32854853  0.17609114  1
  O2-  O460  1  0.66072531  0.33475643  0.51550098  1
  O2-  O461  1  0.63525781  0.31716313  0.85625376  1
  O2-  O462  1  0.64097704  0.56813087  0.20810220  1
  O2-  O463  1  0.68047037  0.58813672  0.51681873  1
  O2-  O464  1  0.66859718  0.56935698  0.85646391  1
  O2-  O465  1  0.66504896  0.84079916  0.18515161  1
  O2-  O466  1  0.66427844  0.83521041  0.51626137  1
  O2-  O467  1  0.67677982  0.84394561  0.86151780  1
  O2-  O468  1  0.91737046  0.09411098  0.18330189  1
  O2-  O469  1  0.91514538  0.05965800  0.52157349  1
  O2-  O470  1  0.91730838  0.08307106  0.85548162  1
  O2-  O471  1  0.91294690  0.34170730  0.17212811  1
  O2-  O472  1  0.88584614  0.28793009  0.52386548  1
  O2-  O473  1  0.92928634  0.33704883  0.85353690  1
  O2-  O474  1  0.90097576  0.57892944  0.18452196  1
  O2-  O475  1  0.92336058  0.59638856  0.51886008  1
  O2-  O476  1  0.93939271  0.58438570  0.86385200  1
  O2-  O477  1  0.93916239  0.83834328  0.19364427  1
  O2-  O478  1  0.92280486  0.83122580  0.52266647  1
  O2-  O479  1  0.91358922  0.82433278  0.84990490  1
  O2-  O480  1  0.15702024  0.08155818  0.30853201  1
  O2-  O481  1  0.23668391  0.04765287  0.60959805  1
  O2-  O482  1  0.15971896  0.08306877  0.95578345  1
  O2-  O483  1  0.21719060  0.29716825  0.29197238  1
  O2-  O484  1  0.16741933  0.33654640  0.65017969  1
  O2-  O485  1  0.17786292  0.33745068  0.96105118  1
  O2-  O486  1  0.16780923  0.58576221  0.31644753  1
  O2-  O487  1  0.15529234  0.58218595  0.64944724  1
  O2-  O488  1  0.15136830  0.56999227  0.99405567  1
  O2-  O489  1  0.16277705  0.83149588  0.31680399  1
  O2-  O490  1  0.17283475  0.82770069  0.65235746  1
  O2-  O491  1  0.19496499  0.81485643  0.96589134  1
  O2-  O492  1  0.41301865  0.08294597  0.31496323  1
  O2-  O493  1  0.41399440  0.07121521  0.67308206  1
  O2-  O494  1  0.41619559  0.09307471  0.97640261  1
  O2-  O495  1  0.42139231  0.33964201  0.30444126  1
  O2-  O496  1  0.39117910  0.33505420  0.65090604  1
  O2-  O497  1  0.41573720  0.33704761  0.97418184  1
  O2-  O498  1  0.42116980  0.59193138  0.31974606  1
  O2-  O499  1  0.34725396  0.54186298  0.63029107  1
  O2-  O500  1  0.40727808  0.57594568  0.97952715  1
  O2-  O501  1  0.43545680  0.81263457  0.30665851  1
  O2-  O502  1  0.41264044  0.83275204  0.64703322  1
  O2-  O503  1  0.42699192  0.86699190  0.92085911  1
  O2-  O504  1  0.66641074  0.08815448  0.30835026  1
  O2-  O505  1  0.65688731  0.08062952  0.65571671  1
  O2-  O506  1  0.66449379  0.08911059  0.97531057  1
  O2-  O507  1  0.65948912  0.32296638  0.30103628  1
  O2-  O508  1  0.64670691  0.32403055  0.64431627  1
  O2-  O509  1  0.66340821  0.33556929  0.97951919  1
  O2-  O510  1  0.68057874  0.61259907  0.31813320  1
  O2-  O511  1  0.69778654  0.63562721  0.63386570  1
  O2-  O512  1  0.66428451  0.58363153  0.97959048  1
  O2-  O513  1  0.65247595  0.84953143  0.31372399  1
  O2-  O514  1  0.64635825  0.81902981  0.65330454  1
  O2-  O515  1  0.66328629  0.83546691  0.98567780  1
  O2-  O516  1  0.91126045  0.07214690  0.31076252  1
  O2-  O517  1  0.89933635  0.06743394  0.64203902  1
  O2-  O518  1  0.91544745  0.08330408  0.97894884  1
  O2-  O519  1  0.91603359  0.34368611  0.32966672  1
  O2-  O520  1  0.95469975  0.28185226  0.64396583  1
  O2-  O521  1  0.91803489  0.33700404  0.97710911  1
  O2-  O522  1  0.91417241  0.58092875  0.30810973  1
  O2-  O523  1  0.91959738  0.59076151  0.64571642  1
  O2-  O524  1  0.90760422  0.59244861  0.97729922  1
  O2-  O525  1  0.93576177  0.83657458  0.31627935  1
  O2-  O526  1  0.84754719  0.79627339  0.63692572  1
  O2-  O527  1  0.94352999  0.87622514  0.97548276  1
  O2-  O528  1  0.08573106  0.16795160  0.00528995  1
  O2-  O529  1  0.08000698  0.16152654  0.34373123  1
  O2-  O530  1  0.05695574  0.17766041  0.68839733  1
  O2-  O531  1  0.08322824  0.40984216  0.02160096  1
  O2-  O532  1  0.04488609  0.45604987  0.38717775  1
  O2-  O533  1  0.08860312  0.42219404  0.69102791  1
  O2-  O534  1  0.07062241  0.66957986  0.02109947  1
  O2-  O535  1  0.07972531  0.66625270  0.35334185  1
  O2-  O536  1  0.08026189  0.66634280  0.68950760  1
  O2-  O537  1  0.09445477  0.90083602  0.03701566  1
  O2-  O538  1  0.09282827  0.92475422  0.36017809  1
  O2-  O539  1  0.10716114  0.92966696  0.69775251  1
  O2-  O540  1  0.32383253  0.17415586  0.00953577  1
  O2-  O541  1  0.33100655  0.17495534  0.34540981  1
  O2-  O542  1  0.34491758  0.17013455  0.70313048  1
  O2-  O543  1  0.33325983  0.41383030  0.00842729  1
  O2-  O544  1  0.35390685  0.42516932  0.35207186  1
  O2-  O545  1  0.40189437  0.46863960  0.71692006  1
  O2-  O546  1  0.31753898  0.65732278  0.01904371  1
  O2-  O547  1  0.32514565  0.66178473  0.36572233  1
  O2-  O548  1  0.32419922  0.65666656  0.67651604  1
  O2-  O549  1  0.32336638  0.92891316  0.02247197  1
  O2-  O550  1  0.33243676  0.91461822  0.35386903  1
  O2-  O551  1  0.33002138  0.90969964  0.69847200  1
  O2-  O552  1  0.58018934  0.16738421  0.01490273  1
  O2-  O553  1  0.57936077  0.16503079  0.34833912  1
  O2-  O554  1  0.58498896  0.16676797  0.69830274  1
  O2-  O555  1  0.57958968  0.41648363  0.01831179  1
  O2-  O556  1  0.58362349  0.41835961  0.33129143  1
  O2-  O557  1  0.56778412  0.40536153  0.69187369  1
  O2-  O558  1  0.57544340  0.66438293  0.02213438  1
  O2-  O559  1  0.58828646  0.69441186  0.34731023  1
  O2-  O560  1  0.56322510  0.63466517  0.69763898  1
  O2-  O561  1  0.57941743  0.92309899  0.02476021  1
  O2-  O562  1  0.57814989  0.92806639  0.36229822  1
  O2-  O563  1  0.57420600  0.91222546  0.69201180  1
  O2-  O564  1  0.83266834  0.16806008  0.01464769  1
  O2-  O565  1  0.83507872  0.16475509  0.34081925  1
  O2-  O566  1  0.82263302  0.14713152  0.69327478  1
  O2-  O567  1  0.83331489  0.42259340  0.01342737  1
  O2-  O568  1  0.81706320  0.41826642  0.34752623  1
  O2-  O569  1  0.80680103  0.44468844  0.68911239  1
  O2-  O570  1  0.83327417  0.67551195  0.02042909  1
  O2-  O571  1  0.84386393  0.67142769  0.35248506  1
  O2-  O572  1  0.83518855  0.66130826  0.69704422  1
  O2-  O573  1  0.83415564  0.91853495  0.02334426  1
  O2-  O574  1  0.82946562  0.90844217  0.33090041  1
  O2-  O575  1  0.81229609  0.90650014  0.69261433  1
