# generated using pymatgen
data_H2O
_symmetry_space_group_name_H-M   'P 1'
_cell_length_a   17.99401802
_cell_length_b   17.99424506
_cell_length_c   22.01370569
_cell_angle_alpha   89.99067664
_cell_angle_beta   89.99266778
_cell_angle_gamma   119.98971599
_symmetry_Int_Tables_number   1
_chemical_formula_structural   H2O
_chemical_formula_sum   'H384 O192'
_cell_volume   6173.48713044
_cell_formula_units_Z   192
loop_
 _symmetry_equiv_pos_site_id
 _symmetry_equiv_pos_as_xyz
  1  'x, y, z'
loop_
 _atom_type_symbol
 _atom_type_oxidation_number
  H+  1.0
  O2-  -2.0
loop_
 _atom_site_type_symbol
 _atom_site_label
 _atom_site_symmetry_multiplicity
 _atom_site_fract_x
 _atom_site_fract_y
 _atom_site_fract_z
 _atom_site_occupancy
  H+  H0  1  0.85938251  0.46139405  0.15441579  1
  H+  H1  1  0.40933772  0.87806312  0.17623308  1
  H+  H2  1  0.41831753  0.61899861  0.16842382  1
  H+  H3  1  0.70615331  0.10367619  0.33636210  1
  H+  H4  1  0.12082934  0.43594940  0.84635147  1
  H+  H5  1  0.85943683  1.00261005  0.31916495  1
  H+  H6  1  0.41393502  0.79138005  0.16717330  1
  H+  H7  1  0.32118947  0.93293418  0.42257619  1
  H+  H8  1  0.38378354  0.75223269  0.31905335  1
  H+  H9  1  -0.03072974  0.11392839  0.66031469  1
  H+  H10  1  0.42337869  0.88564005  0.66339303  1
  H+  H11  1  0.63678388  1.01450302  -0.00651897  1
  H+  H12  1  0.33798153  0.58971070  0.67180933  1
  H+  H13  1  0.13735126  0.28733008  0.17055839  1
  H+  H14  1  0.94844287  0.60709034  0.38260002  1
  H+  H15  1  0.39649170  1.03365241  0.17862577  1
  H+  H16  1  0.65501546  0.02968779  0.50726306  1
  H+  H17  1  0.15982657  0.88043730  0.49934367  1
  H+  H18  1  0.13432424  0.89178762  0.35322477  1
  H+  H19  1  0.13052493  0.80262973  0.87327068  1
  H+  H20  1  0.47862005  0.60473357  0.99663489  1
  H+  H21  1  0.53572577  0.61712412  0.16561681  1
  H+  H22  1  0.75329873  0.86039249  0.49916456  1
  H+  H23  1  0.90458846  0.85162693  0.51657007  1
  H+  H24  1  0.86094272  0.23164501  0.84090518  1
  H+  H25  1  0.78237476  0.38004901  0.66642473  1
  H+  H26  1  0.62837851  0.85320947  0.62707184  1
  H+  H27  1  0.03812286  0.65528535  0.50132248  1
  H+  H28  1  0.82399614  0.91395595  0.06669100  1
  H+  H29  1  0.82436063  0.70287748  0.49634523  1
  H+  H30  1  0.38390689  0.47047085  0.82230009  1
  H+  H31  1  0.87424237  0.37753937  0.01283517  1
  H+  H32  1  0.12971293  0.56685746  0.27410177  1
  H+  H33  1  0.35935305  0.13546482  0.00351589  1
  H+  H34  1  0.10145223  0.92141806  0.43844564  1
  H+  H35  1  0.19217649  0.57004840  0.70268802  1
  H+  H36  1  0.42078108  0.32692632  0.89502964  1
  H+  H37  1  0.07687634  0.91809110  0.76161550  1
  H+  H38  1  0.67896239  0.33831686  0.56348803  1
  H+  H39  1  0.84480320  0.88054237  0.00425820  1
  H+  H40  1  0.13238433  0.05757646  0.96444624  1
  H+  H41  1  0.77628988  0.62634889  0.15873887  1
  H+  H42  1  0.22098669  0.37329713  0.50728355  1
  H+  H43  1  0.40717644  -0.00081221  0.62581616  1
  H+  H44  1  0.09833567  0.15547053  0.82945580  1
  H+  H45  1  0.28780068  0.13289111  0.82403260  1
  H+  H46  1  0.54182604  0.90660216  0.16017558  1
  H+  H47  1  0.88989484  0.61083759  0.14182066  1
  H+  H48  1  0.29748655  0.14461475  0.34350360  1
  H+  H49  1  0.36308973  0.63839710  0.47862801  1
  H+  H50  1  0.11703430  0.16452336  0.99864273  1
  H+  H51  1  0.12768544  0.36255794  0.50875736  1
  H+  H52  1  0.37715655  0.13408933  0.82921327  1
  H+  H53  1  0.10738167  0.48648642  0.48000288  1
  H+  H54  1  0.76451897  0.38698954  0.33822118  1
  H+  H55  1  0.86110247  0.84643970  0.17259545  1
  H+  H56  1  0.54203629  0.19512392  0.37739932  1
  H+  H57  1  0.66397454  0.08908887  0.24298140  1
  H+  H58  1  0.53736080  0.63049074  0.85927117  1
  H+  H59  1  0.90901994  0.08138793  0.90169855  1
  H+  H60  1  0.13145628  0.01851021  0.82346679  1
  H+  H61  1  0.15312580  0.34101867  0.27079774  1
  H+  H62  1  0.11239390  0.22341660  0.50678388  1
  H+  H63  1  0.47668761  0.37236676  0.50313235  1
  H+  H64  1  0.91226711  0.56941142  0.08780328  1
  H+  H65  1  0.76325509  0.63211267  -0.00039019  1
  H+  H66  1  0.13806860  0.58850823  0.98705827  1
  H+  H67  1  0.90985505  0.36238657  0.64075686  1
  H+  H68  1  0.10980512  0.14090882  0.67462078  1
  H+  H69  1  0.61341430  0.43062703  0.73771311  1
  H+  H70  1  0.28664747  0.50002363  0.69923469  1
  H+  H71  1  -0.01475463  0.11912925  0.17632145  1
  H+  H72  1  0.08965003  0.24142114  0.82826120  1
  H+  H73  1  0.38635261  0.27199311  -0.00660590  1
  H+  H74  1  0.85081801  0.62952562  0.00322587  1
  H+  H75  1  0.56902757  0.89743748  0.51071778  1
  H+  H76  1  0.25917992  0.62460266  0.32733259  1
  H+  H77  1  0.62503590  0.22797779  0.49123948  1
  H+  H78  1  0.90521224  0.27542736  0.64836018  1
  H+  H79  1  0.63466539  0.50489849  0.32212227  1
  H+  H80  1  0.38319502  0.28718732  0.50584426  1
  H+  H81  1  0.39342686  0.52125512  0.16768646  1
  H+  H82  1  0.88757617  0.87395589  0.66370436  1
  H+  H83  1  0.34362771  0.45743099  0.39098092  1
  H+  H84  1  0.96351975  0.11670967  0.84001084  1
  H+  H85  1  1.02071415  0.14448461  1.00569362  1
  H+  H86  1  0.06860331  0.80632011  0.15471754  1
  H+  H87  1  0.00000246  0.37215080  0.16163728  1
  H+  H88  1  0.89451092  0.11841148  0.99780382  1
  H+  H89  1  0.13702642  0.73512507  0.49497945  1
  H+  H90  1  0.48031943  0.61867599  0.49607644  1
  H+  H91  1  0.63077634  0.62722825  0.64348149  1
  H+  H92  1  0.76692295  0.88921106  0.66623588  1
  H+  H93  1  0.39028003  0.50992857  -0.00906594  1
  H+  H94  1  0.85143763  0.38586598  0.34535046  1
  H+  H95  1  0.77690524  0.14567614  0.67797246  1
  H+  H96  1  0.04061799  0.78495719  0.59920364  1
  H+  H97  1  0.13440314  0.60910634  0.48589314  1
  H+  H98  1  0.74507210  0.66203409  0.81376826  1
  H+  H99  1  0.52639011  0.12521309  0.00869566  1
  H+  H100  1  0.37296453  0.14511854  0.16261703  1
  H+  H101  1  0.73825465  0.36407974  0.50525631  1
  H+  H102  1  0.86488491  0.12768202  0.16892370  1
  H+  H103  1  0.35578166  0.24385405  0.67375073  1
  H+  H104  1  0.94821942  0.85958577  0.97862466  1
  H+  H105  1  0.52585075  0.13634824  0.16391333  1
  H+  H106  1  0.35278298  0.58815715  0.01284443  1
  H+  H107  1  0.13655417  0.01674355  0.51632369  1
  H+  H108  1  0.97902270  0.34651206  0.85822660  1
  H+  H109  1  0.22750770  0.58040816  0.84012492  1
  H+  H110  1  0.87433835  0.34622137  0.17823863  1
  H+  H111  1  0.30552857  0.86637267  0.50761421  1
  H+  H112  1  0.62503928  0.83696177  0.32412365  1
  H+  H113  1  0.66012418  0.32968668  0.26178514  1
  H+  H114  1  0.87280281  0.49767224  1.00301388  1
  H+  H115  1  0.64859551  0.89640057  0.48298700  1
  H+  H116  1  0.66187020  0.92365552  0.69681631  1
  H+  H117  1  0.11893077  0.28882498  0.99390484  1
  H+  H118  1  0.84133977  0.73855069  0.81577283  1
  H+  H119  1  0.24036449  0.86017808  0.34861938  1
  H+  H120  1  0.63338652  0.10653582  -0.00341006  1
  H+  H121  1  0.88620726  0.87607404  0.83082680  1
  H+  H122  1  0.38243315  0.16799786  0.38014417  1
  H+  H123  1  0.65233758  0.88578450  0.17558273  1
  H+  H124  1  0.09362148  0.49948529  0.16777298  1
  H+  H125  1  0.08620025  0.71761408  0.65987852  1
  H+  H126  1  0.10857531  0.63014672  0.14540143  1
  H+  H127  1  0.77795303  0.13329119  0.17203427  1
  H+  H128  1  0.62183469  0.39544930  0.49204962  1
  H+  H129  1  0.13876824  0.82449283  0.58447579  1
  H+  H130  1  0.87683817  0.76581422  0.17316561  1
  H+  H131  1  0.52808975  0.38363402  -0.00294529  1
  H+  H132  1  0.78419854  0.13496384  0.49177829  1
  H+  H133  1  0.03074332  0.64545903  0.13104748  1
  H+  H134  1  -0.01179213  1.00565235  0.19854727  1
  H+  H135  1  0.71980950  0.35598681  0.16951623  1
  H+  H136  1  0.85816710  0.46427532  0.82696734  1
  H+  H137  1  0.39247483  0.85696861  0.44487994  1
  H+  H138  1  0.30323763  0.92529684  1.02686645  1
  H+  H139  1  0.10543783  0.69227055  0.82058993  1
  H+  H140  1  0.58901673  0.68412050  0.70970863  1
  H+  H141  1  0.12102755  -0.02607687  0.34711966  1
  H+  H142  1  0.48104224  0.37336660  0.16209049  1
  H+  H143  1  0.03918311  0.87477901  0.49611304  1
  H+  H144  1  0.22697981  0.57717408  -0.00503045  1
  H+  H145  1  0.47458863  0.85985492  0.33703858  1
  H+  H146  1  -0.04168791  0.34874260  0.33461858  1
  H+  H147  1  0.88155841  0.26032001  0.18103907  1
  H+  H148  1  0.18497077  0.57301360  0.18618565  1
  H+  H149  1  0.10681341  0.90197638  0.67214852  1
  H+  H150  1  0.40055934  0.89362207  1.00254298  1
  H+  H151  1  0.86692072  0.76409099  0.98587906  1
  H+  H152  1  0.26093783  0.38624942  0.00012234  1
  H+  H153  1  0.73915020  0.61450314  0.33561013  1
  H+  H154  1  0.85530626  0.98173370  0.82368199  1
  H+  H155  1  0.49200986  0.10603870  0.32596446  1
  H+  H156  1  0.66999180  0.50097282  0.68964334  1
  H+  H157  1  0.57836848  0.97909567  0.35215307  1
  H+  H158  1  0.64650921  0.27919255  0.65684818  1
  H+  H159  1  0.39028166  0.01454430  1.01103249  1
  H+  H160  1  0.62338467  0.11568418  0.33540071  1
  H+  H161  1  0.63501927  0.52312185  -0.01695532  1
  H+  H162  1  0.98074972  0.10862983  0.51143965  1
  H+  H163  1  0.40649983  0.73951613  0.67451035  1
  H+  H164  1  0.40402136  0.16420476  0.64737816  1
  H+  H165  1  0.86518330  0.12281955  0.48622821  1
  H+  H166  1  0.85343645  0.17175135  0.07278526  1
  H+  H167  1  0.09831067  0.37456968  0.34251728  1
  H+  H168  1  0.52930178  0.38600967  0.82780180  1
  H+  H169  1  0.23800632  0.87419363  0.69052471  1
  H+  H170  1  0.90617136  0.79478602  0.66405712  1
  H+  H171  1  -0.01723065  0.91591919  0.20076903  1
  H+  H172  1  0.61129593  0.38084983  0.15093356  1
  H+  H173  1  0.25415131  0.13968498  0.50478573  1
  H+  H174  1  0.40916379  0.53690665  0.64488859  1
  H+  H175  1  0.36027551  0.38844108  0.15245903  1
  H+  H176  1  0.32467139  0.65598420  0.16933978  1
  H+  H177  1  0.63061376  0.26791941  0.16810385  1
  H+  H178  1  -0.03703995  0.59545725  0.64460676  1
  H+  H179  1  0.35506617  0.76378481  0.47440729  1
  H+  H180  1  0.40218398  0.79782596  0.85222050  1
  H+  H181  1  0.13718617  0.58116931  0.84377187  1
  H+  H182  1  0.86361227  0.97144644  0.15568484  1
  H+  H183  1  0.51500120  0.11322343  0.81997664  1
  H+  H184  1  0.17211616  0.10560882  0.78742487  1
  H+  H185  1  0.09348032  0.45073465  0.71170276  1
  H+  H186  1  0.87736408  0.50758042  0.64795308  1
  H+  H187  1  0.25805559  0.87626825  0.83002943  1
  H+  H188  1  0.04360010  0.40320852  0.09560785  1
  H+  H189  1  0.67975245  0.55266222  0.49821235  1
  H+  H190  1  0.72137127  0.86229663  0.99994370  1
  H+  H191  1  0.63960123  0.12036662  0.65884539  1
  H+  H192  1  0.25560579  0.38033673  0.67879526  1
  H+  H193  1  0.83566671  0.17538642  0.73759442  1
  H+  H194  1  0.05687453  0.81040003  0.18685566  1
  H+  H195  1  0.96569177  0.58942277  0.85172101  1
  H+  H196  1  0.22868696  0.76607882  0.22134487  1
  H+  H197  1  0.89559666  0.23942556  0.01837832  1
  H+  H198  1  0.64640442  1.03775171  0.17993185  1
  H+  H199  1  0.63084263  0.26903860  0.32227051  1
  H+  H200  1  -0.03666885  0.58419277  -0.00540474  1
  H+  H201  1  0.54101818  0.89793748  0.83894241  1
  H+  H202  1  0.27157033  0.39136305  0.15577040  1
  H+  H203  1  0.77716862  0.36755550  1.00655633  1
  H+  H204  1  0.91286511  0.59990178  0.47951033  1
  H+  H205  1  0.88212258  0.11704733  0.66223915  1
  H+  H206  1  0.67203034  0.08625261  0.60354970  1
  H+  H207  1  0.53029068  0.38882395  0.33418764  1
  H+  H208  1  0.53381337  0.16231181  0.66042902  1
  H+  H209  1  0.22017985  0.59847757  0.47653817  1
  H+  H210  1  0.65847690  0.37431557  0.65926488  1
  H+  H211  1  0.38403058  0.97630750  0.59738208  1
  H+  H212  1  0.61776843  0.38362596  0.99795033  1
  H+  H213  1  0.60600784  0.11924417  0.81935187  1
  H+  H214  1  0.59312050  0.61196539  0.32075108  1
  H+  H215  1  0.63638777  0.72875250  0.85840982  1
  H+  H216  1  0.11623505  0.84086778  0.81432146  1
  H+  H217  1  0.07691218  0.94054130  0.02134296  1
  H+  H218  1  0.12848987  0.16304318  0.15949228  1
  H+  H219  1  0.35387440  0.89242190  0.83227204  1
  H+  H220  1  0.76815524  0.88855103  0.15959274  1
  H+  H221  1  0.88532328  1.02433432  -0.00499596  1
  H+  H222  1  0.09540500  0.46483483  0.34616095  1
  H+  H223  1  0.29912190  0.88988116  0.16383789  1
  H+  H224  1  0.37421091  0.97054379  0.36095267  1
  H+  H225  1  0.34776617  0.68052047  0.79672595  1
  H+  H226  1  0.11350412  0.58558129  0.69095606  1
  H+  H227  1  0.73400225  0.85948765  0.83836873  1
  H+  H228  1  0.88941504  0.97607367  0.50057889  1
  H+  H229  1  0.39789636  0.09253646  0.32524146  1
  H+  H230  1  0.86340431  0.51724360  0.38455014  1
  H+  H231  1  0.58559774  0.15351217  0.06921144  1
  H+  H232  1  0.88387777  0.65160882  0.67065542  1
  H+  H233  1  1.00572619  0.39456626  0.48999303  1
  H+  H234  1  0.27373434  0.14454831  1.00169073  1
  H+  H235  1  0.08869741  0.91765643  -0.04542765  1
  H+  H236  1  0.14197467  0.05893953  0.18166972  1
  H+  H237  1  0.64703570  0.60243391  0.17255258  1
  H+  H238  1  0.11880090  0.60583234  0.33642052  1
  H+  H239  1  0.62181285  0.63889742  0.49151302  1
  H+  H240  1  0.08514447  0.66596696  0.41030045  1
  H+  H241  1  0.01832805  0.88720199  0.82220374  1
  H+  H242  1  0.37321160  0.37319043  0.65614605  1
  H+  H243  1  0.64765713  0.51404091  0.16844265  1
  H+  H244  1  0.82524563  0.92313620  0.76226736  1
  H+  H245  1  0.16282563  0.87294702  1.07241440  1
  H+  H246  1  0.40622343  0.34494026  0.59840063  1
  H+  H247  1  0.64255971  0.26674326  0.99353180  1
  H+  H248  1  0.63832252  0.99689509  0.68695984  1
  H+  H249  1  0.85915127  0.14175716  0.83630964  1
  H+  H250  1  0.48430078  0.80643304  0.58475077  1
  H+  H251  1  0.84299848  0.20971967  0.33938306  1
  H+  H252  1  0.39409569  0.28416024  0.16745959  1
  H+  H253  1  0.10793510  0.36693965  0.68720647  1
  H+  H254  1  0.36190972  0.93824272  0.10675749  1
  H+  H255  1  0.35764430  0.39858674  0.48410521  1
  H+  H256  1  0.13308869  0.37272750  0.16764921  1
  H+  H257  1  0.85427110  0.98092397  0.67049900  1
  H+  H258  1  0.53030464  0.89175634  0.00865842  1
  H+  H259  1  0.82738333  0.66472244  0.09600296  1
  H+  H260  1  0.91697548  0.07476009  0.23438591  1
  H+  H261  1  0.40654238  0.28661810  0.31604832  1
  H+  H262  1  0.40931936  0.88728552  0.69526889  1
  H+  H263  1  0.42998554  0.82644926  0.26268231  1
  H+  H264  1  0.72891118  0.35583716  0.84278908  1
  H+  H265  1  0.10297596  0.68567393  -0.01647521  1
  H+  H266  1  0.82963123  0.71960538  0.34519204  1
  H+  H267  1  0.92565464  0.33598177  0.91788932  1
  H+  H268  1  0.11265779  0.26871983  0.32203758  1
  H+  H269  1  0.16718309  0.09079870  0.27109165  1
  H+  H270  1  0.61729172  0.13933485  0.16647361  1
  H+  H271  1  0.61729041  0.88557091  1.00546365  1
  H+  H272  1  0.38357286  0.14417101  0.46787507  1
  H+  H273  1  0.60867802  0.63225648  0.00409419  1
  H+  H274  1  0.46952522  0.17130008  0.97673040  1
  H+  H275  1  0.40639763  0.60407722  0.83871814  1
  H+  H276  1  0.22725699  0.12482246  0.66499982  1
  H+  H277  1  0.65202945  0.02475775  0.85052701  1
  H+  H278  1  0.35925034  0.48730832  0.48664641  1
  H+  H279  1  0.12272579  0.26716739  0.66031052  1
  H+  H280  1  0.16967161  0.79054294  1.07919875  1
  H+  H281  1  0.38349511  0.79753313  1.00262550  1
  H+  H282  1  0.60599845  0.71969498  1.00867533  1
  H+  H283  1  0.08780661  0.12959235  0.32856416  1
  H+  H284  1  0.10793223  0.72131474  0.35071983  1
  H+  H285  1  0.37222020  0.72731850  0.65066890  1
  H+  H286  1  0.62727744  0.75990252  0.64802176  1
  H+  H287  1  0.65866222  0.59338516  0.92799822  1
  H+  H288  1  0.39700489  0.26586278  0.83640081  1
  H+  H289  1  -0.00034882  0.12853917  0.32697360  1
  H+  H290  1  0.90239308  0.83520712  0.89012038  1
  H+  H291  1  0.67202798  0.83885110  0.23043785  1
  H+  H292  1  0.42180233  0.09303560  0.90723514  1
  H+  H293  1  0.38027067  1.02434338  0.85135615  1
  H+  H294  1  0.72476769  0.85580459  0.32388954  1
  H+  H295  1  0.89013009  0.59432886  0.28775968  1
  H+  H296  1  0.11175577  0.13420246  0.50702053  1
  H+  H297  1  0.42660095  0.85746683  0.90925317  1
  H+  H298  1  0.58855457  0.41672539  0.09067508  1
  H+  H299  1  0.13667302  0.03349633  0.66734377  1
  H+  H300  1  0.69463252  0.60667056  0.55769482  1
  H+  H301  1  0.57943549  0.16169228  0.72338586  1
  H+  H302  1  0.42618681  0.57499620  0.90279598  1
  H+  H303  1  0.86264097  0.09512388  0.31817739  1
  H+  H304  1  0.87919193  0.91591949  0.44344455  1
  H+  H305  1  0.49056059  0.63267701  0.64689666  1
  H+  H306  1  0.86463040  0.37987304  0.82904989  1
  H+  H307  1  0.59231881  0.42289728  0.43285177  1
  H+  H308  1  0.87765754  0.81020809  0.27752534  1
  H+  H309  1  0.06252539  0.40467580  0.42563602  1
  H+  H310  1  0.59157686  0.65003279  0.10563358  1
  H+  H311  1  0.28979219  0.19489622  0.44541943  1
  H+  H312  1  0.34016337  0.16909059  0.10090603  1
  H+  H313  1  0.60545251  0.92825007  0.78148728  1
  H+  H314  1  0.08774595  0.18173721  0.10003146  1
  H+  H315  1  0.16137087  0.84674435  0.94785635  1
  H+  H316  1  0.02533631  0.67876041  0.71432115  1
  H+  H317  1  0.27658601  0.53060125  0.05751910  1
  H+  H318  1  0.42028075  0.59556853  0.55392641  1
  H+  H319  1  0.07469424  0.61292696  0.77756970  1
  H+  H320  1  0.60098638  0.17169676  0.43111637  1
  H+  H321  1  0.46574376  0.20138679  0.59124292  1
  H+  H322  1  0.60998622  0.47930573  0.83216354  1
  H+  H323  1  0.32755782  0.65810372  0.41683401  1
  H+  H324  1  0.08491012  0.37807544  0.76371765  1
  H+  H325  1  0.46517709  0.59274811  0.34107530  1
  H+  H326  1  0.12229855  0.80255449  0.95276300  1
  H+  H327  1  0.43389850  0.35025640  0.26052592  1
  H+  H328  1  0.68701447  0.83382668  0.55426427  1
  H+  H329  1  0.34640064  0.61686227  0.33636422  1
  H+  H330  1  0.84180279  0.40997646  0.72527330  1
  H+  H331  1  0.91244339  0.07512096  0.56629841  1
  H+  H332  1  0.85550833  0.68463560  0.72887841  1
  H+  H333  1  0.56415883  0.91509368  0.40940760  1
  H+  H334  1  0.59688125  0.70255143  0.32016112  1
  H+  H335  1  0.62175928  0.72570424  0.49000240  1
  H+  H336  1  0.59987718  0.93551384  0.10017146  1
  H+  H337  1  0.90275537  0.32203051  0.27429003  1
  H+  H338  1  0.64510862  0.36350485  0.84757867  1
  H+  H339  1  0.34103638  0.17967388  0.73068193  1
  H+  H340  1  0.18973188  0.83608586  0.28560483  1
  H+  H341  1  0.38417495  0.35906280  0.98830476  1
  H+  H342  1  0.67073265  0.56553849  0.25980408  1
  H+  H343  1  0.79642233  0.92085667  0.38706171  1
  H+  H344  1  0.42802128  0.08721114  0.23883601  1
  H+  H345  1  0.17467178  0.56002380  0.92227552  1
  H+  H346  1  0.89742819  0.56289715  0.90423582  1
  H+  H347  1  0.11067191  0.95602829  0.10081835  1
  H+  H348  1  0.32032962  0.40755018  0.05996586  1
  H+  H349  1  0.06413675  0.92025087  0.09900192  1
  H+  H350  1  0.28047900  0.93557824  0.74427951  1
  H+  H351  1  0.18029792  0.12529038  0.91386125  1
  H+  H352  1  0.60638650  0.53122044  0.63227027  1
  H+  H353  1  0.24218541  0.13320628  0.17221129  1
  H+  H354  1  0.44806256  0.84887739  0.54040244  1
  H+  H355  1  0.61743874  0.38296735  0.33551325  1
  H+  H356  1  0.66960139  0.08121198  0.92899404  1
  H+  H357  1  0.64183487  0.85287699  0.84374654  1
  H+  H358  1  0.92045198  0.59464436  0.55325765  1
  H+  H359  1  0.08918608  0.64630799  0.05014458  1
  H+  H360  1  0.82162860  0.14782293  0.39653743  1
  H+  H361  1  0.15356726  0.33676586  0.60476117  1
  H+  H362  1  0.83201262  0.62880957  0.37264657  1
  H+  H363  1  0.73610479  0.12117835  0.85022580  1
  H+  H364  1  0.34621747  0.65864939  0.09974079  1
  H+  H365  1  0.37451613  0.37866167  0.81892068  1
  H+  H366  1  0.07585105  0.01805088  0.27565205  1
  H+  H367  1  0.01783583  0.90393098  0.67186789  1
  H+  H368  1  0.84807400  0.84470068  0.33412364  1
  H+  H369  1  0.66746528  0.83100059  0.93861730  1
  H+  H370  1  0.31103888  0.59182934  0.76348690  1
  H+  H371  1  0.89977801  0.60798184  0.25502616  1
  H+  H372  1  0.32493282  0.41370833  0.73589478  1
  H+  H373  1  0.67443514  0.32775186  0.93401246  1
  H+  H374  1  0.11950570  0.50120393  0.60794613  1
  H+  H375  1  0.47176095  0.14319789  0.45982411  1
  H+  H376  1  0.13830626  0.34287899  0.93250315  1
  H+  H377  1  0.06122024  0.37444544  0.00014144  1
  H+  H378  1  0.07468956  0.17226632  0.73164519  1
  H+  H379  1  0.64706205  0.11461932  0.50623288  1
  H+  H380  1  0.13650561  0.53283476  0.58223422  1
  H+  H381  1  0.15824530  0.76553952  0.18112632  1
  H+  H382  1  0.82613227  0.39478358  0.10126051  1
  H+  H383  1  0.16250033  0.07855708  0.57613053  1
  O2-  O384  1  0.08931541  0.18406642  0.14540938  1
  O2-  O385  1  0.07973116  0.16297860  0.49385452  1
  O2-  O386  1  0.06582880  0.17947493  0.81034909  1
  O2-  O387  1  0.05704286  0.40902427  0.14015308  1
  O2-  O388  1  0.06515759  0.41328731  0.47399795  1
  O2-  O389  1  0.08368411  0.37633218  0.83169768  1
  O2-  O390  1  0.09475870  0.67121769  0.12389008  1
  O2-  O391  1  0.09914596  0.67405647  0.48461117  1
  O2-  O392  1  0.08127347  0.62884173  0.82065430  1
  O2-  O393  1  0.02384874  0.97908572  0.20494808  1
  O2-  O394  1  0.09990613  0.91619160  0.48551276  1
  O2-  O395  1  0.07940849  0.91349944  0.80762667  1
  O2-  O396  1  0.34229596  0.17425569  0.14608009  1
  O2-  O397  1  0.30983450  0.18199645  0.48291958  1
  O2-  O398  1  0.34780511  0.16501329  0.81036144  1
  O2-  O399  1  0.32912940  0.41721613  0.13557595  1
  O2-  O400  1  0.32501853  0.42697036  0.47086888  1
  O2-  O401  1  0.34789054  0.41283781  0.80508386  1
  O2-  O402  1  0.36909367  0.68839922  0.13937427  1
  O2-  O403  1  0.32595429  0.66114083  0.46200234  1
  O2-  O404  1  0.32457767  0.61995830  0.80617302  1
  O2-  O405  1  0.35943905  0.92909604  0.15168445  1
  O2-  O406  1  0.28207170  0.90646865  0.50705477  1
  O2-  O407  1  0.31913089  0.91950477  0.82311420  1
  O2-  O408  1  0.58469644  0.16371298  0.14527272  1
  O2-  O409  1  0.59317639  0.16757187  0.47634915  1
  O2-  O410  1  0.56210500  0.11967089  0.79313717  1
  O2-  O411  1  0.58546272  0.41570427  0.13594947  1
  O2-  O412  1  0.59309944  0.42726032  0.47813177  1
  O2-  O413  1  0.59162422  0.42161990  0.81666140  1
  O2-  O414  1  0.59579451  0.64371884  0.14969858  1
  O2-  O415  1  0.58430338  0.66322398  0.48338500  1
  O2-  O416  1  0.60183453  0.66433881  0.87271666  1
  O2-  O417  1  0.60172252  0.94149944  0.14517570  1
  O2-  O418  1  0.61213486  0.92372507  0.47708300  1
  O2-  O419  1  0.60175899  0.92049074  0.82733835  1
  O2-  O420  1  0.83752671  0.16099176  0.15518245  1
  O2-  O421  1  0.83819597  0.15440887  0.46873190  1
  O2-  O422  1  0.82911798  0.17305968  0.82219096  1
  O2-  O423  1  0.82539527  0.39899174  0.14695760  1
  O2-  O424  1  0.86926927  0.40501225  0.48579662  1
  O2-  O425  1  0.83299242  0.40511347  0.80926461  1
  O2-  O426  1  0.83601101  0.66162618  0.14051322  1
  O2-  O427  1  0.87692009  0.74700636  0.47498913  1
  O2-  O428  1  0.80265462  0.68296433  0.79615800  1
  O2-  O429  1  0.82848247  0.91184115  0.14028245  1
  O2-  O430  1  0.86652544  0.91375016  0.48680615  1
  O2-  O431  1  0.82744180  0.92136498  0.80809658  1
  O2-  O432  1  0.18532219  0.11890587  0.19040293  1
  O2-  O433  1  0.16306851  0.07750980  0.53053260  1
  O2-  O434  1  0.16422767  0.08342667  0.82885155  1
  O2-  O435  1  0.16790728  0.34881525  0.18415018  1
  O2-  O436  1  0.16347312  0.34145628  0.52737938  1
  O2-  O437  1  0.12495800  0.32945436  0.85784990  1
  O2-  O438  1  0.12568251  0.56039513  0.18650051  1
  O2-  O439  1  0.15654597  0.56740472  0.48316842  1
  O2-  O440  1  0.16929596  0.55257936  0.85982148  1
  O2-  O441  1  0.20922359  0.80415749  0.20559241  1
  O2-  O442  1  0.18979867  0.84721179  0.51482924  1
  O2-  O443  1  0.13989671  0.80377185  0.82936546  1
  O2-  O444  1  0.42500968  0.09386456  0.19332432  1
  O2-  O445  1  0.41695995  0.12892720  0.44002144  1
  O2-  O446  1  0.41876328  0.08600703  0.86057889  1
  O2-  O447  1  0.42132480  0.34590212  0.17871821  1
  O2-  O448  1  0.41642180  0.34885999  0.51726777  1
  O2-  O449  1  0.42565834  0.32739293  0.84993077  1
  O2-  O450  1  0.43229514  0.57789168  0.18648254  1
  O2-  O451  1  0.41805927  0.59296708  0.50862038  1
  O2-  O452  1  0.44110515  0.58176142  0.85825898  1
  O2-  O453  1  0.43890663  0.84604344  0.19035362  1
  O2-  O454  1  0.37440514  0.82581118  0.48354168  1
  O2-  O455  1  0.43011740  0.85804791  0.86379020  1
  O2-  O456  1  0.67413137  0.09668596  0.19800670  1
  O2-  O457  1  0.67884519  0.08810178  0.52507281  1
  O2-  O458  1  0.67492817  0.08452811  0.86656061  1
  O2-  O459  1  0.65834369  0.32909867  0.18196206  1
  O2-  O460  1  0.67794827  0.33702451  0.51770701  1
  O2-  O461  1  0.67199837  0.33105668  0.86318983  1
  O2-  O462  1  0.68050796  0.57270444  0.18673054  1
  O2-  O463  1  0.70908597  0.61231522  0.51337462  1
  O2-  O464  1  0.64478764  0.61437929  0.85873346  1
  O2-  O465  1  0.67960724  0.85155882  0.18597767  1
  O2-  O466  1  0.69148824  0.83650075  0.50866122  1
  O2-  O467  1  0.67447538  0.82388507  0.85677088  1
  O2-  O468  1  0.92599872  0.07442255  0.18830478  1
  O2-  O469  1  0.91741345  0.07014731  0.52154664  1
  O2-  O470  1  0.90376840  0.08208070  0.85615759  1
  O2-  O471  1  0.90901499  0.32173150  0.19523466  1
  O2-  O472  1  0.90915000  0.37466400  0.51340329  1
  O2-  O473  1  0.92084922  0.33162524  0.87207568  1
  O2-  O474  1  0.92469194  0.58196796  0.13135980  1
  O2-  O475  1  0.94729341  0.62894395  0.51601028  1
  O2-  O476  1  0.90388634  0.56294699  0.85988583  1
  O2-  O477  1  0.89150522  0.82032142  0.19431374  1
  O2-  O478  1  0.92614731  0.81008593  0.52193866  1
  O2-  O479  1  0.91559762  0.84478616  0.84595526  1
  O2-  O480  1  0.12495607  0.05579520  0.30280890  1
  O2-  O481  1  0.16560465  0.09425839  0.65132125  1
  O2-  O482  1  0.17409222  0.11927401  0.95825723  1
  O2-  O483  1  0.14303472  0.33265016  0.31494132  1
  O2-  O484  1  0.15164948  0.33069127  0.65028032  1
  O2-  O485  1  0.14519725  0.34897777  0.97850053  1
  O2-  O486  1  0.14582859  0.57352959  0.31740175  1
  O2-  O487  1  0.13358414  0.55415665  0.71628857  1
  O2-  O488  1  0.17252156  0.56180939  0.97126018  1
  O2-  O489  1  0.18147356  0.83188100  0.32983189  1
  O2-  O490  1  0.09616909  0.80316377  0.61834884  1
  O2-  O491  1  0.19549588  0.84624107  1.05852756  1
  O2-  O492  1  0.42901908  0.06356795  0.31145925  1
  O2-  O493  1  0.44720005  0.15785422  0.62273183  1
  O2-  O494  1  0.42974085  0.10947097  0.97752112  1
  O2-  O495  1  0.43686386  0.34804498  0.30545805  1
  O2-  O496  1  0.40068115  0.34015722  0.64334983  1
  O2-  O497  1  0.41706447  0.33099421  0.97536155  1
  O2-  O498  1  0.40192313  0.57070354  0.35578128  1
  O2-  O499  1  0.42679492  0.59595417  0.63307269  1
  O2-  O500  1  0.41793774  0.57226665  0.97879944  1
  O2-  O501  1  0.41952297  0.81601797  0.30799963  1
  O2-  O502  1  0.49752167  0.86148238  0.56748528  1
  O2-  O503  1  0.42224951  0.85468814  0.98667021  1
  O2-  O504  1  0.64478560  0.07694710  0.32179764  1
  O2-  O505  1  0.67190405  0.08973332  0.64899952  1
  O2-  O506  1  0.66430293  0.07644444  0.97820101  1
  O2-  O507  1  0.66245754  0.33138043  0.30693071  1
  O2-  O508  1  0.68043655  0.33876644  0.63967180  1
  O2-  O509  1  0.67428386  0.32753290  0.98079077  1
  O2-  O510  1  0.66340228  0.56655052  0.30538830  1
  O2-  O511  1  0.65516180  0.58952322  0.63093899  1
  O2-  O512  1  0.66355148  0.58566372  0.97373210  1
  O2-  O513  1  0.65973707  0.81454906  0.30692074  1
  O2-  O514  1  0.66824111  0.83164698  0.63073802  1
  O2-  O515  1  0.66045618  0.83014258  0.98339704  1
  O2-  O516  1  0.89336033  0.06534889  0.30320430  1
  O2-  O517  1  0.90888419  0.08377586  0.64559098  1
  O2-  O518  1  0.91938679  0.08371250  0.97853406  1
  O2-  O519  1  0.89823918  0.31951893  0.31946382  1
  O2-  O520  1  0.93808693  0.33059908  0.62694707  1
  O2-  O521  1  0.93842573  0.34179193  0.99438017  1
  O2-  O522  1  0.88879910  0.57916520  0.39750876  1
  O2-  O523  1  0.90309479  0.56718889  0.63026046  1
  O2-  O524  1  0.90091709  0.56193945  0.99464090  1
  O2-  O525  1  0.87174301  0.80610520  0.32232087  1
  O2-  O526  1  0.92670029  0.85414956  0.64855218  1
  O2-  O527  1  0.88693063  0.82313386  0.96898872  1
  O2-  O528  1  0.08113144  0.18338136  0.02043334  1
  O2-  O529  1  0.06163698  0.16541413  0.33643341  1
  O2-  O530  1  0.07648395  0.17000632  0.68637849  1
  O2-  O531  1  0.02697190  0.39925636  0.01752074  1
  O2-  O532  1  0.06606298  0.40461447  0.36120950  1
  O2-  O533  1  0.07853278  0.38873249  0.71798893  1
  O2-  O534  1  0.08184078  0.63137134  0.00531431  1
  O2-  O535  1  0.07492631  0.66088241  0.36513363  1
  O2-  O536  1  0.06404419  0.66824337  0.68914227  1
  O2-  O537  1  0.06361442  0.94528786  -0.02134604  1
  O2-  O538  1  0.10480944  0.92102432  0.37066479  1
  O2-  O539  1  0.08000377  0.93353643  0.68926177  1
  O2-  O540  1  0.33042472  0.16695241  0.02136414  1
  O2-  O541  1  0.35979583  0.17455056  0.34030370  1
  O2-  O542  1  0.33042473  0.18174187  0.68655526  1
  O2-  O543  1  0.32119048  0.40934236  0.01406501  1
  O2-  O544  1  0.35490291  0.47739969  0.34766031  1
  O2-  O545  1  0.31471353  0.42390830  0.69174333  1
  O2-  O546  1  0.30310054  0.58699118  0.03790948  1
  O2-  O547  1  0.32164565  0.65653602  0.33752547  1
  O2-  O548  1  0.28698535  0.55632644  0.69888759  1
  O2-  O549  1  0.36644212  0.95507470  0.02899045  1
  O2-  O550  1  0.33737376  0.91664628  0.38407038  1
  O2-  O551  1  0.24469606  0.92667841  0.70828796  1
  O2-  O552  1  0.58731139  0.15113131  0.02347245  1
  O2-  O553  1  0.57642168  0.17760459  0.35357761  1
  O2-  O554  1  0.59013036  0.17663058  0.67905243  1
  O2-  O555  1  0.58907722  0.41656562  0.01051947  1
  O2-  O556  1  0.59030998  0.41611239  0.35242408  1
  O2-  O557  1  0.62833264  0.43985610  0.69376953  1
  O2-  O558  1  0.57515887  0.65828850  0.02118065  1
  O2-  O559  1  0.55816868  0.63980181  0.32563296  1
  O2-  O560  1  0.58501931  0.68317451  0.66559708  1
  O2-  O561  1  0.59172952  0.92159513  0.02050349  1
  O2-  O562  1  0.54038624  0.91967995  0.36905598  1
  O2-  O563  1  0.62061188  0.94114140  0.70870301  1
  O2-  O564  1  0.86220722  0.17660188  0.02835397  1
  O2-  O565  1  0.81197101  0.14771498  0.35094550  1
  O2-  O566  1  0.83737000  0.17176626  0.69271820  1
  O2-  O567  1  0.83532090  0.40121005  0.02591852  1
  O2-  O568  1  0.82281276  0.41864800  0.35655043  1
  O2-  O569  1  0.84365773  0.41203906  0.68020084  1
  O2-  O570  1  0.82417459  0.66384960  0.01540596  1
  O2-  O571  1  0.79596080  0.65538100  0.36217028  1
  O2-  O572  1  0.89870207  0.70264777  0.69566025  1
  O2-  O573  1  0.82104224  0.91604849  0.02067335  1
  O2-  O574  1  0.80926904  0.91050709  0.34603863  1
  O2-  O575  1  0.82407763  0.92072910  0.68691462  1
