# generated using pymatgen
data_H2O
_symmetry_space_group_name_H-M   'P 1'
_cell_length_a   17.97882037
_cell_length_b   17.98101435
_cell_length_c   22.00070716
_cell_angle_alpha   89.99945284
_cell_angle_beta   90.01183917
_cell_angle_gamma   120.02126164
_symmetry_Int_Tables_number   1
_chemical_formula_structural   H2O
_chemical_formula_sum   'H384 O192'
_cell_volume   6158.13996305
_cell_formula_units_Z   192
loop_
 _symmetry_equiv_pos_site_id
 _symmetry_equiv_pos_as_xyz
  1  'x, y, z'
loop_
 _atom_type_symbol
 _atom_type_oxidation_number
  H+  1.0
  O2-  -2.0
loop_
 _atom_site_type_symbol
 _atom_site_label
 _atom_site_symmetry_multiplicity
 _atom_site_fract_x
 _atom_site_fract_y
 _atom_site_fract_z
 _atom_site_occupancy
  H+  H0  1  0.12333401  0.34867505  0.88665616  1
  H+  H1  1  0.12683090  0.11084060  0.51052601  1
  H+  H2  1  0.63301567  0.12462628  0.83408952  1
  H+  H3  1  0.88745665  0.86917546  1.00151772  1
  H+  H4  1  0.71399907  0.62069735  0.33270048  1
  H+  H5  1  0.14139751  0.25044135  0.34670941  1
  H+  H6  1  0.60299078  0.38449205  0.66583943  1
  H+  H7  1  0.13908599  0.03377415  0.99550949  1
  H+  H8  1  0.37034176  0.47439083  0.00635576  1
  H+  H9  1  0.47086674  0.36696198  -0.01093223  1
  H+  H10  1  0.39445453  0.61843765  0.83683420  1
  H+  H11  1  0.38040352  0.36381093  -0.00743962  1
  H+  H12  1  0.12339302  0.73140800  0.82873074  1
  H+  H13  1  0.86770599  0.00413417  0.84379299  1
  H+  H14  1  0.13516757  0.60736487  0.66636668  1
  H+  H15  1  0.53928639  0.40100537  0.82802418  1
  H+  H16  1  0.46313594  0.75053052  0.13348398  1
  H+  H17  1  0.62774112  0.09021690  0.32832918  1
  H+  H18  1  0.13876696  0.88677497  0.31910673  1
  H+  H19  1  0.87702162  0.50057443  0.74127660  1
  H+  H20  1  0.58222937  0.04538874  0.98485597  1
  H+  H21  1  0.20762613  0.62248071  0.23637652  1
  H+  H22  1  0.77899522  0.39014980  0.48853145  1
  H+  H23  1  0.05750018  0.47686593  0.02456453  1
  H+  H24  1  0.22747150  0.90190744  0.97328412  1
  H+  H25  1  0.76620514  0.86851678  0.82278186  1
  H+  H26  1  0.38292306  0.99019922  0.01467501  1
  H+  H27  1  0.01451473  0.88222074  0.33783916  1
  H+  H28  1  0.46646502  0.10060384  0.66711354  1
  H+  H29  1  0.91965258  0.85006400  0.93891578  1
  H+  H30  1  0.36850102  0.94107396  0.11321945  1
  H+  H31  1  0.26572652  0.13928499  0.49803541  1
  H+  H32  1  0.15869771  0.57278443  0.60706967  1
  H+  H33  1  0.12865119  0.74069739  0.15365758  1
  H+  H34  1  0.51800775  0.38401788  0.48686364  1
  H+  H35  1  0.72643544  0.61783230  0.17836383  1
  H+  H36  1  0.63572479  0.36184920  0.84407526  1
  H+  H37  1  0.17769840  0.84790753  0.22154297  1
  H+  H38  1  0.86056563  0.20630215  0.83456509  1
  H+  H39  1  0.23071312  0.12870546  0.84557778  1
  H+  H40  1  0.48077042  0.86503889  0.84248110  1
  H+  H41  1  0.85401343  -0.02942757  1.01632918  1
  H+  H42  1  0.52611846  0.38600393  0.32952095  1
  H+  H43  1  0.13796527  0.11736755  0.32534207  1
  H+  H44  1  0.89929487  0.52871952  0.32570077  1
  H+  H45  1  0.10368233  0.27864329  0.97270983  1
  H+  H46  1  0.26921513  0.38345380  0.49429200  1
  H+  H47  1  0.37689032  0.52297823  0.83696469  1
  H+  H48  1  0.33343557  0.62154902  0.09568815  1
  H+  H49  1  1.02491632  0.13646856  0.66950651  1
  H+  H50  1  0.52921440  0.63131659  1.00582969  1
  H+  H51  1  0.90109090  0.37220050  0.33081528  1
  H+  H52  1  0.62395960  0.17361686  0.00580082  1
  H+  H53  1  0.86765659  0.64531420  1.00889660  1
  H+  H54  1  0.36040335  0.14289865  0.00719774  1
  H+  H55  1  0.88195083  0.49656787  0.16944307  1
  H+  H56  1  0.83352718  0.49586713  0.73340840  1
  H+  H57  1  0.88738219  0.36196847  0.51233208  1
  H+  H58  1  0.38520309  0.36487477  0.50732766  1
  H+  H59  1  0.10653787  0.22598850  0.50416740  1
  H+  H60  1  0.64445073  0.52075242  0.16151811  1
  H+  H61  1  0.35824062  0.72368854  0.67300964  1
  H+  H62  1  0.13284611  0.73499412  0.00157397  1
  H+  H63  1  0.38627467  0.77106441  0.33257716  1
  H+  H64  1  -0.01421551  0.88056166  0.84005654  1
  H+  H65  1  0.77522676  0.40734048  0.03223651  1
  H+  H66  1  -0.00787112  0.61933797  -0.00067723  1
  H+  H67  1  0.60140128  0.73258304  0.48516067  1
  H+  H68  1  0.64096313  0.85288853  -0.00171099  1
  H+  H69  1  0.08875395  0.17402975  0.72778966  1
  H+  H70  1  0.63764447  1.00412796  0.84635347  1
  H+  H71  1  0.61815437  0.98636199  0.49938151  1
  H+  H72  1  0.85547112  0.73527421  0.61798585  1
  H+  H73  1  0.89633817  0.28134726  0.32976454  1
  H+  H74  1  0.38647484  0.36286422  0.32386431  1
  H+  H75  1  0.30696829  0.89322716  0.02912669  1
  H+  H76  1  0.43741470  0.76204871  0.11251260  1
  H+  H77  1  0.27477995  0.63237542  0.33810665  1
  H+  H78  1  0.22601390  0.86659393  0.50770806  1
  H+  H79  1  0.47591853  0.12489920  0.99731661  1
  H+  H80  1  0.87220216  0.66448902  0.17803187  1
  H+  H81  1  0.60132245  0.89003930  0.49784506  1
  H+  H82  1  0.38535911  0.73351834  1.00542179  1
  H+  H83  1  0.61178529  0.49896849  0.99396932  1
  H+  H84  1  0.12340765  -0.01686778  0.15086043  1
  H+  H85  1  0.58240694  0.25115720  0.61110299  1
  H+  H86  1  0.85970264  0.63171833  0.49340494  1
  H+  H87  1  0.14040441  0.60895142  0.32913154  1
  H+  H88  1  0.64727115  0.62043105  0.83051434  1
  H+  H89  1  0.27201813  0.14094849  0.67393962  1
  H+  H90  1  0.87190357  0.32395706  0.66376504  1
  H+  H91  1  0.28289340  0.64064314  0.82502699  1
  H+  H92  1  0.11487185  0.71941200  0.33338849  1
  H+  H93  1  0.36140669  0.71721417  0.49331292  1
  H+  H94  1  0.76890970  0.88091636  0.66777020  1
  H+  H95  1  0.66578616  0.81928922  0.89983203  1
  H+  H96  1  0.63365242  0.38953699  0.02063139  1
  H+  H97  1  0.60948074  0.22578857  0.48187385  1
  H+  H98  1  0.37125187  0.38042961  0.15991396  1
  H+  H99  1  0.63364040  0.85643772  0.65817221  1
  H+  H100  1  0.60543186  0.47419986  0.48209026  1
  H+  H101  1  0.12413553  0.02168997  0.32204578  1
  H+  H102  1  0.96972787  0.34211625  0.66952276  1
  H+  H103  1  0.38348357  0.27539867  0.50808360  1
  H+  H104  1  0.63821113  0.11992122  0.51215459  1
  H+  H105  1  0.13570659  0.64757292  -0.00107024  1
  H+  H106  1  0.36235324  0.87493128  0.35028071  1
  H+  H107  1  0.62663959  0.61353151  0.16126079  1
  H+  H108  1  0.86158146  0.13535792  0.33698693  1
  H+  H109  1  0.02303518  0.63467488  0.33713085  1
  H+  H110  1  0.61460666  0.96930144  0.67646203  1
  H+  H111  1  0.11459960  0.88724510  0.49232437  1
  H+  H112  1  0.38512625  0.61294522  0.65657198  1
  H+  H113  1  0.47391544  0.60901297  0.34535998  1
  H+  H114  1  0.85052425  0.10067113  0.15280406  1
  H+  H115  1  0.63639180  0.10643927  0.66514010  1
  H+  H116  1  0.10631578  0.37684172  0.67780430  1
  H+  H117  1  0.08792968  0.66836936  0.43296758  1
  H+  H118  1  0.38654621  0.27639641  0.66146871  1
  H+  H119  1  0.64036801  0.84408346  0.32873152  1
  H+  H120  1  0.13485750  0.11721645  0.66082995  1
  H+  H121  1  0.65716193  0.53571581  0.83231858  1
  H+  H122  1  0.22728969  0.86555312  0.66527817  1
  H+  H123  1  0.13542195  0.61113015  0.50900379  1
  H+  H124  1  0.38724287  0.91090633  0.17741026  1
  H+  H125  1  0.62161439  0.63645700  0.00511525  1
  H+  H126  1  0.37906978  1.02957519  0.50982515  1
  H+  H127  1  0.52339646  0.62568311  0.82191221  1
  H+  H128  1  0.35823014  0.47290443  0.49309087  1
  H+  H129  1  0.41634543  0.33639530  0.60194200  1
  H+  H130  1  0.70798702  0.86105402  0.50254775  1
  H+  H131  1  0.83958417  0.88191148  0.49294789  1
  H+  H132  1  0.26147120  0.13271012  0.33923085  1
  H+  H133  1  0.86409130  0.73186915  0.00549962  1
  H+  H134  1  0.63215697  0.61175466  0.48727348  1
  H+  H135  1  0.22601373  0.12466457  0.99813582  1
  H+  H136  1  0.60897144  0.63451972  0.66536284  1
  H+  H137  1  0.65281151  0.12907947  0.17628704  1
  H+  H138  1  0.84733579  0.80199635  0.17401380  1
  H+  H139  1  0.85707566  0.11204050  0.83405480  1
  H+  H140  1  0.72917486  0.12241744  0.50957610  1
  H+  H141  1  0.53994998  0.88620652  0.01544836  1
  H+  H142  1  0.18374883  0.58663268  0.92558271  1
  H+  H143  1  0.87906044  0.75717792  0.85752137  1
  H+  H144  1  0.63286829  0.76727839  0.65558650  1
  H+  H145  1  0.67708858  0.30657481  0.64173814  1
  H+  H146  1  0.64418488  0.24804501  0.16213826  1
  H+  H147  1  0.86110591  0.71623836  0.34060145  1
  H+  H148  1  0.75828848  0.37787315  0.18043965  1
  H+  H149  1  0.29589220  0.64660051  -0.00262897  1
  H+  H150  1  0.96940133  0.34237216  0.84733578  1
  H+  H151  1  0.86917501  0.47812896  0.49756263  1
  H+  H152  1  0.41502553  0.87689604  0.99803592  1
  H+  H153  1  0.22091014  0.36206976  0.65854733  1
  H+  H154  1  0.85191299  0.38848098  0.01518222  1
  H+  H155  1  0.23442001  0.12333114  0.16963651  1
  H+  H156  1  0.63134698  0.96981367  0.02196773  1
  H+  H157  1  0.11533686  0.14340885  0.15423908  1
  H+  H158  1  0.14173299  0.52085071  0.32734677  1
  H+  H159  1  0.99290538  0.63380528  0.65852144  1
  H+  H160  1  0.86846608  0.26482861  0.00556593  1
  H+  H161  1  0.67302513  0.08977473  0.23702743  1
  H+  H162  1  0.36919671  0.24535390  0.82665214  1
  H+  H163  1  0.65589291  0.37892672  0.32739130  1
  H+  H164  1  0.13279970  0.87354750  0.99264273  1
  H+  H165  1  0.22889092  0.37151316  0.32613476  1
  H+  H166  1  0.27369292  0.88605134  0.83194544  1
  H+  H167  1  0.65974303  0.33557649  0.54082252  1
  H+  H168  1  0.83160463  0.41201702  0.79679179  1
  H+  H169  1  0.42890613  0.41175716  0.85517603  1
  H+  H170  1  0.40548019  0.27901410  0.16961151  1
  H+  H171  1  0.85607772  0.13657492  0.49449340  1
  H+  H172  1  0.27187362  0.87593551  0.34846899  1
  H+  H173  1  0.40103672  0.61610032  -0.00963950  1
  H+  H174  1  0.68608373  0.21560864  0.80672605  1
  H+  H175  1  0.61506724  0.99206477  0.17025741  1
  H+  H176  1  0.13108679  0.02331344  0.50706431  1
  H+  H177  1  0.37076331  0.46737529  0.16189025  1
  H+  H178  1  0.18140587  0.65404868  0.17791139  1
  H+  H179  1  1.03439514  0.64587214  0.83414598  1
  H+  H180  1  0.62570926  -0.03936060  0.31773222  1
  H+  H181  1  0.74442361  0.34715228  0.83107974  1
  H+  H182  1  0.73815241  0.62192121  0.98948877  1
  H+  H183  1  0.02119888  0.38220252  0.49656460  1
  H+  H184  1  0.22759662  0.94113745  0.28889823  1
  H+  H185  1  0.11594627  0.72856346  0.49225339  1
  H+  H186  1  0.59218374  0.20373266  0.69121243  1
  H+  H187  1  0.22137353  0.60617855  0.51108364  1
  H+  H188  1  0.52350900  0.88254862  0.68182834  1
  H+  H189  1  0.50091608  0.10204661  0.34277680  1
  H+  H190  1  0.62275807  0.26847071  0.85621693  1
  H+  H191  1  0.12614246  0.99805286  0.83945736  1
  H+  H192  1  0.10583005  0.24136545  0.81968849  1
  H+  H193  1  0.89796476  0.32030882  0.94474602  1
  H+  H194  1  0.02330318  0.88178760  0.48517860  1
  H+  H195  1  0.89517949  0.55175185  0.85256596  1
  H+  H196  1  0.76784624  0.62890877  0.48955842  1
  H+  H197  1  0.79965693  0.39370295  0.67498471  1
  H+  H198  1  0.98010961  0.61678994  0.50006020  1
  H+  H199  1  0.34218247  0.17483661  0.09830567  1
  H+  H200  1  0.37178057  0.11034750  0.84855111  1
  H+  H201  1  -0.01186206  0.63739779  0.17262329  1
  H+  H202  1  0.97983070  0.10434762  0.17361853  1
  H+  H203  1  0.47368438  0.96428691  0.56398264  1
  H+  H204  1  0.96652035  0.11162471  0.50842828  1
  H+  H205  1  0.92001210  0.07302940  0.26704415  1
  H+  H206  1  0.13651934  0.36673018  0.32982373  1
  H+  H207  1  0.85870236  0.88574422  0.65959393  1
  H+  H208  1  0.10102267  0.36543426  -0.02087467  1
  H+  H209  1  0.87988168  0.85574569  0.32856228  1
  H+  H210  1  0.39071580  0.58871615  0.17044672  1
  H+  H211  1  0.37761837  0.02435014  0.84710939  1
  H+  H212  1  0.36409117  -0.00029110  0.33821530  1
  H+  H213  1  0.14167727  0.87187354  0.84075165  1
  H+  H214  1  0.12693976  0.89647914  0.14897044  1
  H+  H215  1  0.36192424  0.62916090  0.49487759  1
  H+  H216  1  0.10574919  0.14742918  0.00172179  1
  H+  H217  1  0.82029180  0.89448457  0.10458525  1
  H+  H218  1  0.10907444  0.47224245  0.49816446  1
  H+  H219  1  0.87368104  0.75828548  0.48104031  1
  H+  H220  1  0.92413467  0.36093816  0.16480692  1
  H+  H221  1  0.08823512  0.67151845  0.73511990  1
  H+  H222  1  0.63517577  0.36583407  0.48123291  1
  H+  H223  1  0.63270862  0.75938445  0.83964332  1
  H+  H224  1  0.51995481  0.39130814  0.67348068  1
  H+  H225  1  0.90154130  0.83926122  0.43847219  1
  H+  H226  1  0.87533537  1.02385863  0.50835018  1
  H+  H227  1  0.02575703  0.89310126  0.00447245  1
  H+  H228  1  0.85941334  0.22693523  0.49246139  1
  H+  H229  1  0.38117616  0.11932197  0.51143244  1
  H+  H230  1  0.02682941  0.38737882  0.34100684  1
  H+  H231  1  0.54225087  0.38275522  0.15634895  1
  H+  H232  1  0.36839739  0.90742289  0.50717031  1
  H+  H233  1  0.53008238  0.62813926  0.16176594  1
  H+  H234  1  0.87323827  0.10390006  -0.00262846  1
  H+  H235  1  0.23770238  0.40186691  0.81831368  1
  H+  H236  1  0.97492677  0.87665091  0.62126302  1
  H+  H237  1  0.99283019  0.38041509  1.01328088  1
  H+  H238  1  0.35892400  0.38623419  0.67202370  1
  H+  H239  1  0.16775057  0.53290166  0.98587945  1
  H+  H240  1  0.76935900  0.87716443  0.01095946  1
  H+  H241  1  0.22452039  0.35909433  0.17230945  1
  H+  H242  1  0.10111360  0.38494231  0.16428918  1
  H+  H243  1  0.78949229  0.40192067  0.34199743  1
  H+  H244  1  0.62571817  0.53887436  0.33115402  1
  H+  H245  1  0.72529974  0.10744504  0.32752960  1
  H+  H246  1  0.86441700  0.65283411  0.62804047  1
  H+  H247  1  0.85972193  -0.03194036  0.34106893  1
  H+  H248  1  0.34746407  0.13003131  0.34646982  1
  H+  H249  1  0.97388012  0.10672936  0.32840717  1
  H+  H250  1  0.38440172  0.52355044  0.65622786  1
  H+  H251  1  0.13706077  0.86364238  0.65837661  1
  H+  H252  1  0.89181474  1.02227976  0.66175174  1
  H+  H253  1  0.10740090  0.98455327  0.65933470  1
  H+  H254  1  0.77987467  0.65410714  0.85255817  1
  H+  H255  1  0.39919729  0.80297389  0.18909503  1
  H+  H256  1  0.88994757  0.87252534  0.83497070  1
  H+  H257  1  0.63887064  0.76319521  0.99568679  1
  H+  H258  1  0.36452793  0.88831269  0.83288515  1
  H+  H259  1  0.41597934  0.04153466  0.17913811  1
  H+  H260  1  0.87769560  0.65865288  0.86402412  1
  H+  H261  1  0.58676997  0.90775589  0.77187969  1
  H+  H262  1  0.49363621  0.88980864  0.18681224  1
  H+  H263  1  0.38260502  0.27251412  0.32536210  1
  H+  H264  1  0.49792082  0.90814454  0.52186958  1
  H+  H265  1  0.63501734  0.52665425  0.64897852  1
  H+  H266  1  0.55050181  0.16289629  0.15857729  1
  H+  H267  1  0.36694239  0.47643538  0.34027414  1
  H+  H268  1  0.53689806  0.87437494  0.32835410  1
  H+  H269  1  0.34069037  0.67182794  0.76574529  1
  H+  H270  1  0.35685246  -0.02552507  0.67959473  1
  H+  H271  1  0.28460510  0.61561209  0.15749045  1
  H+  H272  1  0.47190597  0.61071103  0.50189758  1
  H+  H273  1  0.13242072  0.27104757  0.65869007  1
  H+  H274  1  0.60787484  0.72266203  0.38591243  1
  H+  H275  1  0.27029824  0.63144118  0.67320958  1
  H+  H276  1  0.52041657  0.13919906  0.49596562  1
  H+  H277  1  0.24751562  0.88017381  0.16909787  1
  H+  H278  1  0.87528286  0.33143020  0.84149643  1
  H+  H279  1  0.61180729  0.87215323  0.83110530  1
  H+  H280  1  0.10190256  0.46311496  0.68149741  1
  H+  H281  1  0.76407367  0.10599083  0.15505044  1
  H+  H282  1  0.13372875  0.36108188  0.50768924  1
  H+  H283  1  0.33322274  0.66105023  0.39769307  1
  H+  H284  1  0.37385751  0.14504058  0.15732841  1
  H+  H285  1  0.38929538  0.61078242  0.33029994  1
  H+  H286  1  0.12169808  0.73165042  0.67548917  1
  H+  H287  1  0.52061668  0.63551538  0.66942011  1
  H+  H288  1  0.37373172  0.05262316  0.27707895  1
  H+  H289  1  0.08423511  0.17188113  0.44377380  1
  H+  H290  1  0.17018732  0.09742305  0.90537835  1
  H+  H291  1  0.89396612  0.61529458  0.32594497  1
  H+  H292  1  0.42312960  0.34618550  0.90527988  1
  H+  H293  1  0.59280805  0.42176897  0.76607537  1
  H+  H294  1  0.76055769  0.12353833  0.68388120  1
  H+  H295  1  0.91217932  0.85532587  0.56487483  1
  H+  H296  1  0.82383222  0.14989675  0.75247011  1
  H+  H297  1  0.93186236  0.60409424  0.23341499  1
  H+  H298  1  0.86131905  0.20852777  0.68431138  1
  H+  H299  1  0.89632760  0.00924065  0.17729908  1
  H+  H300  1  0.16516398  0.83264879  0.56564644  1
  H+  H301  1  0.32295319  0.16736050  0.43767357  1
  H+  H302  1  0.08770039  0.41723985  0.40044497  1
  H+  H303  1  0.77180522  0.87481093  0.34765771  1
  H+  H304  1  0.33151802  0.91620326  0.44225893  1
  H+  H305  1  0.76943738  0.32725432  0.72738151  1
  H+  H306  1  0.63281318  0.30196356  1.03461902  1
  H+  H307  1  0.65155436  0.82513434  0.56279921  1
  H+  H308  1  0.65532126  0.07246517  0.93614336  1
  H+  H309  1  0.32220155  0.41662470  0.72777219  1
  H+  H310  1  0.32954180  0.91722486  0.74066591  1
  H+  H311  1  0.11965437  0.16019488  0.82765515  1
  H+  H312  1  0.06993613  0.41510865  0.10814578  1
  H+  H313  1  0.08310629  0.39730008  0.77449117  1
  H+  H314  1  0.82267933  0.14745331  0.06600007  1
  H+  H315  1  0.42661999  0.58188887  0.93165365  1
  H+  H316  1  0.19264317  0.21831882  0.38594519  1
  H+  H317  1  0.14026988  0.60911104  0.83617884  1
  H+  H318  1  0.70001905  0.79484323  0.15817105  1
  H+  H319  1  0.14172407  0.51985588  0.83741062  1
  H+  H320  1  0.85539391  0.43460636  0.11287000  1
  H+  H321  1  0.96315462  0.10633034  0.99670246  1
  H+  H322  1  0.66753929  0.37477809  0.18243312  1
  H+  H323  1  0.81477148  0.62516396  0.74035676  1
  H+  H324  1  0.35920643  0.13781320  0.67596115  1
  H+  H325  1  0.10773454  0.22782880  0.15896431  1
  H+  H326  1  0.33545071  0.18206254  0.76964340  1
  H+  H327  1  0.30230383  0.36905918  0.82743719  1
  H+  H328  1  0.16928540  0.09009965  0.22597475  1
  H+  H329  1  0.69291317  0.34639195  0.27490051  1
  H+  H330  1  0.58798692  0.65743820  0.09877917  1
  H+  H331  1  0.16398627  0.83535371  0.89908522  1
  H+  H332  1  0.56681517  0.44847489  0.05448681  1
  H+  H333  1  0.65157402  0.58122603  0.55063781  1
  H+  H334  1  0.82672122  0.90335473  0.76263421  1
  H+  H335  1  0.89830169  0.55567280  0.66252515  1
  H+  H336  1  0.82985179  0.65150302  0.39617199  1
  H+  H337  1  0.66554956  0.77859580  0.29716997  1
  H+  H338  1  0.82086171  0.66954513  0.73790752  1
  H+  H339  1  0.03816530  0.90724255  0.70118073  1
  H+  H340  1  0.72026701  0.61612121  0.63071750  1
  H+  H341  1  0.89866254  0.53167309  1.00218269  1
  H+  H342  1  0.33972898  0.41275330  0.06453520  1
  H+  H343  1  0.38653240  0.86353501  0.67592897  1
  H+  H344  1  0.58165755  0.41693047  0.38914592  1
  H+  H345  1  0.09741008  0.67288527  0.10010375  1
  H+  H346  1  0.41172215  0.08246105  0.60488768  1
  H+  H347  1  0.16358972  0.33309464  0.56793427  1
  H+  H348  1  0.83239756  0.16503328  0.39639757  1
  H+  H349  1  0.67922450  0.59630932  0.92784550  1
  H+  H350  1  0.93192512  0.59895893  0.91670812  1
  H+  H351  1  0.41609270  0.58172427  0.56384066  1
  H+  H352  1  0.91647778  0.08170720  0.60330750  1
  H+  H353  1  0.56614287  0.13687328  0.39775058  1
  H+  H354  1  0.11084652  0.94552624  0.77904111  1
  H+  H355  1  0.72923065  0.09278182  0.84830540  1
  H+  H356  1  0.16516002  0.33272240  0.23103892  1
  H+  H357  1  0.91464045  0.32170402  0.56827833  1
  H+  H358  1  0.76508867  0.13635178  0.00809245  1
  H+  H359  1  0.85180769  0.42942862  0.40014218  1
  H+  H360  1  0.33282347  0.41438369  0.39823223  1
  H+  H361  1  0.58477930  0.14510882  0.74517514  1
  H+  H362  1  0.41109184  0.08471316  0.93956213  1
  H+  H363  1  0.42149959  0.84393217  0.28028525  1
  H+  H364  1  0.82115899  0.91978592  0.43500584  1
  H+  H365  1  0.43351081  0.58093593  0.23376272  1
  H+  H366  1  0.07905556  0.91717531  0.39597978  1
  H+  H367  1  0.07463518  0.17499605  0.06008676  1
  H+  H368  1  0.43279700  0.33702368  0.22935721  1
  H+  H369  1  0.58316853  0.92106354  0.11654591  1
  H+  H370  1  0.67470205  0.08820273  0.60404854  1
  H+  H371  1  0.39100919  0.77837254  0.84262291  1
  H+  H372  1  0.89463222  0.06204318  0.90514314  1
  H+  H373  1  0.42574601  0.85070311  0.61571809  1
  H+  H374  1  0.16521460  0.08737042  0.60117295  1
  H+  H375  1  0.36130376  0.23296263  0.00539871  1
  H+  H376  1  0.59473594  0.18639990  0.07095613  1
  H+  H377  1  0.92602837  0.59207187  0.56124622  1
  H+  H378  1  0.89934176  0.80894742  0.27340743  1
  H+  H379  1  0.08986434  0.92210000  0.06256855  1
  H+  H380  1  0.58259862  0.66031821  0.76183664  1
  H+  H381  1  0.43546102  0.84312741  0.93613937  1
  H+  H382  1  0.61760694  0.39040452  0.10845896  1
  H+  H383  1  0.47441437  0.11372191  0.22951976  1
  O2-  O384  1  0.07859440  0.16788997  0.14192494  1
  O2-  O385  1  0.07509255  0.16495103  0.48838859  1
  O2-  O386  1  0.09280317  0.18564271  0.80249626  1
  O2-  O387  1  0.07479666  0.42011742  0.15286007  1
  O2-  O388  1  0.08207508  0.41239841  0.48209337  1
  O2-  O389  1  0.08418800  0.40110618  0.82061326  1
  O2-  O390  1  0.09569012  0.67786520  0.14474422  1
  O2-  O391  1  0.08642100  0.66740408  0.47836144  1
  O2-  O392  1  0.09211446  0.66982440  0.81544100  1
  O2-  O393  1  0.09517039  0.92440800  0.13343564  1
  O2-  O394  1  0.08517016  0.91806668  0.47571687  1
  O2-  O395  1  0.09674099  0.93638269  0.82217826  1
  O2-  O396  1  0.34375314  0.17539311  0.14418188  1
  O2-  O397  1  0.32648043  0.16938818  0.48306134  1
  O2-  O398  1  0.33482807  0.18434507  0.81500207  1
  O2-  O399  1  0.33766341  0.40759206  0.14597896  1
  O2-  O400  1  0.32943284  0.41228489  0.47825608  1
  O2-  O401  1  0.29862164  0.41691175  0.80981087  1
  O2-  O402  1  0.31669736  0.59197178  0.13513570  1
  O2-  O403  1  0.32885890  0.65766927  0.47983768  1
  O2-  O404  1  0.34361690  0.67387882  0.81134286  1
  O2-  O405  1  0.36019449  0.94323096  0.15776511  1
  O2-  O406  1  0.32894454  0.92425539  0.48711383  1
  O2-  O407  1  0.33422328  0.91825727  0.81705390  1
  O2-  O408  1  0.61005189  0.18837017  0.14341366  1
  O2-  O409  1  0.57918691  0.16170638  0.47914961  1
  O2-  O410  1  0.62634708  0.17137763  0.81340899  1
  O2-  O411  1  0.60375556  0.41812052  0.14263579  1
  O2-  O412  1  0.57667142  0.41297654  0.46846482  1
  O2-  O413  1  0.59867934  0.42601774  0.81142990  1
  O2-  O414  1  0.59148803  0.65635443  0.14469229  1
  O2-  O415  1  0.57433403  0.67081769  0.46917302  1
  O2-  O416  1  0.58433201  0.65764072  0.80754733  1
  O2-  O417  1  0.57725892  0.92922972  0.16026379  1
  O2-  O418  1  0.57620790  0.92653419  0.48682431  1
  O2-  O419  1  0.58443745  0.90627365  0.81738024  1
  O2-  O420  1  0.80753651  0.10502730  0.12763600  1
  O2-  O421  1  0.82611782  0.16636548  0.47743241  1
  O2-  O422  1  0.82806181  0.14712427  0.81668850  1
  O2-  O423  1  0.85614062  0.43509826  0.15799770  1
  O2-  O424  1  0.84240189  0.41725567  0.48336327  1
  O2-  O425  1  0.79462705  0.35067969  0.80502175  1
  O2-  O426  1  0.83039171  0.68536516  0.16912404  1
  O2-  O427  1  0.82855671  0.65910943  0.47456888  1
  O2-  O428  1  0.84379459  0.69007608  0.86593667  1
  O2-  O429  1  0.82100377  0.88427938  0.15013590  1
  O2-  O430  1  0.81472725  0.91756756  0.48063634  1
  O2-  O431  1  0.82710881  0.90194015  0.80821986  1
  O2-  O432  1  0.17243476  0.09222100  0.18082719  1
  O2-  O433  1  0.16050906  0.08288845  0.52376265  1
  O2-  O434  1  0.16973557  0.09511951  0.85957065  1
  O2-  O435  1  0.16367809  0.33097455  0.18588806  1
  O2-  O436  1  0.16413450  0.33028474  0.52232153  1
  O2-  O437  1  0.13085756  0.35599169  0.83859423  1
  O2-  O438  1  0.23108853  0.65550987  0.19831171  1
  O2-  O439  1  0.16141153  0.57803753  0.52663256  1
  O2-  O440  1  0.17316829  0.58088663  0.85019979  1
  O2-  O441  1  0.18442214  0.84646621  0.17691064  1
  O2-  O442  1  0.16388457  0.83402616  0.52036984  1
  O2-  O443  1  0.16673661  0.83583893  0.85370129  1
  O2-  O444  1  0.44367150  0.10471292  0.19118841  1
  O2-  O445  1  0.41188999  0.08936258  0.52667657  1
  O2-  O446  1  0.40134516  0.08174755  0.86646136  1
  O2-  O447  1  0.43998659  0.33976988  0.18414617  1
  O2-  O448  1  0.41668886  0.33594338  0.52314536  1
  O2-  O449  1  0.43298858  0.35992590  0.85947251  1
  O2-  O450  1  0.43543554  0.57576999  0.18901603  1
  O2-  O451  1  0.41206345  0.57945261  0.51823680  1
  O2-  O452  1  0.41911957  0.58201927  0.85051855  1
  O2-  O453  1  0.43036451  0.86121371  0.20551599  1
  O2-  O454  1  0.44786824  0.90586140  0.54812362  1
  O2-  O455  1  0.42090730  0.83829030  0.85903947  1
  O2-  O456  1  0.67430730  0.09119974  0.19118639  1
  O2-  O457  1  0.67064455  0.09284617  0.52936216  1
  O2-  O458  1  0.66819815  0.06459053  0.86308519  1
  O2-  O459  1  0.69563855  0.34163938  0.19364536  1
  O2-  O460  1  0.66648660  0.33587856  0.49641298  1
  O2-  O461  1  0.66194946  0.33004795  0.86343322  1
  O2-  O462  1  0.66203396  0.57895021  0.17906065  1
  O2-  O463  1  0.65874124  0.58031883  0.50555412  1
  O2-  O464  1  0.68363550  0.59648984  0.84701246  1
  O2-  O465  1  0.73178384  0.85635548  0.16855402  1
  O2-  O466  1  0.64742002  0.82660885  0.51722042  1
  O2-  O467  1  0.66451621  0.82023191  0.85426078  1
  O2-  O468  1  0.92158054  0.06846716  0.19281059  1
  O2-  O469  1  0.90591568  0.08432675  0.52310838  1
  O2-  O470  1  0.89269484  0.06344444  0.85983139  1
  O2-  O471  1  0.93390602  0.31700823  0.14495708  1
  O2-  O472  1  0.91617939  0.32816321  0.52360739  1
  O2-  O473  1  0.90904554  0.30866811  0.86161911  1
  O2-  O474  1  0.92816226  0.61084537  0.18845716  1
  O2-  O475  1  0.91987133  0.58636706  0.51625855  1
  O2-  O476  1  0.93073652  0.60878533  0.86994896  1
  O2-  O477  1  0.86968696  0.77030612  0.19805050  1
  O2-  O478  1  0.90407672  0.82461430  0.48092953  1
  O2-  O479  1  0.92536703  0.84919319  0.85524527  1
  O2-  O480  1  0.15990117  0.08166987  0.30647751  1
  O2-  O481  1  0.16471381  0.08473052  0.64676364  1
  O2-  O482  1  0.16621943  0.09453320  0.98131969  1
  O2-  O483  1  0.16723050  0.33619603  0.31366076  1
  O2-  O484  1  0.15958708  0.33310026  0.64515011  1
  O2-  O485  1  0.12125212  0.33466978  0.95296108  1
  O2-  O486  1  0.17415138  0.58268101  0.31429295  1
  O2-  O487  1  0.16083260  0.57228857  0.65250890  1
  O2-  O488  1  0.18898108  0.59153554  0.97126059  1
  O2-  O489  1  0.18686538  0.88146106  0.29922982  1
  O2-  O490  1  0.16797987  0.83303778  0.64708349  1
  O2-  O491  1  0.17147251  0.84993912  0.97655191  1
  O2-  O492  1  0.38272999  0.05900812  0.32099923  1
  O2-  O493  1  0.40784290  0.07847727  0.65048335  1
  O2-  O494  1  0.41479273  0.08603116  0.98596714  1
  O2-  O495  1  0.41487294  0.33113667  0.30783161  1
  O2-  O496  1  0.41652738  0.33769767  0.64759665  1
  O2-  O497  1  0.41014737  0.33145087  0.97512342  1
  O2-  O498  1  0.42234796  0.58129960  0.31928367  1
  O2-  O499  1  0.41652442  0.58397448  0.64087019  1
  O2-  O500  1  0.42939037  0.58276985  0.97682029  1
  O2-  O501  1  0.41621611  0.83461014  0.32542678  1
  O2-  O502  1  0.41757041  0.83437504  0.65970655  1
  O2-  O503  1  0.44156427  0.84419096  0.98161582  1
  O2-  O504  1  0.66654841  0.07098314  0.31020855  1
  O2-  O505  1  0.67232114  0.08243694  0.65011002  1
  O2-  O506  1  0.64467106  0.07649012  0.98084281  1
  O2-  O507  1  0.69331406  0.35384680  0.31949975  1
  O2-  O508  1  0.62754379  0.30851618  0.62299398  1
  O2-  O509  1  0.66160391  0.36413500  1.04555896  1
  O2-  O510  1  0.65253661  0.60199462  0.33018747  1
  O2-  O511  1  0.65541416  0.58353784  0.62977408  1
  O2-  O512  1  0.67634252  0.59336916  0.97287136  1
  O2-  O513  1  0.67023881  0.80778860  0.33558009  1
  O2-  O514  1  0.66302582  0.82753262  0.63929242  1
  O2-  O515  1  0.66924894  0.82319976  0.97878508  1
  O2-  O516  1  0.91527867  0.07397748  0.31305859  1
  O2-  O517  1  0.92609427  0.08245415  0.64776237  1
  O2-  O518  1  0.90113725  0.07000704  0.98499788  1
  O2-  O519  1  0.93259229  0.34235679  0.31823137  1
  O2-  O520  1  0.91075959  0.30221737  0.65245719  1
  O2-  O521  1  0.89458548  0.32567331  0.98925194  1
  O2-  O522  1  0.92958874  0.59020708  0.31046709  1
  O2-  O523  1  0.93409444  0.60747825  0.63906050  1
  O2-  O524  1  0.93137667  0.59160558  0.98478566  1
  O2-  O525  1  0.91094877  0.82429402  0.31711781  1
  O2-  O526  1  0.91362624  0.85118140  0.60932344  1
  O2-  O527  1  0.91995439  0.84242981  0.98335977  1
  O2-  O528  1  0.07101046  0.17362065  0.01473444  1
  O2-  O529  1  0.13490728  0.19728165  0.36974890  1
  O2-  O530  1  0.08787564  0.17040195  0.68205927  1
  O2-  O531  1  0.05577688  0.42182580  0.02325042  1
  O2-  O532  1  0.08994532  0.41814125  0.35528647  1
  O2-  O533  1  0.07299857  0.40263149  0.69667901  1
  O2-  O534  1  0.10285794  0.67445274  0.01483178  1
  O2-  O535  1  0.08492539  0.66377157  0.35352784  1
  O2-  O536  1  0.08857768  0.67041582  0.68972763  1
  O2-  O537  1  0.08809453  0.92195034  0.01581430  1
  O2-  O538  1  0.07638887  0.91794970  0.35058354  1
  O2-  O539  1  0.07205733  0.91886597  0.66420025  1
  O2-  O540  1  0.33092365  0.17328579  0.02315145  1
  O2-  O541  1  0.31997958  0.16407561  0.35814301  1
  O2-  O542  1  0.33241255  0.17204803  0.68943029  1
  O2-  O543  1  0.34037170  0.41336663  0.01925366  1
  O2-  O544  1  0.33328503  0.41436120  0.35280157  1
  O2-  O545  1  0.32758424  0.41742699  0.68295166  1
  O2-  O546  1  0.35445730  0.67101655  0.01481600  1
  O2-  O547  1  0.33643756  0.66378211  0.35263984  1
  O2-  O548  1  0.33170795  0.66275828  0.68685442  1
  O2-  O549  1  0.36835458  0.93291864  0.03408594  1
  O2-  O550  1  0.33012784  0.90489331  0.36610661  1
  O2-  O551  1  0.32830288  0.91410326  0.69491971  1
  O2-  O552  1  0.58643676  0.19140816  0.02574190  1
  O2-  O553  1  0.56109245  0.12346430  0.35378495  1
  O2-  O554  1  0.57216579  0.14342173  0.70002316  1
  O2-  O555  1  0.57212262  0.43928270  0.01123508  1
  O2-  O556  1  0.58636004  0.41957414  0.34404341  1
  O2-  O557  1  0.58207852  0.41948921  0.68604173  1
  O2-  O558  1  0.58878578  0.66226157  0.02384430  1
  O2-  O559  1  0.55423891  0.67553357  0.40514783  1
  O2-  O560  1  0.58110907  0.66497481  0.68492457  1
  O2-  O561  1  0.59783119  0.90947572  0.03497093  1
  O2-  O562  1  0.59820888  0.89686797  0.31972824  1
  O2-  O563  1  0.58584333  0.91014543  0.69324981  1
  O2-  O564  1  0.82537538  0.16332289  0.02048654  1
  O2-  O565  1  0.83210548  0.16623939  0.35111843  1
  O2-  O566  1  0.82039650  0.15091183  0.70376849  1
  O2-  O567  1  0.83871287  0.43235786  0.03173293  1
  O2-  O568  1  0.85261496  0.43202515  0.35512467  1
  O2-  O569  1  0.77148046  0.33169900  0.68189465  1
  O2-  O570  1  0.83054133  0.67005992  0.01666507  1
  O2-  O571  1  0.83342594  0.65432037  0.35097111  1
  O2-  O572  1  0.82426549  0.67196501  0.61499924  1
  O2-  O573  1  0.82746776  0.90924958  0.03058615  1
  O2-  O574  1  0.83441655  0.91004621  0.36021943  1
  O2-  O575  1  0.82865442  0.90884378  0.68438831  1
