# generated using pymatgen
data_H2O
_symmetry_space_group_name_H-M   'P 1'
_cell_length_a   17.99625117
_cell_length_b   17.99815364
_cell_length_c   22.00390219
_cell_angle_alpha   89.97472632
_cell_angle_beta   90.02135787
_cell_angle_gamma   120.02934880
_symmetry_Int_Tables_number   1
_chemical_formula_structural   H2O
_chemical_formula_sum   'H384 O192'
_cell_volume   6170.37808453
_cell_formula_units_Z   192
loop_
 _symmetry_equiv_pos_site_id
 _symmetry_equiv_pos_as_xyz
  1  'x, y, z'
loop_
 _atom_type_symbol
 _atom_type_oxidation_number
  H+  1.0
  O2-  -2.0
loop_
 _atom_site_type_symbol
 _atom_site_label
 _atom_site_symmetry_multiplicity
 _atom_site_fract_x
 _atom_site_fract_y
 _atom_site_fract_z
 _atom_site_occupancy
  H+  H0  1  0.40960530  0.16000316  1.00367417  1
  H+  H1  1  0.78343113  0.89305784  0.01033718  1
  H+  H2  1  0.63358397  0.38744464  0.52418373  1
  H+  H3  1  0.38272356  0.74242384  0.00578790  1
  H+  H4  1  0.64680795  0.11590600  0.69450798  1
  H+  H5  1  0.90367019  0.77531665  0.66988786  1
  H+  H6  1  0.37137560  0.89231090  0.14781559  1
  H+  H7  1  0.52010193  0.37353631  0.67186863  1
  H+  H8  1  0.83268943  0.61528971  0.72154057  1
  H+  H9  1  0.38942493  0.53428119  0.17354542  1
  H+  H10  1  0.38540157  0.26351077  0.66901156  1
  H+  H11  1  0.62872780  0.73868069  0.00681554  1
  H+  H12  1  0.13448014  0.27557990  0.16924420  1
  H+  H13  1  0.47551416  0.64522151  0.32505265  1
  H+  H14  1  0.09637682  0.36674227  0.34347152  1
  H+  H15  1  0.63073013  0.35463133  0.16369952  1
  H+  H16  1  0.61884708  0.64001030  0.15409649  1
  H+  H17  1  1.01478616  0.14084265  0.15080605  1
  H+  H18  1  0.85491631  0.45244966  0.49483128  1
  H+  H19  1  0.11029136  0.47175484  0.49395184  1
  H+  H20  1  0.83753586  0.42023655  0.09299705  1
  H+  H21  1  0.50142927  0.38760113  0.52327808  1
  H+  H22  1  0.84395552  0.17064700  0.74147491  1
  H+  H23  1  0.63394359  0.03845266  0.26709991  1
  H+  H24  1  0.72525062  0.34277973  0.51919412  1
  H+  H25  1  0.08443168  0.93278931  0.06614178  1
  H+  H26  1  0.13904209  0.61108184  0.50787656  1
  H+  H27  1  0.12885156  0.40357419  0.82846434  1
  H+  H28  1  0.11150563  0.10508635  0.98644826  1
  H+  H29  1  0.89207990  0.84257796  0.35096732  1
  H+  H30  1  0.52545076  0.89208213  0.50417304  1
  H+  H31  1  0.39984314  0.70126896  0.33680208  1
  H+  H32  1  0.86802021  0.37296375  0.67776299  1
  H+  H33  1  0.60172218  0.39322602  -0.00011920  1
  H+  H34  1  0.83958176  1.01690652  0.30390534  1
  H+  H35  1  0.84768252  0.13707457  0.14131615  1
  H+  H36  1  0.37310375  0.53930142  0.80924625  1
  H+  H37  1  0.63926346  0.32332292  0.30947020  1
  H+  H38  1  0.84935999  0.25025196  0.99316788  1
  H+  H39  1  0.09996845  0.11590429  0.48813333  1
  H+  H40  1  0.50078094  0.11775298  0.33904354  1
  H+  H41  1  0.94399561  0.33108495  0.99822381  1
  H+  H42  1  0.12688107  0.10187540  0.84072767  1
  H+  H43  1  0.21450962  0.85923195  0.52162872  1
  H+  H44  1  0.00516192  0.12314322  0.49617595  1
  H+  H45  1  0.14257484  0.74629245  0.16582164  1
  H+  H46  1  0.77575740  0.40024307  0.82749486  1
  H+  H47  1  0.12462542  0.11663562  0.16697587  1
  H+  H48  1  0.26849668  0.35123522  0.86277522  1
  H+  H49  1  0.67860873  0.84111710  0.93631285  1
  H+  H50  1  0.63114897  0.28316177  0.99028800  1
  H+  H51  1  0.18624781  0.82451119  0.23000579  1
  H+  H52  1  0.61437282  0.73640637  0.50407456  1
  H+  H53  1  0.28909107  0.08219129  0.29469806  1
  H+  H54  1  0.60132417  0.64239058  0.67920644  1
  H+  H55  1  0.88934400  0.11126016  0.66659818  1
  H+  H56  1  0.89260048  0.87354852  0.84909964  1
  H+  H57  1  0.63902926  0.35423594  0.66986504  1
  H+  H58  1  0.47364106  0.62463893  0.51506319  1
  H+  H59  1  0.93977585  0.58344292  0.92653680  1
  H+  H60  1  0.61778346  0.89891738  0.83597487  1
  H+  H61  1  0.89876004  0.50155095  0.66007369  1
  H+  H62  1  0.73130469  0.60639607  0.15778543  1
  H+  H63  1  0.64791349  0.00501174  0.17846290  1
  H+  H64  1  0.38531441  0.39708667  0.77914828  1
  H+  H65  1  0.97968549  0.87262195  0.51568604  1
  H+  H66  1  0.48384016  0.12626739  0.14758797  1
  H+  H67  1  0.75326089  0.87153683  0.33880932  1
  H+  H68  1  0.63432216  0.78157020  0.84435267  1
  H+  H69  1  0.65676880  0.54067176  0.52513094  1
  H+  H70  1  0.89320514  0.52030063  0.16682896  1
  H+  H71  1  0.90709615  0.52206226  0.98439337  1
  H+  H72  1  0.37240003  1.01085419  0.50708245  1
  H+  H73  1  0.23221567  0.35597810  0.67630254  1
  H+  H74  1  0.87999126  0.65336523  0.50633534  1
  H+  H75  1  0.65536136  0.99629005  0.01062370  1
  H+  H76  1  0.02045843  0.38569069  0.16078751  1
  H+  H77  1  0.88915071  0.78380788  0.85653505  1
  H+  H78  1  0.39008554  0.79111787  0.84285815  1
  H+  H79  1  0.92730782  0.60634947  0.32781251  1
  H+  H80  1  0.70535109  0.11019152  0.93758132  1
  H+  H81  1  0.77755152  0.13551623  0.68610938  1
  H+  H82  1  0.82441044  0.39540768  0.43487270  1
  H+  H83  1  0.27382000  0.88486015  0.68461942  1
  H+  H84  1  0.90017746  0.08584526  0.80127927  1
  H+  H85  1  0.87650622  1.02643333  0.15602442  1
  H+  H86  1  0.81966871  0.10462194  -0.00788157  1
  H+  H87  1  0.60455190  0.91888713  0.42073500  1
  H+  H88  1  0.10981236  0.99363520  -0.00311788  1
  H+  H89  1  0.28768261  0.65886528  0.00456483  1
  H+  H90  1  0.85207734  0.72319502  -0.00051990  1
  H+  H91  1  0.18759444  0.10250181  0.31773198  1
  H+  H92  1  0.74116771  0.63195355  0.51964402  1
  H+  H93  1  0.62148047  0.87819712  0.15523039  1
  H+  H94  1  0.72029314  0.61751921  0.99429898  1
  H+  H95  1  0.97475016  0.35018993  0.32731655  1
  H+  H96  1  0.87018457  0.46362558  0.33892296  1
  H+  H97  1  0.71741331  0.63406344  0.32772819  1
  H+  H98  1  0.77483129  0.38738263  0.15020102  1
  H+  H99  1  0.72552275  0.10165114  0.18353839  1
  H+  H100  1  0.78264882  0.15057307  0.83576654  1
  H+  H101  1  0.35962184  0.88630987  0.50942702  1
  H+  H102  1  0.16864313  0.55685164  0.26244992  1
  H+  H103  1  0.59049392  0.41016878  0.32033620  1
  H+  H104  1  0.10737868  0.96414201  0.33912654  1
  H+  H105  1  0.36025382  0.39353572  0.16103005  1
  H+  H106  1  0.26515752  0.13910482  0.83392845  1
  H+  H107  1  0.64169117  0.02812901  0.67819052  1
  H+  H108  1  0.59282604  0.22069413  0.14840307  1
  H+  H109  1  0.77520553  0.39659869  1.00310912  1
  H+  H110  1  0.13560920  0.86245153  0.84247812  1
  H+  H111  1  0.36013395  -0.01256908  0.82997230  1
  H+  H112  1  0.85809386  0.11070178  0.31804883  1
  H+  H113  1  0.51200704  0.39342336  0.99956183  1
  H+  H114  1  0.88104465  0.11235357  0.51249635  1
  H+  H115  1  0.35408772  0.24627902  0.30793046  1
  H+  H116  1  0.88055912  0.02445514  0.98418757  1
  H+  H117  1  0.09551877  0.67538928  0.09779611  1
  H+  H118  1  0.37198728  0.41306121  0.50494392  1
  H+  H119  1  0.11321640  0.22109283  0.68276972  1
  H+  H120  1  0.38329986  0.53836372  0.51187836  1
  H+  H121  1  0.10189655  0.21903472  1.00029655  1
  H+  H122  1  0.62771449  0.62996678  0.00458070  1
  H+  H123  1  0.89319763  0.26563780  0.66689373  1
  H+  H124  1  0.98501674  0.11688360  0.33435138  1
  H+  H125  1  0.14539247  0.35923283  0.67008494  1
  H+  H126  1  0.33540852  0.24684532  0.01018620  1
  H+  H127  1  0.91925249  0.32192956  0.60580309  1
  H+  H128  1  0.72641059  0.86944354  0.51743685  1
  H+  H129  1  0.33334302  0.18068211  0.44742867  1
  H+  H130  1  0.89495958  0.87280933  0.00178252  1
  H+  H131  1  0.22628285  0.10967559  0.67962066  1
  H+  H132  1  0.73251981  0.11782706  0.50307184  1
  H+  H133  1  0.82386150  0.53527654  0.53486490  1
  H+  H134  1  0.90674881  0.96926161  0.36231264  1
  H+  H135  1  0.13847800  0.86198076  0.67483291  1
  H+  H136  1  0.90391164  0.38402341  0.83235494  1
  H+  H137  1  0.89174841  0.78453965  0.51546426  1
  H+  H138  1  0.10946574  0.88671646  0.50604301  1
  H+  H139  1  0.34212433  0.47285646  0.00740018  1
  H+  H140  1  0.13712147  0.52241213  0.16173216  1
  H+  H141  1  0.08489617  0.35580881  0.00729699  1
  H+  H142  1  0.60538015  0.46611654  0.66878306  1
  H+  H143  1  0.88709939  0.35314420  0.32773533  1
  H+  H144  1  0.63335656  0.62091908  0.83407457  1
  H+  H145  1  0.12615972  0.63544646  0.15580222  1
  H+  H146  1  0.38783794  0.86213741  0.66990944  1
  H+  H147  1  0.23422970  0.61057224  0.66129755  1
  H+  H148  1  0.14380795  0.87583532  0.99056791  1
  H+  H149  1  1.01958866  0.63233872  0.50158091  1
  H+  H150  1  0.88502276  0.53851625  0.82687278  1
  H+  H151  1  0.36988033  0.88964831  0.00326723  1
  H+  H152  1  0.86737311  0.62685071  0.14887874  1
  H+  H153  1  0.13101681  0.63684946  0.67191574  1
  H+  H154  1  0.86131019  0.71163416  0.13348066  1
  H+  H155  1  0.14310580  0.77706594  0.83947086  1
  H+  H156  1  0.42129620  0.82700322  0.31801746  1
  H+  H157  1  0.24046197  0.85519698  0.16523336  1
  H+  H158  1  0.37803969  0.98966729  0.35706771  1
  H+  H159  1  0.61606956  0.89123776  0.51024776  1
  H+  H160  1  0.51921267  0.12827069  0.49641841  1
  H+  H161  1  0.60310841  0.16009573  0.40561501  1
  H+  H162  1  0.14160647  0.71958695  0.32955261  1
  H+  H163  1  0.63373247  0.11279912  0.50863914  1
  H+  H164  1  0.87278338  0.85681721  0.14214529  1
  H+  H165  1  0.63722011  0.53332002  0.82851494  1
  H+  H166  1  0.58210753  0.41787897  0.76130614  1
  H+  H167  1  0.84492163  0.22295627  0.14434735  1
  H+  H168  1  0.36766009  0.64540192  0.15612035  1
  H+  H169  1  0.52918276  0.90128924  0.83495878  1
  H+  H170  1  0.33915254  0.23780573  0.83430653  1
  H+  H171  1  0.72728660  0.86705305  0.84328881  1
  H+  H172  1  0.87249394  0.70112946  0.34737845  1
  H+  H173  1  0.33317360  0.91731035  0.09048634  1
  H+  H174  1  0.85950352  0.22271033  0.49556594  1
  H+  H175  1  0.39210593  0.34285879  0.93005909  1
  H+  H176  1  0.38841806  0.88549780  0.28302351  1
  H+  H177  1  0.72783433  0.86679315  0.66892288  1
  H+  H178  1  0.88207917  0.62664621  0.83965974  1
  H+  H179  1  0.36351614  0.63559107  0.68055426  1
  H+  H180  1  0.77935000  0.37490594  0.33362298  1
  H+  H181  1  0.41805612  0.12265925  0.31975989  1
  H+  H182  1  0.12096765  -0.02220391  0.68701512  1
  H+  H183  1  0.40875461  0.58237994  0.60921947  1
  H+  H184  1  0.63251754  0.37049131  0.83530981  1
  H+  H185  1  0.74160591  0.86592366  0.17339438  1
  H+  H186  1  0.16840767  0.83837017  0.93301595  1
  H+  H187  1  0.14480178  0.36685270  0.51615072  1
  H+  H188  1  0.33486131  0.35940809  0.34985302  1
  H+  H189  1  0.52492825  0.88810667  0.68133770  1
  H+  H190  1  0.90409025  0.29550373  0.83308940  1
  H+  H191  1  0.63228245  0.16079030  0.00754990  1
  H+  H192  1  0.62319118  0.52689744  0.99987711  1
  H+  H193  1  0.11074073  0.25259807  0.32552849  1
  H+  H194  1  0.27365955  0.89433033  0.83546437  1
  H+  H195  1  0.37165552  0.11324651  0.15543854  1
  H+  H196  1  0.02964920  0.64806991  0.81995106  1
  H+  H197  1  0.97879115  1.11189811  0.66489841  1
  H+  H198  1  0.62508868  0.55883749  0.31558741  1
  H+  H199  1  0.51919625  0.63636141  0.83083725  1
  H+  H200  1  0.43473719  0.85284083  0.93522496  1
  H+  H201  1  0.87085371  0.15020833  0.84156071  1
  H+  H202  1  0.60848085  0.66174426  0.34471662  1
  H+  H203  1  0.61220947  0.96545539  0.34756907  1
  H+  H204  1  0.86639245  0.97571084  0.67771740  1
  H+  H205  1  0.35180920  0.22409661  0.16050105  1
  H+  H206  1  0.53480357  0.12972240  -0.00915442  1
  H+  H207  1  0.60785526  0.73467141  0.67785192  1
  H+  H208  1  0.60762406  0.10766921  0.34637158  1
  H+  H209  1  0.15432027  0.86085770  0.32331350  1
  H+  H210  1  0.86444323  0.89110090  0.50931857  1
  H+  H211  1  0.83622469  0.42194912  0.76924959  1
  H+  H212  1  0.85248176  0.37648696  0.00461349  1
  H+  H213  1  0.15752758  0.32480727  0.23301197  1
  H+  H214  1  0.14058467  0.77271497  0.66932151  1
  H+  H215  1  0.24729341  0.15587469  0.00922911  1
  H+  H216  1  0.64064096  1.03315856  0.84288842  1
  H+  H217  1  0.41394493  0.49098252  0.84099965  1
  H+  H218  1  0.01873969  0.89278159  0.00310599  1
  H+  H219  1  0.49748728  0.88621112  -0.00734349  1
  H+  H220  1  0.25955845  0.43080912  0.87965005  1
  H+  H221  1  0.52051120  0.40609831  0.81615294  1
  H+  H222  1  0.33453743  0.67144968  0.73773327  1
  H+  H223  1  0.15650893  0.63862879  0.99750769  1
  H+  H224  1  0.65376567  0.87423873  0.99571267  1
  H+  H225  1  0.41316782  0.01520503  0.97732562  1
  H+  H226  1  0.13503771  1.01625873  0.84250963  1
  H+  H227  1  0.33801415  0.09930489  0.46606723  1
  H+  H228  1  0.36946593  0.47056335  0.68715802  1
  H+  H229  1  0.09481974  0.42181045  0.73211558  1
  H+  H230  1  0.05808731  0.62860784  0.32957763  1
  H+  H231  1  0.76436045  0.14930485  0.33976351  1
  H+  H232  1  0.28011603  0.89129981  0.99917426  1
  H+  H233  1  0.53836086  -0.02180918  0.29624203  1
  H+  H234  1  1.03611335  0.64333707  1.00640907  1
  H+  H235  1  0.86906166  0.93280323  0.19079797  1
  H+  H236  1  0.20354605  0.10400915  0.48775405  1
  H+  H237  1  0.38540195  0.13088052  0.83996529  1
  H+  H238  1  0.39015455  0.01225253  0.68881924  1
  H+  H239  1  0.36988733  0.38205613  0.68229261  1
  H+  H240  1  0.52660787  0.13116387  0.71900102  1
  H+  H241  1  0.07618452  0.15856895  0.74092855  1
  H+  H242  1  0.44563035  0.32553971  0.31877785  1
  H+  H243  1  1.03048023  0.88918598  0.68235871  1
  H+  H244  1  1.01537122  0.89436316  0.13683401  1
  H+  H245  1  0.37611244  0.11833149  0.01720464  1
  H+  H246  1  0.00699294  0.13500666  -0.00326577  1
  H+  H247  1  0.39047468  0.09001021  0.55023223  1
  H+  H248  1  0.07406716  0.16611491  0.09244751  1
  H+  H249  1  0.10258344  0.98677604  0.14803629  1
  H+  H250  1  0.63732870  1.02023187  0.51008781  1
  H+  H251  1  0.27742902  0.40126203  0.50576043  1
  H+  H252  1  0.27201076  0.39426287  0.16508869  1
  H+  H253  1  0.60890922  0.21687690  0.50571311  1
  H+  H254  1  0.63746445  0.28494541  0.83173195  1
  H+  H255  1  0.86467931  0.88604579  0.68018278  1
  H+  H256  1  0.03884750  0.62593159  0.66848235  1
  H+  H257  1  0.46967601  0.61418819  0.66751187  1
  H+  H258  1  0.37362021  0.61019309  -0.01445072  1
  H+  H259  1  0.62328943  0.73082701  0.16213396  1
  H+  H260  1  0.14699364  0.53708726  0.84095949  1
  H+  H261  1  0.70298126  0.61011044  0.67781630  1
  H+  H262  1  0.48008948  0.62126163  0.16972117  1
  H+  H263  1  0.10228784  0.72246706  0.51361589  1
  H+  H264  1  0.03184292  0.38258581  0.67463984  1
  H+  H265  1  0.37786336  0.37531908  0.99402091  1
  H+  H266  1  0.02307668  0.88634487  0.83542185  1
  H+  H267  1  0.39134512  0.78476788  0.51165483  1
  H+  H268  1  0.86748459  0.97643895  0.83306320  1
  H+  H269  1  0.39310141  0.88131873  0.84497295  1
  H+  H270  1  0.41068882  0.31166444  0.50557105  1
  H+  H271  1  0.27932005  0.65401772  0.48974623  1
  H+  H272  1  0.77944168  0.37595835  0.67800053  1
  H+  H273  1  0.57596834  0.67692647  0.77175899  1
  H+  H274  1  0.14550309  0.52068295  0.65821771  1
  H+  H275  1  0.97743797  0.35307260  0.50923825  1
  H+  H276  1  0.88396686  0.36193369  0.16874211  1
  H+  H277  1  0.22879090  0.61216674  0.16273569  1
  H+  H278  1  0.00560674  0.11607738  0.83151128  1
  H+  H279  1  0.20201401  0.33738888  0.33352943  1
  H+  H280  1  0.36375003  0.65860080  0.84011627  1
  H+  H281  1  0.07058085  0.10857462  0.33396480  1
  H+  H282  1  0.43427642  0.84814147  0.21266585  1
  H+  H283  1  0.61442450  0.14377146  0.81369191  1
  H+  H284  1  0.10985867  0.38648637  0.16218495  1
  H+  H285  1  0.81125910  0.59746421  0.34274849  1
  H+  H286  1  0.76120729  0.64698666  0.83593493  1
  H+  H287  1  0.32263078  0.91025092  0.45080583  1
  H+  H288  1  0.63906114  0.86940656  0.66996200  1
  H+  H289  1  0.85058047  0.91475830  0.41885546  1
  H+  H290  1  0.58442257  0.68775441  0.40818795  1
  H+  H291  1  0.34055497  0.67543950  0.09517967  1
  H+  H292  1  0.68166590  0.83975195  0.23321047  1
  H+  H293  1  0.31267288  0.39857804  0.40810974  1
  H+  H294  1  0.21299951  0.11449751  0.17185954  1
  H+  H295  1  0.40646196  0.33055784  0.22607799  1
  H+  H296  1  0.91363810  0.59697794  0.66212480  1
  H+  H297  1  0.59286904  0.67940261  0.06755437  1
  H+  H298  1  0.47061201  0.36141878  0.16829073  1
  H+  H299  1  0.11925769  0.01769029  0.50376630  1
  H+  H300  1  0.33429856  0.17285305  0.74664604  1
  H+  H301  1  0.17858788  0.34010177  0.57476167  1
  H+  H302  1  0.15543976  0.59441647  0.32288949  1
  H+  H303  1  0.90689771  0.81409457  0.18911427  1
  H+  H304  1  0.39113989  0.56528848  0.92794663  1
  H+  H305  1  0.18378538  0.60907385  0.93745682  1
  H+  H306  1  0.65607515  0.79140079  0.33819342  1
  H+  H307  1  0.30920203  0.17317272  0.10044243  1
  H+  H308  1  0.39257387  0.77757401  0.15920822  1
  H+  H309  1  0.05187470  0.14132980  0.42764417  1
  H+  H310  1  0.64087256  0.26864398  0.68517849  1
  H+  H311  1  0.92330177  0.65911477  0.74882053  1
  H+  H312  1  0.98297337  0.60927663  0.16864577  1
  H+  H313  1  0.27187523  0.65035218  0.83296375  1
  H+  H314  1  0.08226407  0.91208298  0.77455154  1
  H+  H315  1  0.93370135  0.57074460  0.26284394  1
  H+  H316  1  0.33135832  0.91179618  0.74589107  1
  H+  H317  1  0.14121907  0.62358559  0.83900235  1
  H+  H318  1  0.53330216  0.88156581  0.14791260  1
  H+  H319  1  0.11800772  0.73994880  1.01071034  1
  H+  H320  1  0.90880752  0.32435257  0.22671318  1
  H+  H321  1  0.78184743  0.13102077  0.04864013  1
  H+  H322  1  0.21641898  0.35256172  0.00462502  1
  H+  H323  1  0.91567061  0.08738492  0.57359969  1
  H+  H324  1  0.44043872  0.07749126  0.91886227  1
  H+  H325  1  0.61623227  0.64907601  0.50145210  1
  H+  H326  1  0.38041962  0.90464253  0.36827385  1
  H+  H327  1  0.13197493  0.06901375  0.25889012  1
  H+  H328  1  0.65021764  0.89365849  0.35797666  1
  H+  H329  1  0.67725600  0.59276031  0.21839169  1
  H+  H330  1  0.08514721  0.91178602  0.44164675  1
  H+  H331  1  0.85994930  0.22997527  0.33789083  1
  H+  H332  1  0.36814452  0.65674494  0.49484308  1
  H+  H333  1  0.88636926  0.34909115  0.50862130  1
  H+  H334  1  0.58436863  0.91925196  0.74129428  1
  H+  H335  1  0.84451457  0.92963346  0.06872460  1
  H+  H336  1  0.86161324  0.97918048  0.50468397  1
  H+  H337  1  0.03339386  0.86876530  0.34858582  1
  H+  H338  1  0.10375778  0.45819169  0.33692580  1
  H+  H339  1  0.24512203  0.86804050  0.32807613  1
  H+  H340  1  0.13569370  0.10583493  0.67799026  1
  H+  H341  1  0.03874025  0.40270034  0.82246260  1
  H+  H342  1  0.42210853  0.84081907  0.57369323  1
  H+  H343  1  0.66787870  0.84050686  0.57800310  1
  H+  H344  1  0.07563411  0.40801662  0.43704513  1
  H+  H345  1  0.82438203  0.16368759  0.43471503  1
  H+  H346  1  0.41848869  0.61748323  0.26577085  1
  H+  H347  1  0.44805391  0.08252550  0.64034143  1
  H+  H348  1  0.66550975  0.31595902  0.21615294  1
  H+  H349  1  0.38946029  0.77433584  0.66617015  1
  H+  H350  1  0.41439249  0.32644295  0.60948302  1
  H+  H351  1  0.90213843  0.07920859  0.92249684  1
  H+  H352  1  0.37738755  0.02398145  0.15461058  1
  H+  H353  1  0.15207456  0.07775345  0.92845828  1
  H+  H354  1  0.60695420  0.92916101  0.06362217  1
  H+  H355  1  0.47152867  0.12763009  0.82653051  1
  H+  H356  1  0.62397045  0.43395027  0.46695168  1
  H+  H357  1  0.10295617  0.20471886  0.83670817  1
  H+  H358  1  0.37351804  0.73203652  0.39748885  1
  H+  H359  1  0.32512846  0.42082584  0.07091145  1
  H+  H360  1  0.30166098  0.11379231  0.36499684  1
  H+  H361  1  0.91455215  0.81486600  0.28935124  1
  H+  H362  1  0.15845532  0.83557395  0.58162998  1
  H+  H363  1  0.09368748  0.67093107  0.76373496  1
  H+  H364  1  0.66671368  0.59490713  0.61041972  1
  H+  H365  1  0.84609246  0.66741977  0.44463123  1
  H+  H366  1  0.82630042  0.65018763  0.04852920  1
  H+  H367  1  0.92289324  0.83364607  0.61054538  1
  H+  H368  1  0.06006601  0.39171509  0.06440291  1
  H+  H369  1  0.17648591  0.58277376  0.56207086  1
  H+  H370  1  0.83293396  0.70406330  0.78654751  1
  H+  H371  1  0.66037086  0.25014111  0.31473252  1
  H+  H372  1  0.67011942  0.31457830  0.58260559  1
  H+  H373  1  0.56479242  0.16164370  0.08652931  1
  H+  H374  1  0.56040175  0.34873558  0.37604070  1
  H+  H375  1  0.61037562  0.47062212  0.15429869  1
  H+  H376  1  0.17379586  0.33068010  0.94002227  1
  H+  H377  1  0.92422244  0.84536035  0.94065404  1
  H+  H378  1  0.57378824  0.41151514  0.09587724  1
  H+  H379  1  0.89841676  0.08676133  0.21395770  1
  H+  H380  1  0.36637430  0.13385346  0.69416654  1
  H+  H381  1  0.66079484  0.34163078  0.93119353  1
  H+  H382  1  0.90684539  0.55639329  0.57207822  1
  H+  H383  1  0.83428360  0.91216842  0.77619743  1
  O2-  O384  1  0.07606599  0.16837084  0.13794794  1
  O2-  O385  1  0.06192321  0.14549627  0.47325999  1
  O2-  O386  1  0.07413708  0.14759858  0.81871413  1
  O2-  O387  1  0.08069521  0.41690731  0.14551414  1
  O2-  O388  1  0.07717153  0.40966942  0.48255930  1
  O2-  O389  1  0.10260296  0.43481949  0.81068416  1
  O2-  O390  1  0.09863535  0.67273361  0.14466519  1
  O2-  O391  1  0.08181498  0.66305256  0.49943524  1
  O2-  O392  1  0.09155894  0.67524799  0.80911472  1
  O2-  O393  1  0.07786640  0.92956190  0.12720806  1
  O2-  O394  1  0.07941953  0.91549361  0.48633754  1
  O2-  O395  1  0.08377707  0.91287290  0.82041830  1
  O2-  O396  1  0.31746797  0.16375217  0.14527158  1
  O2-  O397  1  0.30223080  0.11841951  0.44273803  1
  O2-  O398  1  0.32601553  0.17849182  0.82096205  1
  O2-  O399  1  0.33209268  0.42705463  0.14931304  1
  O2-  O400  1  0.33759681  0.43609667  0.48718605  1
  O2-  O401  1  0.41490756  0.40373373  0.81896540  1
  O2-  O402  1  0.33636457  0.67494958  0.14102758  1
  O2-  O403  1  0.34173725  0.69051107  0.47958147  1
  O2-  O404  1  0.33427702  0.68326956  0.81806952  1
  O2-  O405  1  0.33426031  0.91737165  0.13669240  1
  O2-  O406  1  0.32401278  0.91255489  0.49609440  1
  O2-  O407  1  0.33433103  0.92515902  0.81987806  1
  O2-  O408  1  0.55570251  0.16005512  0.13259728  1
  O2-  O409  1  0.58171898  0.15792747  0.48705660  1
  O2-  O410  1  0.58489391  0.17474632  0.79770762  1
  O2-  O411  1  0.57764298  0.40937240  0.14136427  1
  O2-  O412  1  0.61291861  0.42816151  0.51057615  1
  O2-  O413  1  0.58083886  0.42362795  0.80644925  1
  O2-  O414  1  0.58899957  0.67223777  0.14377499  1
  O2-  O415  1  0.58508344  0.67749792  0.48595638  1
  O2-  O416  1  0.57863115  0.67614731  0.81724933  1
  O2-  O417  1  0.59597649  0.91177982  0.13780008  1
  O2-  O418  1  0.58830276  0.92294932  0.49104160  1
  O2-  O419  1  0.59028184  0.93179955  0.82034721  1
  O2-  O420  1  0.81116608  0.16226998  0.13038817  1
  O2-  O421  1  0.82281057  0.16110169  0.48016930  1
  O2-  O422  1  0.84356366  0.18029156  0.82213208  1
  O2-  O423  1  0.83650806  0.41953203  0.13920345  1
  O2-  O424  1  0.82315575  0.39200713  0.48045970  1
  O2-  O425  1  0.83669471  0.43304065  0.81368692  1
  O2-  O426  1  0.83102676  0.64787159  0.12956648  1
  O2-  O427  1  0.84759131  0.67936758  0.48885861  1
  O2-  O428  1  0.82783662  0.68443955  0.82847031  1
  O2-  O429  1  0.83756337  0.91508877  0.15246578  1
  O2-  O430  1  0.83323948  0.91830432  0.48966919  1
  O2-  O431  1  0.83393116  0.91230088  0.82143042  1
  O2-  O432  1  0.15088825  0.08326518  0.18455372  1
  O2-  O433  1  0.14773920  0.08200597  0.50821713  1
  O2-  O434  1  0.16233545  0.07702658  0.85755804  1
  O2-  O435  1  0.16409967  0.33367903  0.18800248  1
  O2-  O436  1  0.18285827  0.34520654  0.52989785  1
  O2-  O437  1  0.22421832  0.37040279  0.86876711  1
  O2-  O438  1  0.16754197  0.58364370  0.17642411  1
  O2-  O439  1  0.17354280  0.58271323  0.51684953  1
  O2-  O440  1  0.17555709  0.59807414  0.85519576  1
  O2-  O441  1  0.18150860  0.81790108  0.18450649  1
  O2-  O442  1  0.15435884  0.83438252  0.53593979  1
  O2-  O443  1  0.17020929  0.83609456  0.85730528  1
  O2-  O444  1  0.40755962  0.08616469  0.16664318  1
  O2-  O445  1  0.40209467  0.07699697  0.50946420  1
  O2-  O446  1  0.41455543  0.09633592  0.84599933  1
  O2-  O447  1  0.40907329  0.33255694  0.18089576  1
  O2-  O448  1  0.43893483  0.36196309  0.53166284  1
  O2-  O449  1  0.34904205  0.33148318  0.85667680  1
  O2-  O450  1  0.42027997  0.59634981  0.18498275  1
  O2-  O451  1  0.41358731  0.59800642  0.52969345  1
  O2-  O452  1  0.40812832  0.54410884  0.84451068  1
  O2-  O453  1  0.42779902  0.84154702  0.16788773  1
  O2-  O454  1  0.42401589  0.84589605  0.52813764  1
  O2-  O455  1  0.42480139  0.85122056  0.85777911  1
  O2-  O456  1  0.67768608  0.05472857  0.20686430  1
  O2-  O457  1  0.66945750  0.08488433  0.52010514  1
  O2-  O458  1  0.67175281  0.09779371  0.85099666  1
  O2-  O459  1  0.65905930  0.31967518  0.17157467  1
  O2-  O460  1  0.66610245  0.31743855  0.53703477  1
  O2-  O461  1  0.66556132  0.34291444  0.84991815  1
  O2-  O462  1  0.67127355  0.58144008  0.17447277  1
  O2-  O463  1  0.68104291  0.60223517  0.53515948  1
  O2-  O464  1  0.66818373  0.59345396  0.84337650  1
  O2-  O465  1  0.67870427  0.83403142  0.18867642  1
  O2-  O466  1  0.66577548  0.84103866  0.53195724  1
  O2-  O467  1  0.66722316  0.84209426  0.85918635  1
  O2-  O468  1  0.90477257  0.08816768  0.16927993  1
  O2-  O469  1  0.91314051  0.08415443  0.52732644  1
  O2-  O470  1  0.91834500  0.07734970  0.84125125  1
  O2-  O471  1  0.91030694  0.32700890  0.18165308  1
  O2-  O472  1  0.91574266  0.31828912  0.52386794  1
  O2-  O473  1  0.94123737  0.35850483  0.83430855  1
  O2-  O474  1  0.92348767  0.58009011  0.18455482  1
  O2-  O475  1  0.88445532  0.55403860  0.52884067  1
  O2-  O476  1  0.92063212  0.60264460  0.83271575  1
  O2-  O477  1  0.90601044  0.82161611  0.14538373  1
  O2-  O478  1  0.91977964  0.84347252  0.53284092  1
  O2-  O479  1  0.92530598  0.84621584  0.86666272  1
  O2-  O480  1  0.12760876  0.06472103  0.30491482  1
  O2-  O481  1  0.16564100  0.07402498  0.66679519  1
  O2-  O482  1  0.14550279  0.07614326  0.97470141  1
  O2-  O483  1  0.14450393  0.31284376  0.31227874  1
  O2-  O484  1  0.17412942  0.32623235  0.65770679  1
  O2-  O485  1  0.15887722  0.31898837  0.98385139  1
  O2-  O486  1  0.16705240  0.54931956  0.30680456  1
  O2-  O487  1  0.17509406  0.58150605  0.64359716  1
  O2-  O488  1  0.19155172  0.61429372  0.98200602  1
  O2-  O489  1  0.18943159  0.83744598  0.30626154  1
  O2-  O490  1  0.17085263  0.83462468  0.65739073  1
  O2-  O491  1  0.17161902  0.84259915  0.97873889  1
  O2-  O492  1  0.43965111  0.08315331  0.32603719  1
  O2-  O493  1  0.42880743  0.07715902  0.68226246  1
  O2-  O494  1  0.46235721  0.06195977  0.95519776  1
  O2-  O495  1  0.38797024  0.30933058  0.30380176  1
  O2-  O496  1  0.41672472  0.32506271  0.65436049  1
  O2-  O497  1  0.40697716  0.34610487  0.97435709  1
  O2-  O498  1  0.41739537  0.62669509  0.31010457  1
  O2-  O499  1  0.40850343  0.57789116  0.65465224  1
  O2-  O500  1  0.38495968  0.56390096  0.97215330  1
  O2-  O501  1  0.43959124  0.88124184  0.29038324  1
  O2-  O502  1  0.42018569  0.83557014  0.65211410  1
  O2-  O503  1  0.43621579  0.85227282  0.98073420  1
  O2-  O504  1  0.59893415  0.02111607  0.30760889  1
  O2-  O505  1  0.67445090  0.09094321  0.66990014  1
  O2-  O506  1  0.65384958  0.10311482  0.91585441  1
  O2-  O507  1  0.68188531  0.30772952  0.29579840  1
  O2-  O508  1  0.66892801  0.32132546  0.65987769  1
  O2-  O509  1  0.65950278  0.34391518  0.97642049  1
  O2-  O510  1  0.66661484  0.61692869  0.30255628  1
  O2-  O511  1  0.64987984  0.58165264  0.65450057  1
  O2-  O512  1  0.65478252  0.58925733  0.98708449  1
  O2-  O513  1  0.69463071  0.85274163  0.32362735  1
  O2-  O514  1  0.66754027  0.83779421  0.65299677  1
  O2-  O515  1  0.68232796  0.84152651  0.98185635  1
  O2-  O516  1  0.88355613  0.07706255  0.29938131  1
  O2-  O517  1  0.91833560  0.08139540  0.64807867  1
  O2-  O518  1  0.89985824  0.08294956  0.96750342  1
  O2-  O519  1  0.91292702  0.31951061  0.31110566  1
  O2-  O520  1  0.92223876  0.32620020  0.65097121  1
  O2-  O521  1  0.88383246  0.31140284  0.98408399  1
  O2-  O522  1  0.93935366  0.56479003  0.30774011  1
  O2-  O523  1  0.93277498  0.56083201  0.64097441  1
  O2-  O524  1  0.94801050  0.58123764  0.97026719  1
  O2-  O525  1  0.91636723  0.80758974  0.33310562  1
  O2-  O526  1  0.92354650  0.83406168  0.65614363  1
  O2-  O527  1  0.92566738  0.84262165  0.98653212  1
  O2-  O528  1  0.06591116  0.15665271  0.01339478  1
  O2-  O529  1  0.04168380  0.13736576  0.35420597  1
  O2-  O530  1  0.07713045  0.15963258  0.69539903  1
  O2-  O531  1  0.04622953  0.37649566  0.02108992  1
  O2-  O532  1  0.06771175  0.39931537  0.35698686  1
  O2-  O533  1  0.09347242  0.41580706  0.68685751  1
  O2-  O534  1  0.09289771  0.68081261  0.02778101  1
  O2-  O535  1  0.11755100  0.66046565  0.34443408  1
  O2-  O536  1  0.09644558  0.66358702  0.68650258  1
  O2-  O537  1  0.08334545  0.92949529  0.01583393  1
  O2-  O538  1  0.09409103  0.90903370  0.35898008  1
  O2-  O539  1  0.08911721  0.91425884  0.69976565  1
  O2-  O540  1  0.29275455  0.19863855  0.03564085  1
  O2-  O541  1  0.30525468  0.13140154  0.32133873  1
  O2-  O542  1  0.33726681  0.16733123  0.70105747  1
  O2-  O543  1  0.31842138  0.41369775  0.02584645  1
  O2-  O544  1  0.29528357  0.37711811  0.36607196  1
  O2-  O545  1  0.34485821  0.41222014  0.70529879  1
  O2-  O546  1  0.34892072  0.68199624  0.01993299  1
  O2-  O547  1  0.39740326  0.75091997  0.35634033  1
  O2-  O548  1  0.33525645  0.66950238  0.69254341  1
  O2-  O549  1  0.33932402  0.92072894  0.01658709  1
  O2-  O550  1  0.34221113  0.92847799  0.37249466  1
  O2-  O551  1  0.33448868  0.91266449  0.69998367  1
  O2-  O552  1  0.58718049  0.17419099  0.01658972  1
  O2-  O553  1  0.60622108  0.15975838  0.36060408  1
  O2-  O554  1  0.58895446  0.16824541  0.73098004  1
  O2-  O555  1  0.57156883  0.42258870  0.01721562  1
  O2-  O556  1  0.55830558  0.34967119  0.33175185  1
  O2-  O557  1  0.58300233  0.40654148  0.68320806  1
  O2-  O558  1  0.59672448  0.67802902  0.02209620  1
  O2-  O559  1  0.58717763  0.69735722  0.36304955  1
  O2-  O560  1  0.57335190  0.67449032  0.69400341  1
  O2-  O561  1  0.61109040  0.93623087  0.01806314  1
  O2-  O562  1  0.61244335  0.91710345  0.37481281  1
  O2-  O563  1  0.58577443  0.91760618  0.69587680  1
  O2-  O564  1  0.77221924  0.11511953  0.00483794  1
  O2-  O565  1  0.82217706  0.16767134  0.35451306  1
  O2-  O566  1  0.84096977  0.16474998  0.69635912  1
  O2-  O567  1  0.83463370  0.41958108  0.01811373  1
  O2-  O568  1  0.83456128  0.40480933  0.35654676  1
  O2-  O569  1  0.84078775  0.40764822  0.69087233  1
  O2-  O570  1  0.81669901  0.66057934  0.00575562  1
  O2-  O571  1  0.85308498  0.64462961  0.36781725  1
  O2-  O572  1  0.89130661  0.66055441  0.71270200  1
  O2-  O573  1  0.84515420  0.92684631  0.02380368  1
  O2-  O574  1  0.86028374  0.91191445  0.37313848  1
  O2-  O575  1  0.83365580  0.91570462  0.69390959  1
