# generated using pymatgen
data_H2O
_symmetry_space_group_name_H-M   'P 1'
_cell_length_a   17.99799750
_cell_length_b   17.98822660
_cell_length_c   22.00289733
_cell_angle_alpha   89.99943820
_cell_angle_beta   90.01963902
_cell_angle_gamma   119.99528301
_symmetry_Int_Tables_number   1
_chemical_formula_structural   H2O
_chemical_formula_sum   'H384 O192'
_cell_volume   6169.41021772
_cell_formula_units_Z   192
loop_
 _symmetry_equiv_pos_site_id
 _symmetry_equiv_pos_as_xyz
  1  'x, y, z'
loop_
 _atom_type_symbol
 _atom_type_oxidation_number
  H+  1.0
  O2-  -2.0
loop_
 _atom_site_type_symbol
 _atom_site_label
 _atom_site_symmetry_multiplicity
 _atom_site_fract_x
 _atom_site_fract_y
 _atom_site_fract_z
 _atom_site_occupancy
  H+  H0  1  0.57522607  0.16444860  0.73790964  1
  H+  H1  1  0.15339513  0.88852802  0.10415377  1
  H+  H2  1  0.88432127  0.84037503  0.22798087  1
  H+  H3  1  0.87235871  0.01221980  0.32524242  1
  H+  H4  1  0.21927369  0.37204931  1.00144301  1
  H+  H5  1  0.38232146  0.52071915  0.49481441  1
  H+  H6  1  0.86590183  0.01140147  0.65729325  1
  H+  H7  1  0.60840030  0.14475469  0.81533173  1
  H+  H8  1  0.91363242  0.57554370  0.74821372  1
  H+  H9  1  0.35649967  0.26303595  0.67275277  1
  H+  H10  1  0.49301102  0.62476088  0.84641993  1
  H+  H11  1  0.40379594  0.68069592  0.00445336  1
  H+  H12  1  0.14755488  0.86610565  0.51486003  1
  H+  H13  1  0.51763581  0.39273094  0.82061496  1
  H+  H14  1  0.08845756  -0.04273967  0.83352014  1
  H+  H15  1  0.80256709  0.74534215  0.45284776  1
  H+  H16  1  0.86666505  0.73356074  0.83727792  1
  H+  H17  1  0.34759345  0.89149408  0.15235038  1
  H+  H18  1  0.34229227  0.38055381  0.67909565  1
  H+  H19  1  0.96604435  0.86829875  0.26414332  1
  H+  H20  1  0.21821440  0.63113988  0.16392530  1
  H+  H21  1  0.83793246  0.11717380  0.67532570  1
  H+  H22  1  0.84938004  0.21233033  0.33063560  1
  H+  H23  1  0.94250812  0.34244146  0.51745128  1
  H+  H24  1  0.15050418  0.30732224  0.16744219  1
  H+  H25  1  0.93915420  0.64883025  -0.02351649  1
  H+  H26  1  0.75525197  0.37890993  0.83193299  1
  H+  H27  1  0.54864106  0.67961976  0.15700611  1
  H+  H28  1  0.16266677  0.09829407  0.34244037  1
  H+  H29  1  0.36041827  0.22344592  0.82736375  1
  H+  H30  1  0.55244512  0.53624398  0.05104677  1
  H+  H31  1  0.48029505  0.83976275  -0.00258683  1
  H+  H32  1  0.97153869  0.59446239  0.68920107  1
  H+  H33  1  0.27539255  0.39900494  0.83044998  1
  H+  H34  1  0.64037011  0.27405803  0.32288712  1
  H+  H35  1  0.63447042  0.36296119  0.16803340  1
  H+  H36  1  0.11148990  0.47545778  -0.00030237  1
  H+  H37  1  0.89756261  0.02310995  0.50196783  1
  H+  H38  1  0.00288559  0.36494135  0.67177773  1
  H+  H39  1  0.12924061  0.27098171  0.65496648  1
  H+  H40  1  0.24304443  0.57886458  0.96564813  1
  H+  H41  1  0.38155790  0.27658080  0.32469769  1
  H+  H42  1  0.63399965  0.77480597  0.34135537  1
  H+  H43  1  0.66678557  0.10438343  0.59014180  1
  H+  H44  1  0.37855827  1.00523313  0.31179478  1
  H+  H45  1  0.91855669  1.00585080  0.81037926  1
  H+  H46  1  0.36806723  0.77855588  0.16167402  1
  H+  H47  1  0.23823150  0.61791484  0.50374150  1
  H+  H48  1  0.10569193  0.85253971  0.84232373  1
  H+  H49  1  0.60618851  -0.04530211  0.77822879  1
  H+  H50  1  0.71787775  0.10233064  0.97580608  1
  H+  H51  1  0.81566362  0.63816897  0.00415687  1
  H+  H52  1  0.46135042  0.09659170  0.50951258  1
  H+  H53  1  0.66427387  0.55004282  0.16317697  1
  H+  H54  1  0.48305991  0.85909979  0.79684202  1
  H+  H55  1  0.10470703  -0.00419022  0.20720083  1
  H+  H56  1  0.57365884  0.15110566  1.06373375  1
  H+  H57  1  0.86308483  0.25092724  0.50061250  1
  H+  H58  1  0.14102873  -0.00572578  0.51660451  1
  H+  H59  1  0.09809629  0.20635782  0.34149975  1
  H+  H60  1  0.10010361  0.90971893  0.18822618  1
  H+  H61  1  0.88929398  0.61018795  0.48734226  1
  H+  H62  1  0.62759055  0.23718778  0.98676687  1
  H+  H63  1  0.62298801  0.86348037  0.67424482  1
  H+  H64  1  0.37011270  0.88668281  0.67503992  1
  H+  H65  1  0.87396696  0.52098897  0.83206985  1
  H+  H66  1  0.77209372  0.64111354  0.66968719  1
  H+  H67  1  0.62383129  0.13939026  0.33653040  1
  H+  H68  1  0.77555637  0.38337100  0.01956638  1
  H+  H69  1  0.13403679  0.60571690  0.82805696  1
  H+  H70  1  0.27930254  0.88370989  0.67710677  1
  H+  H71  1  1.00224970  0.13719090  0.49682432  1
  H+  H72  1  0.37438937  0.11151292  -0.01008882  1
  H+  H73  1  0.56883845  0.66683248  0.38669247  1
  H+  H74  1  0.76145417  0.12950192  0.49619444  1
  H+  H75  1  0.22222624  0.10278932  0.83729770  1
  H+  H76  1  0.60620242  0.38270161  0.33744598  1
  H+  H77  1  0.12421271  0.50483410  0.65748370  1
  H+  H78  1  0.26632809  0.90494906  0.14060415  1
  H+  H79  1  0.92201095  0.79431500  0.50058554  1
  H+  H80  1  0.40452867  0.41736412  0.00877734  1
  H+  H81  1  0.37927271  0.54229180  0.98495878  1
  H+  H82  1  0.63280313  1.01127569  0.31963622  1
  H+  H83  1  0.43130469  0.09011195  0.89079298  1
  H+  H84  1  0.23505447  0.12084010  0.53532547  1
  H+  H85  1  0.28549729  0.12824519  0.35844635  1
  H+  H86  1  0.54323294  0.39109234  0.15977968  1
  H+  H87  1  0.62532505  0.26133493  0.16990929  1
  H+  H88  1  0.48190147  0.86426637  0.66974951  1
  H+  H89  1  0.11301380  0.08200159  0.68156793  1
  H+  H90  1  0.17490305  0.78057661  -0.01956089  1
  H+  H91  1  0.88124176  0.26886773  0.84237464  1
  H+  H92  1  0.25901632  0.12296392  0.68280090  1
  H+  H93  1  0.47246934  0.87228814  0.50629007  1
  H+  H94  1  0.27264320  0.86675451  0.33421149  1
  H+  H95  1  0.39526725  0.61416224  0.65613245  1
  H+  H96  1  0.22504415  0.12764979  0.99322161  1
  H+  H97  1  0.14319076  0.37128797  0.49724146  1
  H+  H98  1  0.99735840  0.10802381  0.68360400  1
  H+  H99  1  0.19661985  0.60128392  0.23348159  1
  H+  H100  1  0.38010682  0.36561676  0.83534143  1
  H+  H101  1  0.70141479  0.78512579  0.84351410  1
  H+  H102  1  0.82460250  0.16233116  0.77528067  1
  H+  H103  1  0.63311704  0.53830026  0.49480667  1
  H+  H104  1  -0.05867028  0.09160525  0.17054723  1
  H+  H105  1  0.06292193  0.94570778  0.35006644  1
  H+  H106  1  0.38882788  0.98686493  0.82390945  1
  H+  H107  1  0.64788207  0.88992142  0.15689929  1
  H+  H108  1  0.37292025  0.52790038  0.30592954  1
  H+  H109  1  0.71553713  0.19046053  0.54000440  1
  H+  H110  1  0.10259114  0.37872853  0.82558432  1
  H+  H111  1  0.18474478  0.16443201  0.19378015  1
  H+  H112  1  1.00892644  0.59377206  0.34028809  1
  H+  H113  1  0.08317998  0.17252351  0.15900388  1
  H+  H114  1  0.10671985  0.23048696  1.00613446  1
  H+  H115  1  0.37358387  0.65037829  0.83495746  1
  H+  H116  1  0.51945803  0.66271780  -0.00018710  1
  H+  H117  1  0.26919211  0.73678833  0.08730102  1
  H+  H118  1  0.90694297  0.90582949  0.49043452  1
  H+  H119  1  0.08202978  0.50007912  0.15717497  1
  H+  H120  1  0.37155333  0.13555846  0.15498003  1
  H+  H121  1  0.05112742  0.07551704  0.14085318  1
  H+  H122  1  0.06413799  0.39701076  0.73101002  1
  H+  H123  1  0.82311776  0.39616354  0.38971217  1
  H+  H124  1  0.88387249  0.51923768  0.48476653  1
  H+  H125  1  0.12807063  0.00141440  0.67872705  1
  H+  H126  1  0.76496892  0.39669491  0.48707274  1
  H+  H127  1  0.07655274  0.16127795  0.77995112  1
  H+  H128  1  0.64543470  0.40585086  0.51235572  1
  H+  H129  1  0.49343420  0.12651856  0.82905100  1
  H+  H130  1  0.16777392  0.56510481  0.59951598  1
  H+  H131  1  0.47506692  0.36076888  0.33166229  1
  H+  H132  1  0.59304032  0.53531948  1.04561592  1
  H+  H133  1  0.76280810  0.36964189  0.67883352  1
  H+  H134  1  0.12079908  0.76985217  0.82938465  1
  H+  H135  1  -0.03091822  0.11173295  -0.01032152  1
  H+  H136  1  0.72586749  0.36330484  0.31596393  1
  H+  H137  1  0.93588137  0.45164012  0.13826932  1
  H+  H138  1  0.38519884  1.02399836  0.15550361  1
  H+  H139  1  1.01961202  0.63367985  0.81224031  1
  H+  H140  1  0.52276275  0.88168864  0.33795042  1
  H+  H141  1  0.13417271  0.12091894  -0.01314342  1
  H+  H142  1  0.64767424  0.78436820  0.98616547  1
  H+  H143  1  0.12949200  0.37026074  1.00223911  1
  H+  H144  1  0.11715312  0.13775746  0.83522697  1
  H+  H145  1  -0.01737634  0.12405806  0.84934481  1
  H+  H146  1  0.59871730  0.73840735  0.69275864  1
  H+  H147  1  0.64060746  0.52346681  0.83955861  1
  H+  H148  1  0.40139291  0.88229938  0.81807779  1
  H+  H149  1  0.24736469  0.12974382  0.17978442  1
  H+  H150  1  0.52256412  0.39783193  0.49666085  1
  H+  H151  1  0.32742172  0.15931423  0.73646719  1
  H+  H152  1  0.74898715  0.11323644  0.32422297  1
  H+  H153  1  0.35322928  0.96693492  0.49353035  1
  H+  H154  1  0.40037180  0.53648834  0.83808083  1
  H+  H155  1  0.87412747  0.45806802  0.33545983  1
  H+  H156  1  0.84044385  0.20692253  0.67633566  1
  H+  H157  1  0.62389457  0.88481091  0.99785612  1
  H+  H158  1  0.51529058  0.13101098  0.67497321  1
  H+  H159  1  0.13490323  0.82611474  0.30782677  1
  H+  H160  1  0.62630594  0.02307715  0.16241880  1
  H+  H161  1  0.83782198  0.64648129  0.30736689  1
  H+  H162  1  0.36469473  0.50374097  0.65399240  1
  H+  H163  1  0.72533828  0.62185562  0.49215026  1
  H+  H164  1  0.11777566  0.72416416  0.50047710  1
  H+  H165  1  0.22080762  0.34127036  0.31576341  1
  H+  H166  1  0.11882327  -0.00484970  1.01141070  1
  H+  H167  1  0.62319055  0.63959118  0.84039961  1
  H+  H168  1  0.87713681  0.10222203  0.50287017  1
  H+  H169  1  0.98628221  0.86735737  0.98702453  1
  H+  H170  1  0.51855111  0.13443573  0.15618188  1
  H+  H171  1  0.49905334  0.37158756  0.99010431  1
  H+  H172  1  0.62497144  0.25571159  0.66525908  1
  H+  H173  1  0.57250328  0.64059078  0.69160443  1
  H+  H174  1  0.40036044  0.64021733  0.15945029  1
  H+  H175  1  0.59703309  0.73270324  0.48919493  1
  H+  H176  1  0.64293694  0.53092633  0.65535570  1
  H+  H177  1  0.61943565  0.26223278  0.82431480  1
  H+  H178  1  0.37976131  0.60788465  0.49890145  1
  H+  H179  1  0.26083223  0.37079349  0.48500962  1
  H+  H180  1  0.91034001  0.63397482  0.18507709  1
  H+  H181  1  0.60830048  0.59887269  0.32319402  1
  H+  H182  1  0.61054910  0.99339063  0.49253409  1
  H+  H183  1  0.85330396  0.45759539  0.69149972  1
  H+  H184  1  0.71853492  0.44205363  0.56186046  1
  H+  H185  1  0.85484559  0.22100838  -0.00035328  1
  H+  H186  1  0.57484188  0.41758959  0.43251862  1
  H+  H187  1  0.63943271  0.75910860  0.14739542  1
  H+  H188  1  0.77819832  0.88091371  0.34970600  1
  H+  H189  1  0.13357344  0.70748475  0.34474348  1
  H+  H190  1  0.18391042  0.41683508  0.12398585  1
  H+  H191  1  0.87533243  0.33836504  0.32464271  1
  H+  H192  1  0.62323583  0.11348273  0.66203602  1
  H+  H193  1  0.71289193  0.10713025  0.66264775  1
  H+  H194  1  0.14104608  0.27693673  0.84425729  1
  H+  H195  1  0.60909896  0.13607968  0.15819638  1
  H+  H196  1  0.87801852  0.35725648  0.84535105  1
  H+  H197  1  0.86812537  0.34307579  0.66532158  1
  H+  H198  1  0.61714744  0.39005740  0.67198604  1
  H+  H199  1  0.39293701  0.77717419  0.82726327  1
  H+  H200  1  0.14351165  0.49494811  0.47696347  1
  H+  H201  1  0.50468258  0.63914511  0.32907359  1
  H+  H202  1  0.01364287  0.87943307  0.51286481  1
  H+  H203  1  0.55111133  0.00960452  0.84518616  1
  H+  H204  1  0.89083407  0.73629896  0.00305258  1
  H+  H205  1  0.86379815  0.88711164  0.32032869  1
  H+  H206  1  0.33153238  0.67339588  0.42978698  1
  H+  H207  1  0.52223135  0.88881269  0.14559678  1
  H+  H208  1  0.88585158  0.36154764  -0.00317358  1
  H+  H209  1  0.40983070  0.07297698  0.22060776  1
  H+  H210  1  0.01819978  0.38792678  0.00496988  1
  H+  H211  1  0.60916568  -0.03494254  0.99004476  1
  H+  H212  1  0.28610347  0.23887944  0.04767633  1
  H+  H213  1  0.34419573  0.63141206  0.33048011  1
  H+  H214  1  0.61208758  0.88441016  0.35494941  1
  H+  H215  1  0.66487179  0.63790511  0.16007769  1
  H+  H216  1  0.69870776  0.60605714  0.31615538  1
  H+  H217  1  0.14428933  0.76686290  0.66194194  1
  H+  H218  1  0.99331198  0.86608038  0.83628746  1
  H+  H219  1  0.00128363  0.05348186  0.73710047  1
  H+  H220  1  0.38211398  0.76973638  0.31902006  1
  H+  H221  1  0.58412853  0.21020425  0.48794116  1
  H+  H222  1  0.02258119  0.36181514  0.33083611  1
  H+  H223  1  0.73971800  0.86797805  0.99652341  1
  H+  H224  1  0.86635842  0.14109818  0.83131354  1
  H+  H225  1  0.36802036  0.73305384  0.48973068  1
  H+  H226  1  0.38438414  0.23049213  0.16461751  1
  H+  H227  1  0.17411679  0.56832612  0.91723176  1
  H+  H228  1  0.51911298  0.76911269  0.55039786  1
  H+  H229  1  0.00113129  0.12733927  0.34355196  1
  H+  H230  1  0.85397384  0.88132373  0.66442429  1
  H+  H231  1  0.13698119  0.80371639  -0.09487623  1
  H+  H232  1  0.25761005  0.38954893  0.67608823  1
  H+  H233  1  0.60538439  0.13598119  0.49888503  1
  H+  H234  1  0.92582028  0.59528203  0.35864153  1
  H+  H235  1  0.09931663  0.23358069  0.49219671  1
  H+  H236  1  0.07071152  0.89401897  0.74415318  1
  H+  H237  1  0.02269083  0.46123118  0.56339830  1
  H+  H238  1  0.83798779  0.11936050  0.15360300  1
  H+  H239  1  0.04725334  0.67567431  0.19958244  1
  H+  H240  1  0.39583669  0.28349369  0.52372066  1
  H+  H241  1  0.88880587  0.77500110  0.66065995  1
  H+  H242  1  0.05687827  0.64986086  0.61752261  1
  H+  H243  1  0.83841556  0.37126202  0.48649602  1
  H+  H244  1  -0.01917378  0.36039670  0.17430967  1
  H+  H245  1  0.96676555  0.89926730  0.16020815  1
  H+  H246  1  0.87253678  0.97142321  0.00314134  1
  H+  H247  1  0.01236257  0.37764789  0.82677225  1
  H+  H248  1  0.40401496  0.73093493  0.67657021  1
  H+  H249  1  0.19085774  0.62686677  0.33993252  1
  H+  H250  1  1.03915261  0.43021374  0.56250080  1
  H+  H251  1  0.37918245  0.85961918  0.50753841  1
  H+  H252  1  0.85193575  0.73996470  0.30337005  1
  H+  H253  1  0.75777719  0.51796334  0.94718601  1
  H+  H254  1  0.36858801  0.14351687  0.51515591  1
  H+  H255  1  0.85945755  0.00391245  0.17444743  1
  H+  H256  1  0.91404584  0.33154794  0.93592566  1
  H+  H257  1  0.66433021  0.80695836  0.40506995  1
  H+  H258  1  0.13759932  0.85183572  0.67152141  1
  H+  H259  1  0.36323040  0.39260650  0.32532761  1
  H+  H260  1  1.02947329  0.63381975  0.49034101  1
  H+  H261  1  0.32276214  0.80925132  1.00894183  1
  H+  H262  1  0.40748100  0.35879941  0.17349554  1
  H+  H263  1  0.58319424  0.68761494  0.05639139  1
  H+  H264  1  0.64315575  0.45388049  0.00038076  1
  H+  H265  1  0.02143425  0.87204130  0.68018491  1
  H+  H266  1  0.03298509  0.99786882  0.38916566  1
  H+  H267  1  0.45867672  0.69559995  0.71109016  1
  H+  H268  1  0.39284846  0.37072061  0.52550994  1
  H+  H269  1  0.38841036  0.09653055  0.31860711  1
  H+  H270  1  1.07120581  0.71705770  0.95965964  1
  H+  H271  1  0.13560921  0.67586770  0.19506682  1
  H+  H272  1  0.27779001  0.33797556  0.15840172  1
  H+  H273  1  0.05688279  0.41340573  0.45853101  1
  H+  H274  1  0.36899777  0.13825598  0.82683208  1
  H+  H275  1  0.16434081  0.41770131  0.15415127  1
  H+  H276  1  0.38142291  0.02159067  0.66325077  1
  H+  H277  1  0.13059346  0.51504580  0.82527840  1
  H+  H278  1  0.87702175  0.88322560  -0.00020972  1
  H+  H279  1  0.60036470  0.46979928  0.33955911  1
  H+  H280  1  0.80393044  0.65354816  0.15798749  1
  H+  H281  1  0.89204819  0.50196656  0.16049012  1
  H+  H282  1  0.76184795  0.87676486  0.67137845  1
  H+  H283  1  0.50874918  0.11667429  1.00705609  1
  H+  H284  1  0.38953526  0.86089141  0.32215696  1
  H+  H285  1  0.87656318  0.10474545  0.99125974  1
  H+  H286  1  0.26773658  0.87576216  0.49449278  1
  H+  H287  1  0.71570875  0.11169861  0.16675700  1
  H+  H288  1  0.12950793  0.33617098  0.31196249  1
  H+  H289  1  0.68125558  0.86984329  0.21693617  1
  H+  H290  1  0.31875624  0.34282821  0.44944972  1
  H+  H291  1  0.34150423  0.40070460  0.10688744  1
  H+  H292  1  0.95771153  0.62182675  0.91179694  1
  H+  H293  1  0.61668302  0.35704110  0.00456663  1
  H+  H294  1  0.30193661  0.06302459  0.39667240  1
  H+  H295  1  0.73632439  0.84943070  0.89595673  1
  H+  H296  1  0.04911218  0.64788513  0.07014467  1
  H+  H297  1  0.44484868  0.72793514  0.19281950  1
  H+  H298  1  0.32765354  0.42473206  0.37882666  1
  H+  H299  1  0.93251989  0.59423863  0.24599745  1
  H+  H300  1  0.84959167  0.42875438  0.06863993  1
  H+  H301  1  0.89393456  0.06985657  0.26444443  1
  H+  H302  1  0.43215038  0.49858249  0.04940291  1
  H+  H303  1  0.11616563  0.35260568  0.65835862  1
  H+  H304  1  0.82994891  0.67476498  0.77250408  1
  H+  H305  1  0.65628156  0.32001946  0.60718412  1
  H+  H306  1  0.66076115  0.07105046  0.25697197  1
  H+  H307  1  0.35700847  0.01779129  -0.01048367  1
  H+  H308  1  0.05412779  0.44334752  0.09550902  1
  H+  H309  1  0.81770972  0.39982908  0.77632625  1
  H+  H310  1  0.13843612  0.81460492  0.15669631  1
  H+  H311  1  0.84728055  0.11539106  0.33084209  1
  H+  H312  1  0.58012167  0.93341205  0.43322560  1
  H+  H313  1  0.87805959  0.61642664  0.82627193  1
  H+  H314  1  0.63989323  0.05015663  0.87592061  1
  H+  H315  1  0.44069985  0.33835635  0.23446945  1
  H+  H316  1  0.91367321  0.30738969  0.26865358  1
  H+  H317  1  0.41658856  0.34113698  0.89331947  1
  H+  H318  1  0.86965134  0.92565553  0.42894974  1
  H+  H319  1  0.62635348  0.09470772  0.97907101  1
  H+  H320  1  0.73258965  0.61255693  0.84179512  1
  H+  H321  1  0.10546919  0.41657840  0.37103991  1
  H+  H322  1  0.60047981  0.41049799  0.09861381  1
  H+  H323  1  0.91068698  0.07760801  0.89998429  1
  H+  H324  1  0.64002552  0.31701166  0.88685506  1
  H+  H325  1  0.40118391  0.29795524  0.99630087  1
  H+  H326  1  0.33178246  0.70208262  0.08402121  1
  H+  H327  1  0.11335398  0.95080602  0.45086883  1
  H+  H328  1  0.42224808  0.83417247  0.60808392  1
  H+  H329  1  0.85740219  0.21468569  0.15463308  1
  H+  H330  1  0.32898151  0.42697216  0.76900379  1
  H+  H331  1  0.59059020  0.16525912  0.39561478  1
  H+  H332  1  0.16664060  0.07940085  0.89744419  1
  H+  H333  1  0.15909456  0.33459161  0.56093929  1
  H+  H334  1  0.60219936  0.38531762  0.82011596  1
  H+  H335  1  0.14832908  0.76728770  0.26011252  1
  H+  H336  1  0.06164730  0.16668411  0.42928517  1
  H+  H337  1  0.37645716  0.10885381  0.66211466  1
  H+  H338  1  0.86729426  0.91745660  0.08958743  1
  H+  H339  1  0.81711553  0.15747358  0.05603551  1
  H+  H340  1  0.40951887  0.60888247  0.25836880  1
  H+  H341  1  0.40698548  0.33485931  0.62263310  1
  H+  H342  1  0.17221188  0.83048278  0.57372599  1
  H+  H343  1  0.21030785  0.12853661  0.27956608  1
  H+  H344  1  0.39675477  0.56377264  0.58623407  1
  H+  H345  1  0.15985081  0.28041977  0.23484165  1
  H+  H346  1  0.11020013  0.61452824  0.65343896  1
  H+  H347  1  0.93058747  0.83743821  0.60317665  1
  H+  H348  1  0.58542828  0.42653548  0.72453502  1
  H+  H349  1  0.28128013  0.64528267  0.83520590  1
  H+  H350  1  0.41464227  0.82497412  0.22687826  1
  H+  H351  1  0.82999290  0.69898710  0.40592378  1
  H+  H352  1  0.81070979  0.14413678  0.43162755  1
  H+  H353  1  0.63470406  0.66951054  0.47896721  1
  H+  H354  1  0.41019500  0.59810386  0.92298450  1
  H+  H355  1  0.87231137  0.67742680  0.10529343  1
  H+  H356  1  0.16843791  0.07735213  0.59069181  1
  H+  H357  1  0.32921040  0.19066433  0.07693341  1
  H+  H358  1  0.92078106  0.82595840  0.92664787  1
  H+  H359  1  0.63613189  0.81987569  0.61387811  1
  H+  H360  1  0.88384096  0.94594156  0.75241517  1
  H+  H361  1  0.65835701  0.32466081  0.23405313  1
  H+  H362  1  0.67049306  0.59273510  0.59772449  1
  H+  H363  1  0.11013273  0.65799022  0.40878341  1
  H+  H364  1  0.35037710  0.92587182  0.76440382  1
  H+  H365  1  0.06734015  0.15638947  0.05759447  1
  H+  H366  1  0.90186132  0.07764158  0.60180493  1
  H+  H367  1  0.14590113  0.61128374  0.50595925  1
  H+  H368  1  0.86664881  0.83518209  0.85344670  1
  H+  H369  1  0.58154553  0.92113668  0.08522256  1
  H+  H370  1  0.29213346  0.85645594  0.05457980  1
  H+  H371  1  0.33887023  0.17028703  0.45727512  1
  H+  H372  1  0.59166443  0.67926097  0.78681447  1
  H+  H373  1  0.32789429  0.90490253  0.39544699  1
  H+  H374  1  0.88587393  0.30708134  0.60376206  1
  H+  H375  1  0.71302244  0.29440253  0.94988614  1
  H+  H376  1  0.85758866  0.63597252  0.68275283  1
  H+  H377  1  0.58640358  0.85245135  0.51705063  1
  H+  H378  1  0.16528908  0.33973206  0.90117107  1
  H+  H379  1  0.08575418  0.66650009  0.75735383  1
  H+  H380  1  0.08064457  0.63598567  0.05759918  1
  H+  H381  1  0.40540559  0.07064788  0.57119329  1
  H+  H382  1  0.98924696  0.28474499  0.20336700  1
  H+  H383  1  0.69969829  0.55610033  0.92623953  1
  O2-  O384  1  0.03943841  0.12259492  0.13490509  1
  O2-  O385  1  0.06447827  0.17202234  0.47717073  1
  O2-  O386  1  0.09047081  0.17349529  0.82408437  1
  O2-  O387  1  0.03441844  0.44946421  0.13688526  1
  O2-  O388  1  0.11854920  0.43637198  0.45584765  1
  O2-  O389  1  0.07079363  0.40549805  0.80721188  1
  O2-  O390  1  0.11188508  0.71509915  0.20006978  1
  O2-  O391  1  0.09306394  0.66424036  0.48424651  1
  O2-  O392  1  0.08233351  0.66618256  0.80168201  1
  O2-  O393  1  0.06540451  0.93328662  0.20708483  1
  O2-  O394  1  0.11510835  0.93599307  0.49373044  1
  O2-  O395  1  0.05814374  0.89639399  0.82048035  1
  O2-  O396  1  0.34485742  0.17280732  0.14628658  1
  O2-  O397  1  0.34393261  0.18019701  0.50190292  1
  O2-  O398  1  0.33189065  0.16236832  0.81390988  1
  O2-  O399  1  0.33686562  0.38376947  0.15007349  1
  O2-  O400  1  0.31877154  0.39346444  0.46546271  1
  O2-  O401  1  0.33517558  0.42774707  0.81416105  1
  O2-  O402  1  0.29146812  0.70671462  0.11333138  1
  O2-  O403  1  0.33809621  0.67219777  0.47438176  1
  O2-  O404  1  0.34354566  0.68349507  0.82901015  1
  O2-  O405  1  0.32752909  0.92311187  0.12753623  1
  O2-  O406  1  0.32665387  0.90748252  0.47617880  1
  O2-  O407  1  0.36053528  0.92561156  0.80932351  1
  O2-  O408  1  0.58038131  0.16786015  0.14193212  1
  O2-  O409  1  0.56414883  0.15052934  0.47717684  1
  O2-  O410  1  0.57732115  0.17382852  0.80207110  1
  O2-  O411  1  0.60359696  0.41633390  0.14388314  1
  O2-  O412  1  0.58065877  0.42976520  0.47729502  1
  O2-  O413  1  0.57887104  0.42325738  0.80770858  1
  O2-  O414  1  0.60352618  0.69710543  0.13645259  1
  O2-  O415  1  0.61796014  0.70793889  0.45778009  1
  O2-  O416  1  0.59716449  0.67598791  0.83182645  1
  O2-  O417  1  0.58172584  0.92671328  0.13092840  1
  O2-  O418  1  0.57801769  0.93380584  0.47875597  1
  O2-  O419  1  0.57478583  0.89500141  0.76253379  1
  O2-  O420  1  0.81623303  0.15724901  0.13816029  1
  O2-  O421  1  0.81941287  0.14894631  0.47599111  1
  O2-  O422  1  0.83608906  0.17255085  0.81926662  1
  O2-  O423  1  0.87894884  0.44731261  0.14083882  1
  O2-  O424  1  0.81912427  0.40795242  0.46609974  1
  O2-  O425  1  0.81809967  0.40955553  0.82097487  1
  O2-  O426  1  0.86633965  0.67677872  0.15004710  1
  O2-  O427  1  0.82813101  0.70859011  0.45057043  1
  O2-  O428  1  0.83266103  0.66773514  0.81702359  1
  O2-  O429  1  0.88186083  0.93061823  0.13510041  1
  O2-  O430  1  0.87691528  0.93511089  0.47330016  1
  O2-  O431  1  0.93502017  0.97776785  0.77832143  1
  O2-  O432  1  0.19164834  0.11449464  0.20059979  1
  O2-  O433  1  0.17390954  0.08221201  0.54533333  1
  O2-  O434  1  0.16190853  0.07517082  0.85232353  1
  O2-  O435  1  0.16199493  0.26672483  0.18945649  1
  O2-  O436  1  0.16141766  0.33162933  0.51546747  1
  O2-  O437  1  0.16742508  0.33917648  0.85628124  1
  O2-  O438  1  0.17064005  0.59952964  0.19347057  1
  O2-  O439  1  0.17700118  0.57980147  0.51633255  1
  O2-  O440  1  0.16423036  0.57510447  0.84101014  1
  O2-  O441  1  0.16491648  0.87695330  0.14925338  1
  O2-  O442  1  0.16921220  0.82705432  0.52824021  1
  O2-  O443  1  0.14203716  0.82388273  0.85330704  1
  O2-  O444  1  0.41689432  0.08235085  0.17477981  1
  O2-  O445  1  0.40152354  0.06916369  0.52528140  1
  O2-  O446  1  0.42912003  0.08961182  0.84628430  1
  O2-  O447  1  0.44454481  0.33554505  0.18939442  1
  O2-  O448  1  0.42833118  0.34554766  0.53675664  1
  O2-  O449  1  0.40986287  0.33391104  0.84875359  1
  O2-  O450  1  0.44242755  0.67148941  0.19120275  1
  O2-  O451  1  0.40571863  0.57512489  0.51673900  1
  O2-  O452  1  0.42901069  0.59623356  0.85413608  1
  O2-  O453  1  0.42276238  0.82073793  0.18236287  1
  O2-  O454  1  0.41369813  0.83303046  0.52199558  1
  O2-  O455  1  0.43399280  0.84415394  0.82613935  1
  O2-  O456  1  0.65575651  0.08082916  0.18353405  1
  O2-  O457  1  0.68199913  0.12841668  0.53381786  1
  O2-  O458  1  0.61197321  0.03680771  0.83541577  1
  O2-  O459  1  0.65682197  0.32282775  0.18692060  1
  O2-  O460  1  0.68843777  0.39395364  0.53389517  1
  O2-  O461  1  0.64801665  0.32544827  0.84269332  1
  O2-  O462  1  0.69737491  0.61063601  0.17480783  1
  O2-  O463  1  0.66756580  0.59874227  0.50961558  1
  O2-  O464  1  0.67407400  0.57951120  0.86153549  1
  O2-  O465  1  0.68481453  0.86734219  0.17297253  1
  O2-  O466  1  0.57891862  0.79969238  0.53756476  1
  O2-  O467  1  0.75356212  0.83805848  0.85612219  1
  O2-  O468  1  0.88272584  0.06404576  0.18878579  1
  O2-  O469  1  0.91647608  0.08297726  0.51928746  1
  O2-  O470  1  0.91954593  0.08771294  0.85525681  1
  O2-  O471  1  0.94763354  0.30362758  0.19708554  1
  O2-  O472  1  0.88011491  0.30827423  0.51971476  1
  O2-  O473  1  0.91248645  0.33075148  0.85822859  1
  O2-  O474  1  0.94452813  0.60702455  0.20251061  1
  O2-  O475  1  0.92027132  0.58025854  0.49733690  1
  O2-  O476  1  0.91301535  0.58460680  0.82884909  1
  O2-  O477  1  0.90345085  0.86576747  0.15353069  1
  O2-  O478  1  0.95036052  0.84880297  0.52318014  1
  O2-  O479  1  0.90701719  0.81411775  0.86125865  1
  O2-  O480  1  0.21670227  0.14207697  0.32370701  1
  O2-  O481  1  0.15334313  0.06300431  0.66613580  1
  O2-  O482  1  0.16730134  0.09177109  0.97541751  1
  O2-  O483  1  0.15985662  0.30221003  0.30331817  1
  O2-  O484  1  0.15308422  0.32968529  0.64005393  1
  O2-  O485  1  0.16022279  0.33933336  0.98690223  1
  O2-  O486  1  0.22891011  0.61028434  0.31705709  1
  O2-  O487  1  0.15754842  0.56553724  0.64375723  1
  O2-  O488  1  0.18332677  0.56427406  0.96177606  1
  O2-  O489  1  0.16764856  0.79704529  0.30189738  1
  O2-  O490  1  0.17324337  0.82896736  0.65264131  1
  O2-  O491  1  0.15176692  0.91691753  1.04071193  1
  O2-  O492  1  0.40496843  0.06274253  0.29255758  1
  O2-  O493  1  0.40917775  0.08115249  0.64626048  1
  O2-  O494  1  0.40055111  0.07679913  0.98006532  1
  O2-  O495  1  0.41606827  0.33643269  0.31196646  1
  O2-  O496  1  0.38080334  0.32524947  0.66321724  1
  O2-  O497  1  0.43906831  0.35483296  0.97755244  1
  O2-  O498  1  0.40041109  0.59139709  0.30193514  1
  O2-  O499  1  0.39886134  0.56278092  0.63283331  1
  O2-  O500  1  0.39637565  0.59909600  0.96797686  1
  O2-  O501  1  0.41928824  0.83030862  0.30582791  1
  O2-  O502  1  0.41985036  0.83045805  0.65298659  1
  O2-  O503  1  0.41717327  0.79520980  0.99326628  1
  O2-  O504  1  0.66696729  0.07164294  0.30299736  1
  O2-  O505  1  0.65567582  0.08699263  0.64102978  1
  O2-  O506  1  0.65800102  0.06908642  0.95982585  1
  O2-  O507  1  0.66415188  0.33320558  0.30385100  1
  O2-  O508  1  0.66019857  0.31828071  0.65158180  1
  O2-  O509  1  0.66491219  0.29638481  0.96869592  1
  O2-  O510  1  0.63701431  0.56462376  0.31609223  1
  O2-  O511  1  0.67169928  0.59292487  0.64253479  1
  O2-  O512  1  0.72063931  0.53807290  0.96370442  1
  O2-  O513  1  0.66972574  0.83050382  0.36352003  1
  O2-  O514  1  0.65166664  0.82905874  0.65729350  1
  O2-  O515  1  0.68379567  0.84687601  0.97540681  1
  O2-  O516  1  0.89664261  0.07355103  0.31030248  1
  O2-  O517  1  0.89602508  0.07476482  0.64656383  1
  O2-  O518  1  0.90800360  0.07492079  0.97777367  1
  O2-  O519  1  0.90185141  0.30197915  0.31353313  1
  O2-  O520  1  0.89578632  0.31069361  0.64808611  1
  O2-  O521  1  0.91483144  0.32940279  0.98153743  1
  O2-  O522  1  0.94626801  0.56870284  0.32954673  1
  O2-  O523  1  0.91111221  0.56834488  0.70316154  1
  O2-  O524  1  0.97969899  0.63640686  0.95351495  1
  O2-  O525  1  0.90357677  0.84011102  0.27104149  1
  O2-  O526  1  0.92281025  0.83674331  0.64787628  1
  O2-  O527  1  0.92565617  0.83330655  0.97475882  1
  O2-  O528  1  0.07791035  0.16726746  0.01332343  1
  O2-  O529  1  0.05798666  0.15261198  0.36396870  1
  O2-  O530  1  0.04065247  0.10685423  0.71121334  1
  O2-  O531  1  0.07751431  0.42035978  0.02314371  1
  O2-  O532  1  0.08579348  0.39179097  0.33020530  1
  O2-  O533  1  0.06417260  0.39578173  0.68517995  1
  O2-  O534  1  0.12574517  0.77620637  -0.04254045  1
  O2-  O535  1  0.11269848  0.64973152  0.36384179  1
  O2-  O536  1  0.07770578  0.64889590  0.65832189  1
  O2-  O537  1  0.08759091  0.93950376  0.03420424  1
  O2-  O538  1  0.08231634  0.99082877  0.38064734  1
  O2-  O539  1  0.07994101  0.89553518  0.69889247  1
  O2-  O540  1  0.31612771  0.20841792  0.03607380  1
  O2-  O541  1  0.33065501  0.12254256  0.38290683  1
  O2-  O542  1  0.32220175  0.15761927  0.69104076  1
  O2-  O543  1  0.38120336  0.45044884  0.03129682  1
  O2-  O544  1  0.32706661  0.41937589  0.33417270  1
  O2-  O545  1  0.31818480  0.42060410  0.68990609  1
  O2-  O546  1  0.41172591  0.72735417  0.03385322  1
  O2-  O547  1  0.31411221  0.66323992  0.34558966  1
  O2-  O548  1  0.40181458  0.67814789  0.69355790  1
  O2-  O549  1  0.27104311  0.80540896  0.02804508  1
  O2-  O550  1  0.33157437  0.90383491  0.35007685  1
  O2-  O551  1  0.34074858  0.91859067  0.68923861  1
  O2-  O552  1  0.57012154  0.14406416  0.01845701  1
  O2-  O553  1  0.61023421  0.18186085  0.35327730  1
  O2-  O554  1  0.57605248  0.15935071  0.68902307  1
  O2-  O555  1  0.59888423  0.39761154  0.01908470  1
  O2-  O556  1  0.57286224  0.40796668  0.35506385  1
  O2-  O557  1  0.59448076  0.42898141  0.67996809  1
  O2-  O558  1  0.57949870  0.68492717  0.01125724  1
  O2-  O559  1  0.56594988  0.66482288  0.34142014  1
  O2-  O560  1  0.56162086  0.68129786  0.71380608  1
  O2-  O561  1  0.58452334  0.90791792  0.01030816  1
  O2-  O562  1  0.58142957  0.91799909  0.35584066  1
  O2-  O563  1  0.57483074  0.90605042  0.69636542  1
  O2-  O564  1  0.82115192  0.15856659  0.01096120  1
  O2-  O565  1  0.81400505  0.14667506  0.34414399  1
  O2-  O566  1  0.80674942  0.14652018  0.69112865  1
  O2-  O567  1  0.83774944  0.41419011  0.02403976  1
  O2-  O568  1  0.83135632  0.39692238  0.34455824  1
  O2-  O569  1  0.82210249  0.39381690  0.69611568  1
  O2-  O570  1  0.87431445  0.67708914  0.01875988  1
  O2-  O571  1  0.82182768  0.68491749  0.32698263  1
  O2-  O572  1  0.83188783  0.67287287  0.68767312  1
  O2-  O573  1  0.84769131  0.91232651  0.02025506  1
  O2-  O574  1  0.84245037  0.91559989  0.34883685  1
  O2-  O575  1  0.82472743  0.91218395  0.67944120  1
