# generated using pymatgen
data_H2O
_symmetry_space_group_name_H-M   'P 1'
_cell_length_a   18.00077197
_cell_length_b   17.99292272
_cell_length_c   22.00724754
_cell_angle_alpha   90.00152015
_cell_angle_beta   90.00045048
_cell_angle_gamma   120.00828624
_symmetry_Int_Tables_number   1
_chemical_formula_structural   H2O
_chemical_formula_sum   'H384 O192'
_cell_volume   6172.38399395
_cell_formula_units_Z   192
loop_
 _symmetry_equiv_pos_site_id
 _symmetry_equiv_pos_as_xyz
  1  'x, y, z'
loop_
 _atom_type_symbol
 _atom_type_oxidation_number
  H+  1.0
  O2-  -2.0
loop_
 _atom_site_type_symbol
 _atom_site_label
 _atom_site_symmetry_multiplicity
 _atom_site_fract_x
 _atom_site_fract_y
 _atom_site_fract_z
 _atom_site_occupancy
  H+  H0  1  0.76013589  0.88620892  0.83100544  1
  H+  H1  1  0.11877494  0.73920922  0.66925537  1
  H+  H2  1  0.07924664  0.92864225  0.07561651  1
  H+  H3  1  0.85774453  0.87915312  0.16414419  1
  H+  H4  1  0.14634023  0.85249358  0.32979272  1
  H+  H5  1  0.62422963  0.02438012  0.98528546  1
  H+  H6  1  0.35750854  0.63032188  0.99823930  1
  H+  H7  1  0.28688662  0.39088743  0.83058114  1
  H+  H8  1  0.08548473  0.87978592  0.69371699  1
  H+  H9  1  0.70471814  0.49165917  0.97225761  1
  H+  H10  1  0.50130233  0.61126425  0.83522408  1
  H+  H11  1  0.69582027  0.36589213  0.94817363  1
  H+  H12  1  0.48556025  0.36165186  0.64861022  1
  H+  H13  1  0.22923373  0.11480423  0.31705007  1
  H+  H14  1  0.47048622  0.34555759  1.02099996  1
  H+  H15  1  0.53701289  0.64597035  0.67865830  1
  H+  H16  1  0.78745210  0.88304623  0.48799647  1
  H+  H17  1  0.86149412  0.87722535  0.01585325  1
  H+  H18  1  0.09490623  0.84644736  -0.01035615  1
  H+  H19  1  0.63328556  0.12972920  0.83539465  1
  H+  H20  1  0.39295457  0.78555462  0.50737441  1
  H+  H21  1  -0.01563763  0.62128475  0.50121447  1
  H+  H22  1  0.52382465  0.88910087  0.15252219  1
  H+  H23  1  0.87042972  0.72373956  0.01936295  1
  H+  H24  1  0.62324230  0.76398996  0.65998295  1
  H+  H25  1  0.37059117  0.38319355  1.00253718  1
  H+  H26  1  0.90315372  0.64130150  0.31610789  1
  H+  H27  1  0.86985994  0.11362870  0.35457564  1
  H+  H28  1  0.53137039  0.88900488  0.49718140  1
  H+  H29  1  0.36592515  0.97996188  0.50069934  1
  H+  H30  1  0.89729695  0.86106553  0.50284213  1
  H+  H31  1  0.11800311  0.63701660  0.00852259  1
  H+  H32  1  0.21638987  0.61374164  0.83893796  1
  H+  H33  1  0.86526581  0.72661567  0.66809198  1
  H+  H34  1  0.10527456  0.14500434  0.80929712  1
  H+  H35  1  0.38360053  0.85967365  0.17163118  1
  H+  H36  1  0.26185812  0.89769719  0.96520631  1
  H+  H37  1  0.35953055  0.14265867  0.84520572  1
  H+  H38  1  0.14592799  0.63103807  0.65464142  1
  H+  H39  1  0.89846081  0.00944407  0.99677714  1
  H+  H40  1  0.35962001  0.13492310  0.49361934  1
  H+  H41  1  0.89079453  0.61657348  0.83471553  1
  H+  H42  1  0.87073412  0.91988238  0.39396070  1
  H+  H43  1  0.89501111  0.53350678  0.49839650  1
  H+  H44  1  0.58608503  0.59146135  -0.00126509  1
  H+  H45  1  0.53093661  0.14355092  0.35090689  1
  H+  H46  1  0.74352485  0.36966659  0.64598567  1
  H+  H47  1  0.36714556  0.65436439  0.33962456  1
  H+  H48  1  0.87279613  0.85519487  0.64912190  1
  H+  H49  1  0.71534556  0.23870901  0.11668861  1
  H+  H50  1  0.89912165  0.61412302  0.99646146  1
  H+  H51  1  0.12444515  0.38769201  0.32047168  1
  H+  H52  1  0.90175353  0.15162275  0.33583873  1
  H+  H53  1  0.52961018  0.90154690  0.67224000  1
  H+  H54  1  0.83101504  0.19413422  0.51810329  1
  H+  H55  1  0.27811021  0.36993665  0.67131413  1
  H+  H56  1  0.87705855  0.77132870  0.84633546  1
  H+  H57  1  0.85868126  0.97658705  0.83138742  1
  H+  H58  1  0.63567790  0.72521310  0.35196201  1
  H+  H59  1  1.00820469  0.40113240  0.13563784  1
  H+  H60  1  0.46638306  0.59890223  0.18225868  1
  H+  H61  1  0.51176474  0.13981193  1.01983484  1
  H+  H62  1  0.22594258  0.35413481  0.50678941  1
  H+  H63  1  0.57240048  0.10282019  0.02934254  1
  H+  H64  1  0.13387685  0.10627919  0.50576206  1
  H+  H65  1  0.73088124  0.85871172  0.35523942  1
  H+  H66  1  0.67184230  0.77794791  0.95827464  1
  H+  H67  1  0.06914935  0.65998621  0.10108976  1
  H+  H68  1  0.27376726  0.39227511  0.33974681  1
  H+  H69  1  0.86628965  0.47812118  0.82473059  1
  H+  H70  1  0.87165772  0.63986995  0.48994831  1
  H+  H71  1  0.62129834  0.61596160  0.82552764  1
  H+  H72  1  0.48292841  0.85555203  0.98569976  1
  H+  H73  1  0.92143718  0.77925655  0.32545424  1
  H+  H74  1  0.58048717  0.74006796  0.02938244  1
  H+  H75  1  0.34678343  0.64848082  0.85217711  1
  H+  H76  1  0.14490121  0.54199785  0.64632637  1
  H+  H77  1  0.61640096  0.38737957  0.48970099  1
  H+  H78  1  0.14598911  0.25316752  0.18472777  1
  H+  H79  1  0.89938360  0.31278269  0.57682516  1
  H+  H80  1  0.73570718  0.85764205  0.99931213  1
  H+  H81  1  0.85224236  0.87769798  0.83782313  1
  H+  H82  1  0.86905459  0.63871238  0.66898925  1
  H+  H83  1  0.47822482  0.12026282  0.51186380  1
  H+  H84  1  0.39599694  0.23714708  0.15202396  1
  H+  H85  1  0.41867765  0.61420077  0.81400712  1
  H+  H86  1  0.89786208  0.52551140  0.99130424  1
  H+  H87  1  0.14013786  0.28722196  0.33030491  1
  H+  H88  1  0.67338994  0.34370591  0.27220126  1
  H+  H89  1  0.73445023  0.60990809  0.50339373  1
  H+  H90  1  0.27954060  0.64778159  0.67419427  1
  H+  H91  1  0.28648162  0.88665350  0.67196333  1
  H+  H92  1  0.98297332  0.61969907  0.65548219  1
  H+  H93  1  0.62973683  0.48764991  0.65768726  1
  H+  H94  1  0.83691891  0.19392207  0.36404865  1
  H+  H95  1  0.21754399  0.61741650  0.16464148  1
  H+  H96  1  0.02958297  0.38377370  -0.00047749  1
  H+  H97  1  0.36054214  0.72582975  0.15395078  1
  H+  H98  1  0.79264857  0.62755447  0.00729623  1
  H+  H99  1  0.89429617  0.27229094  0.66713251  1
  H+  H100  1  0.34677109  0.46697569  0.13338789  1
  H+  H101  1  0.62574961  0.63657686  0.49984349  1
  H+  H102  1  0.13303337  0.13601795  1.01156182  1
  H+  H103  1  0.62079592  0.01690248  0.33889451  1
  H+  H104  1  0.87649257  0.48018833  0.66985545  1
  H+  H105  1  0.62996520  0.76372354  0.16991083  1
  H+  H106  1  0.60811542  0.46974133  0.33759249  1
  H+  H107  1  0.41777018  0.32430809  0.56597640  1
  H+  H108  1  0.87094639  0.42158016  0.32190137  1
  H+  H109  1  0.61326809  0.49172126  0.18305278  1
  H+  H110  1  0.35789397  0.96790155  0.16010013  1
  H+  H111  1  0.15353741  0.36839156  0.85351931  1
  H+  H112  1  0.61233360  0.14218925  0.51770245  1
  H+  H113  1  0.97387885  0.86994399  0.16566548  1
  H+  H114  1  0.52421950  0.89461342  0.82278162  1
  H+  H115  1  0.97033021  0.85967584  1.00391524  1
  H+  H116  1  0.64925044  0.77360047  0.50202168  1
  H+  H117  1  0.58318830  0.92380096  0.41389979  1
  H+  H118  1  0.27613957  0.88991368  0.31137413  1
  H+  H119  1  0.38723421  0.36087418  0.32144494  1
  H+  H120  1  0.77831898  0.14429450  0.67361812  1
  H+  H121  1  0.65606408  0.54530898  0.98130544  1
  H+  H122  1  0.60831881  0.38189700  0.34127066  1
  H+  H123  1  0.60786922  0.13172056  0.70143363  1
  H+  H124  1  0.14673455  0.36697125  0.65380092  1
  H+  H125  1  0.86143034  0.47225691  0.07992557  1
  H+  H126  1  0.82092095  0.13875022  0.01167300  1
  H+  H127  1  0.59531234  0.61497438  0.15919002  1
  H+  H128  1  0.26922501  0.89265174  0.82853022  1
  H+  H129  1  0.36574502  -0.02199130  0.82522465  1
  H+  H130  1  0.38021607  0.97079250  0.01591772  1
  H+  H131  1  0.52941811  0.82595588  0.26634952  1
  H+  H132  1  0.10514640  0.21797275  0.65527745  1
  H+  H133  1  0.36482204  0.47587260  0.34808388  1
  H+  H134  1  0.64704822  0.28117953  0.33170972  1
  H+  H135  1  0.24173802  0.14738154  0.85215330  1
  H+  H136  1  0.85638094  0.97239437  0.66228301  1
  H+  H137  1  0.61620982  0.18957405  0.10285415  1
  H+  H138  1  0.42075669  0.58329276  0.92825730  1
  H+  H139  1  0.02208098  0.63966089  0.81997199  1
  H+  H140  1  0.87094479  0.27829963  -0.00212422  1
  H+  H141  1  0.75043001  0.40178758  0.01007083  1
  H+  H142  1  -0.07919504  0.82893786  0.56424365  1
  H+  H143  1  0.39547335  0.02122751  0.66490783  1
  H+  H144  1  0.39507040  0.51462328  0.51746243  1
  H+  H145  1  0.47365387  0.35579990  0.50430227  1
  H+  H146  1  0.15707261  0.58149897  0.89796023  1
  H+  H147  1  0.64043551  0.60617689  0.32384101  1
  H+  H148  1  0.17522791  0.33458023  0.26528513  1
  H+  H149  1  0.96332122  0.86214852  0.85026438  1
  H+  H150  1  1.02488986  0.38265918  0.50613420  1
  H+  H151  1  0.61987122  0.88643265  0.49032731  1
  H+  H152  1  0.76756693  0.88722528  0.65424360  1
  H+  H153  1  0.39419794  0.36635022  0.83551646  1
  H+  H154  1  -0.02400124  0.10817674  0.50549263  1
  H+  H155  1  0.63632562  0.03232763  0.65653516  1
  H+  H156  1  0.77574343  0.40557808  0.33265690  1
  H+  H157  1  0.83154943  0.67918922  0.40607640  1
  H+  H158  1  0.09430767  0.63198355  0.16189425  1
  H+  H159  1  0.39598554  0.89190881  0.01503783  1
  H+  H160  1  0.93330031  0.01727234  0.31527934  1
  H+  H161  1  0.35706303  0.73587589  0.33575599  1
  H+  H162  1  0.39872053  0.78042700  0.66672544  1
  H+  H163  1  0.11149005  0.47112938  0.49975643  1
  H+  H164  1  0.68074501  0.26465105  0.87453567  1
  H+  H165  1  0.61647550  0.90094954  0.67070399  1
  H+  H166  1  0.38564273  0.51831403  -0.01441636  1
  H+  H167  1  0.12635963  0.05059474  0.31758464  1
  H+  H168  1  0.64102445  0.88796332  0.83350762  1
  H+  H169  1  0.14319245  0.17383530  0.33681975  1
  H+  H170  1  0.43678548  0.61761742  0.27117018  1
  H+  H171  1  0.37209945  0.23591711  0.83060535  1
  H+  H172  1  0.38302038  0.26535419  0.00231471  1
  H+  H173  1  0.89212686  0.11749362  0.17010893  1
  H+  H174  1  0.89471425  0.36292701  0.66354557  1
  H+  H175  1  0.47485899  0.87446072  0.33550740  1
  H+  H176  1  0.35711252  0.73787650  0.83235323  1
  H+  H177  1  0.38982352  0.87364624  0.31313636  1
  H+  H178  1  0.71930199  0.85396564  0.17345582  1
  H+  H179  1  0.10110348  0.12738038  0.65675659  1
  H+  H180  1  0.68677910  0.84861056  0.36556940  1
  H+  H181  1  0.90600501  0.89168501  0.33659335  1
  H+  H182  1  0.40510797  0.63345234  0.66342861  1
  H+  H183  1  0.11790094  0.77356044  0.16967158  1
  H+  H184  1  0.47615462  0.09062553  0.12521566  1
  H+  H185  1  0.14923988  0.86138901  0.50428088  1
  H+  H186  1  0.13680648  0.35574061  0.50784966  1
  H+  H187  1  0.01387990  0.86354279  0.32381329  1
  H+  H188  1  0.36144636  0.37419035  0.49886122  1
  H+  H189  1  0.13265124  0.78118875  0.83218825  1
  H+  H190  1  0.02833006  0.63277535  0.00589160  1
  H+  H191  1  0.59614335  0.89304832  0.34521984  1
  H+  H192  1  0.34224776  -0.06096261  0.26008722  1
  H+  H193  1  0.88667159  0.41178106  0.46963625  1
  H+  H194  1  0.40278580  0.04257715  0.32409718  1
  H+  H195  1  0.90829487  0.82433878  0.94501307  1
  H+  H196  1  0.89078371  0.54865184  0.31593235  1
  H+  H197  1  0.10758936  0.97761646  0.01237439  1
  H+  H198  1  0.83096349  0.91102654  0.07368024  1
  H+  H199  1  0.73396129  0.36926220  0.49054875  1
  H+  H200  1  0.38936260  0.14579186  0.15196961  1
  H+  H201  1  0.17171373  0.59330329  0.55974816  1
  H+  H202  1  0.12472276  0.48777041  0.32143380  1
  H+  H203  1  0.78081189  0.63100120  0.81857252  1
  H+  H204  1  0.74587432  0.58626984  0.15979719  1
  H+  H205  1  0.13424316  0.61026405  0.49936688  1
  H+  H206  1  0.22447088  0.10929564  0.50524588  1
  H+  H207  1  0.10095336  0.48102838  0.14779151  1
  H+  H208  1  0.48360880  0.60281499  0.51468613  1
  H+  H209  1  0.86530399  0.29695115  0.15254954  1
  H+  H210  1  0.47499384  0.35948906  0.32605504  1
  H+  H211  1  0.10978178  0.63898032  0.82137590  1
  H+  H212  1  0.12369857  0.23782218  0.81431469  1
  H+  H213  1  0.68380566  0.34317474  0.55498237  1
  H+  H214  1  0.02843207  0.39411391  0.65947997  1
  H+  H215  1  0.72701120  0.60536459  0.32280791  1
  H+  H216  1  0.65683967  0.37249572  0.64216969  1
  H+  H217  1  0.72882397  0.15917824  0.85308816  1
  H+  H218  1  0.37301449  0.89518508  0.50020949  1
  H+  H219  1  0.96991799  0.10988044  0.65411528  1
  H+  H220  1  0.49245413  0.65246676  0.02050084  1
  H+  H221  1  0.59094688  0.44241609  0.06406255  1
  H+  H222  1  0.64297942  0.52069936  0.50436428  1
  H+  H223  1  0.24156585  0.86485931  0.50320034  1
  H+  H224  1  0.14314967  0.83099835  0.89333519  1
  H+  H225  1  0.21326002  0.85523301  0.16935716  1
  H+  H226  1  0.83091456  0.31265904  0.53336975  1
  H+  H227  1  0.80333638  0.73082590  0.36311904  1
  H+  H228  1  0.13609917  0.51954610  -0.01106967  1
  H+  H229  1  0.11377804  0.47598516  0.83724289  1
  H+  H230  1  0.50443744  0.08319480  0.80625069  1
  H+  H231  1  0.35332770  0.63451033  0.15671762  1
  H+  H232  1  0.91863606  0.10531895  0.99446520  1
  H+  H233  1  0.62662925  0.35650222  0.84268980  1
  H+  H234  1  0.85531311  0.38568599  0.07612030  1
  H+  H235  1  0.03049239  0.88133065  0.49679201  1
  H+  H236  1  0.10350468  0.76258706  0.98679119  1
  H+  H237  1  0.73565033  0.61821430  0.65666253  1
  H+  H238  1  0.26744026  0.86042236  -0.04359473  1
  H+  H239  1  0.63211605  0.02247833  0.17705960  1
  H+  H240  1  0.37204210  0.13909279  -0.00104877  1
  H+  H241  1  0.64956011  0.07644801  0.27341689  1
  H+  H242  1  0.54241989  0.64665859  0.34333721  1
  H+  H243  1  0.62521463  0.64317692  0.67350575  1
  H+  H244  1  1.03062962  0.39704799  0.31428515  1
  H+  H245  1  0.12537929  0.91402020  0.17128102  1
  H+  H246  1  0.88088603  0.09689226  0.51090236  1
  H+  H247  1  0.04232414  0.12871975  0.00560007  1
  H+  H248  1  0.21369067  0.08796627  0.66608995  1
  H+  H249  1  0.42173051  0.10799026  0.80643679  1
  H+  H250  1  0.33019446  0.66377000  0.05720857  1
  H+  H251  1  0.05721542  0.92040123  0.78029288  1
  H+  H252  1  0.86258685  0.13526426  0.67453434  1
  H+  H253  1  0.23204209  0.34368112  0.17604090  1
  H+  H254  1  0.60006935  0.61850324  0.97019920  1
  H+  H255  1  0.70531873  0.09885344  0.56203538  1
  H+  H256  1  0.87044811  0.72868610  0.49439188  1
  H+  H257  1  0.39047375  0.76842349  0.98718241  1
  H+  H258  1  0.75689074  0.40377445  0.19629313  1
  H+  H259  1  0.87545834  0.97151282  0.49186766  1
  H+  H260  1  0.09365632  0.88686694  0.83218005  1
  H+  H261  1  0.35943467  0.22310368  0.49254520  1
  H+  H262  1  1.04603090  0.14472385  0.32975552  1
  H+  H263  1  0.73703953  0.14315545  0.01162722  1
  H+  H264  1  0.12089689  0.72763540  0.48757749  1
  H+  H265  1  -0.02463945  0.36133216  0.84861583  1
  H+  H266  1  0.34928155  0.11003897  0.68276995  1
  H+  H267  1  0.47984533  0.36189048  0.84951799  1
  H+  H268  1  0.88973651  0.31508946  0.31636685  1
  H+  H269  1  0.16048541  0.97115235  0.35778585  1
  H+  H270  1  0.23208021  0.10202972  0.00120918  1
  H+  H271  1  0.37700139  0.47862349  0.82350642  1
  H+  H272  1  0.14099512  0.35783279  0.99634828  1
  H+  H273  1  0.39782173  0.86870646  0.66623267  1
  H+  H274  1  0.64941364  0.50016310  0.82947231  1
  H+  H275  1  0.77514827  0.14115707  0.17345899  1
  H+  H276  1  0.61712309  0.37837437  0.03695609  1
  H+  H277  1  0.96329562  0.86083191  0.65974926  1
  H+  H278  1  0.27431358  0.65224491  0.49177470  1
  H+  H279  1  0.10293299  0.10723606  0.15500065  1
  H+  H280  1  0.62339653  0.11692839  0.33841072  1
  H+  H281  1  0.13330875  0.60802655  0.32268179  1
  H+  H282  1  0.89495964  0.37544597  0.99524923  1
  H+  H283  1  0.62113622  0.89020985  1.00017508  1
  H+  H284  1  0.02614533  0.63832585  0.33323203  1
  H+  H285  1  0.37950700  0.86565612  0.83714613  1
  H+  H286  1  0.86376501  0.22477845  0.83011972  1
  H+  H287  1  0.86846397  0.38976533  0.82508218  1
  H+  H288  1  0.95127313  0.57275172  0.15359262  1
  H+  H289  1  0.87855908  0.39814191  0.16505619  1
  H+  H290  1  0.59863236  0.66029349  0.77130731  1
  H+  H291  1  0.15452837  0.04352483  0.21659323  1
  H+  H292  1  0.27976780  0.38251841  -0.00140498  1
  H+  H293  1  0.92285522  0.82912068  0.22416214  1
  H+  H294  1  0.67685937  0.59017010  0.59617145  1
  H+  H295  1  0.11822811  0.97359541  0.49765065  1
  H+  H296  1  0.08541457  0.41884166  0.05975157  1
  H+  H297  1  0.58135760  0.41654709  0.43340039  1
  H+  H298  1  0.43447741  0.59728973  0.60631050  1
  H+  H299  1  0.67320842  0.83477775  0.55851932  1
  H+  H300  1  0.92277451  0.58608654  0.59666737  1
  H+  H301  1  0.08501751  0.16664065  0.43347648  1
  H+  H302  1  0.09835118  0.44709881  0.70927151  1
  H+  H303  1  0.85666981  0.96853885  0.16325013  1
  H+  H304  1  0.58744878  0.93380613  0.76678890  1
  H+  H305  1  0.67714155  0.31148938  0.17884196  1
  H+  H306  1  0.58845941  0.91901402  0.05800178  1
  H+  H307  1  0.17550138  0.09044716  0.94224096  1
  H+  H308  1  0.33535636  0.91438139  0.73657923  1
  H+  H309  1  0.09853030  0.97333897  0.67614871  1
  H+  H310  1  0.16000377  0.82429876  0.26282380  1
  H+  H311  1  0.08750273  0.67749128  0.72781959  1
  H+  H312  1  0.92038559  0.35864090  0.25049235  1
  H+  H313  1  0.94867158  0.07638275  0.25585891  1
  H+  H314  1  0.47417657  0.09899838  0.19740976  1
  H+  H315  1  0.45118142  0.11640639  0.90623799  1
  H+  H316  1  0.64981449  0.12032619  0.17768104  1
  H+  H317  1  0.16056406  0.06721473  0.60263822  1
  H+  H318  1  0.18432889  0.83828425  0.58883297  1
  H+  H319  1  0.34644651  0.16128542  0.06533303  1
  H+  H320  1  0.41929003  0.83389106  0.22890109  1
  H+  H321  1  0.37797817  0.51919131  0.20777589  1
  H+  H322  1  0.77323839  0.11723100  0.47283765  1
  H+  H323  1  0.16316618  0.58554666  0.22582857  1
  H+  H324  1  0.33093688  0.68690236  0.43272530  1
  H+  H325  1  0.55574369  0.65747857  0.11196548  1
  H+  H326  1  0.39235703  0.35053938  0.65552545  1
  H+  H327  1  0.33340271  0.40800335  0.44109710  1
  H+  H328  1  0.22662230  0.61525166  0.32170168  1
  H+  H329  1  0.84515711  0.67340644  0.76339910  1
  H+  H330  1  0.56262544  0.34142958  0.78946499  1
  H+  H331  1  0.18460827  0.90095946  0.63888006  1
  H+  H332  1  0.08387081  0.39545967  0.79170164  1
  H+  H333  1  0.84067507  0.41938211  0.72876467  1
  H+  H334  1  0.35885214  0.22480519  0.33728674  1
  H+  H335  1  0.61122612  0.88687973  0.15236544  1
  H+  H336  1  0.68880445  0.55791320  0.88754657  1
  H+  H337  1  0.59315124  0.66208707  0.44090533  1
  H+  H338  1  0.42872600  0.84144860  0.56882375  1
  H+  H339  1  0.49712519  0.70759264  0.30106261  1
  H+  H340  1  0.10296668  0.91168422  0.41227523  1
  H+  H341  1  0.32732782  0.16541591  0.39739856  1
  H+  H342  1  0.87067767  0.09920105  0.84058546  1
  H+  H343  1  0.97602966  0.10773854  0.16284778  1
  H+  H344  1  0.20208856  0.19727789  0.88368869  1
  H+  H345  1  0.33660376  0.90617551  0.10648547  1
  H+  H346  1  0.64824598  0.10461317  0.93868286  1
  H+  H347  1  0.55672082  0.36572732  0.14526310  1
  H+  H348  1  0.56311717  0.78057711  0.61965671  1
  H+  H349  1  0.67351140  0.86506949  0.89492493  1
  H+  H350  1  0.08566085  0.66646408  0.42825876  1
  H+  H351  1  0.62266992  0.23194414  0.49747029  1
  H+  H352  1  0.91402004  0.07124937  0.89348532  1
  H+  H353  1  0.41527963  0.83683001  0.89477592  1
  H+  H354  1  0.84640567  0.26459270  0.40908182  1
  H+  H355  1  0.18252726  0.33216700  0.90769654  1
  H+  H356  1  0.66156626  0.56726026  0.22967410  1
  H+  H357  1  0.81795602  0.17113292  0.10891594  1
  H+  H358  1  0.82681915  0.16349368  0.77310057  1
  H+  H359  1  0.92138333  0.58644155  0.89389401  1
  H+  H360  1  0.60969157  0.81869703  0.24686966  1
  H+  H361  1  0.90296809  0.07543625  0.60201450  1
  H+  H362  1  0.74512803  0.35961576  0.85202276  1
  H+  H363  1  0.42145249  0.09110000  0.57156735  1
  H+  H364  1  0.48858395  0.20635538  0.93890432  1
  H+  H365  1  0.31659654  0.13908753  0.74113517  1
  H+  H366  1  0.14333185  0.26858674  0.99902554  1
  H+  H367  1  0.84470868  0.43779003  0.41599763  1
  H+  H368  1  0.11148687  0.22013676  0.49488400  1
  H+  H369  1  0.32546259  0.39583910  0.08855062  1
  H+  H370  1  0.83756596  0.57520982  0.15110283  1
  H+  H371  1  0.90699287  0.33046684  0.90128278  1
  H+  H372  1  0.09044776  0.15724428  0.10061025  1
  H+  H373  1  0.12040016  0.71924344  0.33432487  1
  H+  H374  1  0.17135368  0.32863320  0.59801495  1
  H+  H375  1  0.33841130  0.40016567  0.72923766  1
  H+  H376  1  0.47784595  0.11101739  0.67606959  1
  H+  H377  1  0.82002799  0.63698782  0.10215963  1
  H+  H378  1  0.40122768  0.12885783  0.33354731  1
  H+  H379  1  0.33132508  0.67017192  0.73705394  1
  H+  H380  1  0.60756989  0.42740857  0.71446568  1
  H+  H381  1  0.44065213  0.34216001  0.23010211  1
  H+  H382  1  0.59436021  0.16559129  0.40984095  1
  H+  H383  1  0.22421471  0.60993667  0.98760699  1
  O2-  O384  1  0.08260990  0.14788671  0.14565632  1
  O2-  O385  1  0.08033233  0.15976567  0.47841180  1
  O2-  O386  1  0.09109816  0.18537591  0.79014662  1
  O2-  O387  1  0.07028817  0.42261228  0.12998449  1
  O2-  O388  1  0.08238239  0.40884495  0.48892872  1
  O2-  O389  1  0.08483785  0.41093508  0.83412380  1
  O2-  O390  1  0.05786523  0.65528904  0.14613055  1
  O2-  O391  1  0.08440494  0.66674403  0.47374567  1
  O2-  O392  1  0.08247541  0.67080290  0.80435447  1
  O2-  O393  1  0.09237989  0.94367411  0.16065859  1
  O2-  O394  1  0.09202680  0.91236362  0.48285955  1
  O2-  O395  1  0.05694207  0.91285253  0.82475586  1
  O2-  O396  1  0.36168941  0.17761378  0.13704565  1
  O2-  O397  1  0.32787602  0.16245993  0.47625408  1
  O2-  O398  1  0.33623643  0.17141823  0.82053682  1
  O2-  O399  1  0.32508844  0.40545459  0.13342154  1
  O2-  O400  1  0.33081715  0.40571797  0.48587193  1
  O2-  O401  1  0.34501541  0.41718369  0.81149343  1
  O2-  O402  1  0.32741317  0.66603124  0.13795952  1
  O2-  O403  1  0.33334702  0.69214584  0.47731432  1
  O2-  O404  1  0.32496783  0.67305216  0.82241273  1
  O2-  O405  1  0.32286295  0.90531278  0.15123065  1
  O2-  O406  1  0.33761017  0.92006139  0.48541356  1
  O2-  O407  1  0.32872431  0.91525370  0.81261499  1
  O2-  O408  1  0.65951280  0.21156843  0.13676405  1
  O2-  O409  1  0.59081513  0.16845338  0.48827553  1
  O2-  O410  1  0.55908099  0.08649704  0.78015304  1
  O2-  O411  1  0.54760938  0.38181892  0.18668146  1
  O2-  O412  1  0.58501362  0.41824556  0.47879303  1
  O2-  O413  1  0.59550013  0.38241551  0.82137751  1
  O2-  O414  1  0.56456363  0.64762261  0.15608416  1
  O2-  O415  1  0.59594736  0.66807002  0.48567425  1
  O2-  O416  1  0.59345886  0.65003767  0.81620991  1
  O2-  O417  1  0.58490465  0.92157906  0.13885026  1
  O2-  O418  1  0.58988433  0.91771117  0.47767125  1
  O2-  O419  1  0.58558124  0.92738916  0.81154811  1
  O2-  O420  1  0.83076263  0.17854586  0.15306116  1
  O2-  O421  1  0.79894185  0.12998691  0.51319949  1
  O2-  O422  1  0.82616698  0.16355625  0.81839113  1
  O2-  O423  1  0.86267727  0.46280122  0.19292064  1
  O2-  O424  1  0.84638626  0.43205707  0.46201095  1
  O2-  O425  1  0.83499920  0.41702843  0.81034629  1
  O2-  O426  1  0.80933136  0.61387380  0.14586788  1
  O2-  O427  1  0.83875678  0.66879979  0.47663550  1
  O2-  O428  1  0.84261310  0.67032268  0.80895664  1
  O2-  O429  1  0.82393705  0.90719690  0.14999211  1
  O2-  O430  1  0.84890052  0.91150043  0.47528451  1
  O2-  O431  1  0.82553608  0.91041341  0.81856787  1
  O2-  O432  1  0.15072881  0.03608921  0.17152836  1
  O2-  O433  1  0.16392720  0.07559002  0.52050395  1
  O2-  O434  1  0.18933430  0.13910242  0.87437420  1
  O2-  O435  1  0.17955716  0.31197884  0.20138621  1
  O2-  O436  1  0.16462403  0.32203016  0.52076047  1
  O2-  O437  1  0.18677577  0.33951331  0.86227270  1
  O2-  O438  1  0.15802400  0.58769044  0.18088029  1
  O2-  O439  1  0.16533746  0.58142061  0.51527104  1
  O2-  O440  1  0.15520902  0.57867207  0.85204701  1
  O2-  O441  1  0.15403953  0.83287308  0.18579856  1
  O2-  O442  1  0.17858311  0.82960098  0.51761714  1
  O2-  O443  1  0.15942361  0.84024465  0.84898728  1
  O2-  O444  1  0.43820376  0.07714691  0.16122715  1
  O2-  O445  1  0.41789746  0.09081700  0.52630066  1
  O2-  O446  1  0.43570418  0.07843894  0.83770481  1
  O2-  O447  1  0.45426372  0.34808149  0.18527013  1
  O2-  O448  1  0.41349417  0.32342480  0.51900265  1
  O2-  O449  1  0.41725487  0.32949919  0.85154855  1
  O2-  O450  1  0.40736593  0.58083666  0.19980330  1
  O2-  O451  1  0.42614320  0.57393011  0.53333862  1
  O2-  O452  1  0.43644668  0.58785343  0.84522666  1
  O2-  O453  1  0.41847870  0.83251309  0.18365813  1
  O2-  O454  1  0.43062967  0.84589744  0.52374928  1
  O2-  O455  1  0.41079889  0.83444122  0.84944691  1
  O2-  O456  1  0.66118423  0.07846434  0.19946266  1
  O2-  O457  1  0.65227179  0.09468720  0.57921877  1
  O2-  O458  1  0.67649088  0.15773945  0.86923093  1
  O2-  O459  1  0.69273425  0.36444550  0.20138174  1
  O2-  O460  1  0.67602063  0.33775494  0.50859736  1
  O2-  O461  1  0.69114219  0.32446277  0.87655111  1
  O2-  O462  1  0.65404104  0.55545880  0.18476874  1
  O2-  O463  1  0.67473576  0.58155476  0.51975672  1
  O2-  O464  1  0.67852230  0.56041685  0.84343974  1
  O2-  O465  1  0.65574943  0.82514805  0.18146156  1
  O2-  O466  1  0.68058266  0.83608433  0.51383964  1
  O2-  O467  1  0.67525594  0.86118813  0.85067830  1
  O2-  O468  1  0.91569750  0.07937572  0.17865417  1
  O2-  O469  1  0.91611253  0.07063610  0.52100477  1
  O2-  O470  1  0.89724185  0.06343748  0.85038938  1
  O2-  O471  1  0.89304488  0.35708325  0.13846387  1
  O2-  O472  1  0.87884385  0.30173870  0.53273724  1
  O2-  O473  1  0.91244807  0.33220529  0.85606491  1
  O2-  O474  1  0.88822499  0.53096109  0.14599447  1
  O2-  O475  1  0.92364845  0.59163648  0.51713702  1
  O2-  O476  1  0.91938459  0.58366415  0.84876725  1
  O2-  O477  1  0.91482877  0.83254645  0.18006848  1
  O2-  O478  1  0.92622744  0.82909180  0.51852128  1
  O2-  O479  1  0.90083161  0.82901096  0.86558174  1
  O2-  O480  1  0.17424334  0.09251476  0.29320485  1
  O2-  O481  1  0.15425833  0.06284386  0.64755134  1
  O2-  O482  1  0.17104686  0.07666937  0.98678119  1
  O2-  O483  1  0.17103712  0.34690247  0.31147459  1
  O2-  O484  1  0.17196440  0.33113007  0.64357052  1
  O2-  O485  1  0.17275112  0.32843817  0.98242694  1
  O2-  O486  1  0.16631343  0.58069719  0.30558343  1
  O2-  O487  1  0.17958522  0.60475021  0.63859919  1
  O2-  O488  1  0.16295511  0.58037702  0.97388353  1
  O2-  O489  1  0.17279518  0.82339013  0.30721764  1
  O2-  O490  1  0.18557996  0.84750694  0.63508995  1
  O2-  O491  1  0.09632407  0.80418171  0.96177229  1
  O2-  O492  1  0.43896554  0.10561280  0.32103292  1
  O2-  O493  1  0.42433119  0.08275494  0.65188482  1
  O2-  O494  1  0.46041781  0.14526697  0.94817019  1
  O2-  O495  1  0.41638702  0.32979473  0.30681429  1
  O2-  O496  1  0.42559896  0.32577461  0.63551094  1
  O2-  O497  1  0.41974402  0.32809930  0.99530373  1
  O2-  O498  1  0.45729762  0.64578479  0.31176862  1
  O2-  O499  1  0.44920830  0.62060743  0.64886840  1
  O2-  O500  1  0.41068427  0.58009386  0.97266589  1
  O2-  O501  1  0.42182911  0.84124486  0.31026834  1
  O2-  O502  1  0.42986169  0.84029980  0.65036031  1
  O2-  O503  1  0.42196478  0.82931381  0.97253015  1
  O2-  O504  1  0.64928240  0.07839960  0.31958796  1
  O2-  O505  1  0.66588251  0.09635779  0.64549439  1
  O2-  O506  1  0.64277077  0.08657896  0.98254167  1
  O2-  O507  1  0.67142261  0.34142968  0.31859333  1
  O2-  O508  1  0.68694041  0.34333419  0.62555640  1
  O2-  O509  1  0.70102387  0.39775578  0.98687958  1
  O2-  O510  1  0.66780477  0.57434248  0.30640901  1
  O2-  O511  1  0.67488763  0.58927972  0.64171741  1
  O2-  O512  1  0.70812659  0.54872368  0.96480734  1
  O2-  O513  1  0.56999489  0.80976219  0.28223392  1
  O2-  O514  1  0.62231781  0.81096398  0.63454222  1
  O2-  O515  1  0.67581601  0.82653765  0.98085940  1
  O2-  O516  1  0.97485177  0.07186781  0.29417156  1
  O2-  O517  1  0.90461603  0.07918990  0.64709077  1
  O2-  O518  1  0.93625701  0.06698058  0.97692671  1
  O2-  O519  1  0.93128587  0.36875970  0.29408344  1
  O2-  O520  1  0.92408482  0.33140035  0.64795742  1
  O2-  O521  1  0.91173809  0.33481866  0.97944217  1
  O2-  O522  1  0.93108826  0.60918075  0.30415319  1
  O2-  O523  1  0.92190660  0.58493880  0.64209998  1
  O2-  O524  1  0.92523035  0.58394099  0.97477420  1
  O2-  O525  1  0.95596948  0.83531343  0.30525242  1
  O2-  O526  1  0.90680195  0.82572645  0.63884646  1
  O2-  O527  1  0.90885551  0.82333415  0.99063538  1
  O2-  O528  1  0.09975873  0.16545045  0.02395661  1
  O2-  O529  1  0.10108186  0.18859989  0.35263995  1
  O2-  O530  1  0.06801075  0.15592184  0.64701443  1
  O2-  O531  1  0.08983035  0.41515877  0.01343232  1
  O2-  O532  1  0.09059138  0.42226501  0.33127163  1
  O2-  O533  1  0.09217743  0.43318596  0.66628925  1
  O2-  O534  1  0.08609433  0.66476330  0.02499135  1
  O2-  O535  1  0.08590319  0.65919764  0.34979953  1
  O2-  O536  1  0.08853300  0.67835844  0.68202856  1
  O2-  O537  1  0.07098170  0.91953117  0.03130039  1
  O2-  O538  1  0.11239437  0.91401924  0.36605904  1
  O2-  O539  1  0.05859533  0.91497367  0.69665914  1
  O2-  O540  1  0.33397784  0.15548081  0.01995012  1
  O2-  O541  1  0.32738631  0.16391012  0.35172977  1
  O2-  O542  1  0.29977390  0.11167226  0.70085957  1
  O2-  O543  1  0.34082820  0.41698051  0.01207131  1
  O2-  O544  1  0.33354375  0.41425491  0.35564065  1
  O2-  O545  1  0.33839906  0.39380705  0.68472808  1
  O2-  O546  1  0.32990561  0.66403427  0.01188391  1
  O2-  O547  1  0.32639174  0.67470933  0.34924440  1
  O2-  O548  1  0.33817337  0.67551207  0.69252974  1
  O2-  O549  1  0.39054909  0.93358627  0.04228063  1
  O2-  O550  1  0.33973924  0.92965313  0.30390627  1
  O2-  O551  1  0.34406447  0.91674786  0.69115270  1
  O2-  O552  1  0.54069794  0.12595040  0.05256834  1
  O2-  O553  1  0.59346207  0.16713907  0.36419682  1
  O2-  O554  1  0.57193696  0.14471310  0.72885037  1
  O2-  O555  1  0.57411579  0.38184271  0.06357707  1
  O2-  O556  1  0.57565820  0.41074700  0.35479216  1
  O2-  O557  1  0.60317744  0.42525480  0.67038094  1
  O2-  O558  1  0.53209475  0.69371969  0.05139452  1
  O2-  O559  1  0.60094055  0.66348289  0.35980040  1
  O2-  O560  1  0.59893372  0.67385971  0.69398412  1
  O2-  O561  1  0.58874443  0.91846674  0.01255451  1
  O2-  O562  1  0.57714579  0.92951645  0.36561691  1
  O2-  O563  1  0.59211793  0.93673552  0.68439761  1
  O2-  O564  1  0.79843808  0.17385285  0.02801769  1
  O2-  O565  1  0.82548297  0.24152671  0.36859125  1
  O2-  O566  1  0.83700300  0.17055487  0.69064636  1
  O2-  O567  1  0.84591320  0.42551516  0.04914537  1
  O2-  O568  1  0.83807145  0.44378015  0.34377890  1
  O2-  O569  1  0.84716230  0.41902536  0.68377742  1
  O2-  O570  1  0.84513758  0.66175519  0.03237742  1
  O2-  O571  1  0.82429449  0.69017979  0.36129869  1
  O2-  O572  1  0.83764263  0.66692142  0.68560991  1
  O2-  O573  1  0.83323955  0.91149312  0.02766990  1
  O2-  O574  1  0.87485916  0.92157036  0.34901851  1
  O2-  O575  1  0.82587091  0.90856152  0.66839438  1
