# generated using pymatgen
data_H2O
_symmetry_space_group_name_H-M   'P 1'
_cell_length_a   17.98380424
_cell_length_b   17.97697483
_cell_length_c   21.99045023
_cell_angle_alpha   89.98849131
_cell_angle_beta   90.03252046
_cell_angle_gamma   120.03566488
_symmetry_Int_Tables_number   1
_chemical_formula_structural   H2O
_chemical_formula_sum   'H384 O192'
_cell_volume   6154.69686307
_cell_formula_units_Z   192
loop_
 _symmetry_equiv_pos_site_id
 _symmetry_equiv_pos_as_xyz
  1  'x, y, z'
loop_
 _atom_type_symbol
 _atom_type_oxidation_number
  H+  1.0
  O2-  -2.0
loop_
 _atom_site_type_symbol
 _atom_site_label
 _atom_site_symmetry_multiplicity
 _atom_site_fract_x
 _atom_site_fract_y
 _atom_site_fract_z
 _atom_site_occupancy
  H+  H0  1  0.27108285  0.13578293  0.00857148  1
  H+  H1  1  0.39514259  1.04354739  0.84296508  1
  H+  H2  1  0.00318698  0.86945539  0.31726412  1
  H+  H3  1  0.97017499  0.61187928  0.49985372  1
  H+  H4  1  0.52642260  0.64357132  0.83260651  1
  H+  H5  1  0.36150575  0.62113202  0.17021344  1
  H+  H6  1  0.34532357  -0.08213292  0.42570761  1
  H+  H7  1  0.36822887  -0.01840342  1.01700987  1
  H+  H8  1  0.36965029  0.89309119  0.01707696  1
  H+  H9  1  0.48537099  0.85639140  0.17757561  1
  H+  H10  1  0.62835793  0.44005613  0.07861648  1
  H+  H11  1  1.02339995  0.63478276  1.00734809  1
  H+  H12  1  0.01723262  0.62122010  0.82722031  1
  H+  H13  1  -0.03014050  0.86815557  0.82965357  1
  H+  H14  1  0.41014402  0.83907647  0.59491583  1
  H+  H15  1  0.61958021  0.72054993  0.00570229  1
  H+  H16  1  0.11242174  0.13656901  0.01169247  1
  H+  H17  1  -0.02969800  0.60243852  0.65262929  1
  H+  H18  1  0.71116995  -0.06608447  0.82319763  1
  H+  H19  1  0.86044492  0.38645696  0.49067226  1
  H+  H20  1  0.13161359  0.27759475  0.83715532  1
  H+  H21  1  0.64363834  0.28990555  0.67020611  1
  H+  H22  1  0.24527075  0.15314972  0.85020522  1
  H+  H23  1  0.36603155  0.88310354  0.33556945  1
  H+  H24  1  0.27789703  0.67847762  0.14694316  1
  H+  H25  1  0.96833242  0.35594222  0.65724542  1
  H+  H26  1  0.02630180  0.38931002  0.34297414  1
  H+  H27  1  0.86977597  0.11864387  0.81115198  1
  H+  H28  1  0.86429125  0.38699897  0.66876250  1
  H+  H29  1  0.81834320  0.65258740  0.05674509  1
  H+  H30  1  0.71802541  0.36400169  0.49109831  1
  H+  H31  1  0.36672841  0.72103018  0.48996163  1
  H+  H32  1  0.72730092  0.36421872  0.32564243  1
  H+  H33  1  0.03440390  0.89259883  0.14373670  1
  H+  H34  1  0.27190325  0.39027698  -0.00132782  1
  H+  H35  1  0.15891128  0.11839697  0.31947430  1
  H+  H36  1  0.88187559  0.51997139  0.84278134  1
  H+  H37  1  0.87400610  0.15883279  0.33041107  1
  H+  H38  1  0.47847130  0.11354588  0.17569821  1
  H+  H39  1  0.39173678  0.78097106  1.00308879  1
  H+  H40  1  0.50854478  0.60594917  0.46656203  1
  H+  H41  1  0.35259276  0.45944179  0.47392930  1
  H+  H42  1  0.10631741  0.23178807  0.67572321  1
  H+  H43  1  0.34946039  0.12897560  0.67476037  1
  H+  H44  1  0.12005799  0.39601912  0.35359574  1
  H+  H45  1  0.90952758  0.56906956  0.58894222  1
  H+  H46  1  0.46210454  0.34670392  0.50400946  1
  H+  H47  1  0.12705961  0.75944754  0.17510294  1
  H+  H48  1  0.61899024  0.88541401  0.01079759  1
  H+  H49  1  0.61760866  0.73054319  0.68169343  1
  H+  H50  1  0.12721732  0.11282978  0.16676354  1
  H+  H51  1  0.62415098  0.49128366  0.67100713  1
  H+  H52  1  0.89892151  0.28524573  0.99047844  1
  H+  H53  1  0.74640199  0.62532225  0.32256786  1
  H+  H54  1  0.31966440  0.75924196  0.67429202  1
  H+  H55  1  0.61628519  0.22927070  0.33934558  1
  H+  H56  1  0.47222712  0.36057404  0.98802050  1
  H+  H57  1  0.46752508  0.12774759  0.66358011  1
  H+  H58  1  0.48872915  0.86349585  0.51178584  1
  H+  H59  1  0.62646743  0.40242364  0.33812345  1
  H+  H60  1  0.60442670  0.47806573  0.82536865  1
  H+  H61  1  0.76749271  0.63321912  0.83902846  1
  H+  H62  1  0.13711956  0.62232285  0.50107536  1
  H+  H63  1  0.13980299  0.61576615  0.99721592  1
  H+  H64  1  0.12551549  0.52170855  0.32446520  1
  H+  H65  1  0.74419119  0.85798903  0.15743286  1
  H+  H66  1  0.35973847  0.22566930  0.00041774  1
  H+  H67  1  0.13206004  0.35899129  0.16548157  1
  H+  H68  1  0.19732595  0.61941334  0.65887338  1
  H+  H69  1  0.87426691  0.64290904  0.34171984  1
  H+  H70  1  0.58961941  0.70699743  0.17295158  1
  H+  H71  1  0.83913664  0.10878798  0.15775990  1
  H+  H72  1  0.10222909  0.91992100  -0.04203921  1
  H+  H73  1  0.61046021  0.07466072  0.82808938  1
  H+  H74  1  0.62964949  0.27544031  0.49409315  1
  H+  H75  1  0.13173209  0.85082277  0.16852389  1
  H+  H76  1  0.36960171  0.40564790  0.14083966  1
  H+  H77  1  0.37224488  0.78337904  0.86237228  1
  H+  H78  1  0.27424472  0.16239448  0.15461672  1
  H+  H79  1  0.87380830  0.88227953  0.78174324  1
  H+  H80  1  0.91674205  0.87181500  0.31904410  1
  H+  H81  1  0.86592015  0.98607332  0.00351760  1
  H+  H82  1  0.65180092  0.11298928  0.03916007  1
  H+  H83  1  0.63834787  0.11053647  0.34476296  1
  H+  H84  1  0.44448423  0.61077245  0.18409812  1
  H+  H85  1  0.22599594  0.10330670  0.50685334  1
  H+  H86  1  0.13159674  0.36604209  0.83785726  1
  H+  H87  1  0.38994950  0.11633478  1.00066796  1
  H+  H88  1  0.85848823  0.47446788  0.48917981  1
  H+  H89  1  0.47553667  0.11188921  0.50570480  1
  H+  H90  1  0.89510534  -0.01857776  0.31647113  1
  H+  H91  1  0.27249600  0.71768290  0.73685148  1
  H+  H92  1  0.77582231  0.38069267  0.16205457  1
  H+  H93  1  0.88830326  0.51967941  -0.00648607  1
  H+  H94  1  0.11256001  0.72421497  0.01289717  1
  H+  H95  1  0.63575942  0.28500213  0.17227380  1
  H+  H96  1  0.89646522  0.29034370  0.32443900  1
  H+  H97  1  0.36587002  0.23550191  0.82173832  1
  H+  H98  1  0.80149418  0.88223206  0.73685295  1
  H+  H99  1  0.10587202  0.47134466  0.82805538  1
  H+  H100  1  0.63930676  0.64978437  0.31679807  1
  H+  H101  1  0.27228233  0.39724539  0.83113332  1
  H+  H102  1  0.52042289  0.37149040  0.06251578  1
  H+  H103  1  0.35473117  -0.01462698  0.67388647  1
  H+  H104  1  0.89378235  0.28090373  0.50325665  1
  H+  H105  1  0.50142027  0.34518379  0.64733566  1
  H+  H106  1  0.12265672  0.21930867  0.50341367  1
  H+  H107  1  0.33275813  0.18026462  0.09656029  1
  H+  H108  1  0.46163474  0.86407170  0.65843367  1
  H+  H109  1  0.86893980  0.97786554  0.15796786  1
  H+  H110  1  0.73222503  0.62385626  0.66884182  1
  H+  H111  1  0.12482908  0.87080297  0.47687056  1
  H+  H112  1  0.40149488  0.86519638  0.49858726  1
  H+  H113  1  0.14983286  0.86977117  0.32019229  1
  H+  H114  1  0.65225760  0.53675936  0.16235938  1
  H+  H115  1  0.87203578  0.90022939  0.00009940  1
  H+  H116  1  0.61937396  0.34867797  1.00246956  1
  H+  H117  1  0.39411017  0.11587411  0.32894122  1
  H+  H118  1  0.40646945  0.36890611  0.39739101  1
  H+  H119  1  0.02544517  0.38232831  0.14806248  1
  H+  H120  1  0.38993613  0.53780100  0.84536641  1
  H+  H121  1  0.91819693  0.86013278  0.92483017  1
  H+  H122  1  0.97061331  0.11432480  0.17280122  1
  H+  H123  1  0.60353824  0.83919128  0.84899224  1
  H+  H124  1  0.67087718  0.83618792  0.93731127  1
  H+  H125  1  0.42838449  0.57561228  0.32171467  1
  H+  H126  1  0.02017534  0.87426065  0.67610276  1
  H+  H127  1  0.89354867  0.51191651  0.18085788  1
  H+  H128  1  0.10607119  0.89532867  0.83620988  1
  H+  H129  1  0.38593412  0.76837812  0.16697767  1
  H+  H130  1  0.38080958  0.59983234  0.49691187  1
  H+  H131  1  0.66344469  0.38553201  0.16417767  1
  H+  H132  1  0.76637620  0.38101018  0.00685958  1
  H+  H133  1  0.98442684  0.10874784  0.82872577  1
  H+  H134  1  0.36107500  0.39691005  0.82916814  1
  H+  H135  1  0.10529420  0.16163173  0.41110375  1
  H+  H136  1  0.72575978  0.50392868  0.10398043  1
  H+  H137  1  0.39178286  0.98549869  0.17067009  1
  H+  H138  1  0.87475338  0.26362455  0.83587932  1
  H+  H139  1  0.90240621  0.01528076  0.81960972  1
  H+  H140  1  0.89456453  0.86218430  0.68546697  1
  H+  H141  1  0.36195567  0.14458573  0.83130749  1
  H+  H142  1  0.76635175  0.65615948  0.15109483  1
  H+  H143  1  1.03272650  0.39749265  1.00654099  1
  H+  H144  1  1.03089070  0.12984545  0.49802610  1
  H+  H145  1  0.10667305  0.98745448  0.49806719  1
  H+  H146  1  0.88582817  1.02227909  0.50912182  1
  H+  H147  1  0.59719881  0.15077311  0.69448633  1
  H+  H148  1  0.13126923  0.01817772  0.99767827  1
  H+  H149  1  0.52687496  0.63842006  0.00633931  1
  H+  H150  1  0.12083208  0.15603726  0.82837353  1
  H+  H151  1  0.23773082  0.10255114  0.67216412  1
  H+  H152  1  0.85692786  0.72131200  0.68703122  1
  H+  H153  1  0.66400685  0.78615861  0.33294071  1
  H+  H154  1  0.27955226  0.88817294  0.33453217  1
  H+  H155  1  0.28182850  0.64771201  0.01021690  1
  H+  H156  1  0.89464950  1.01365908  0.68592853  1
  H+  H157  1  0.88134618  0.77783997  0.51655644  1
  H+  H158  1  0.61576381  0.27617897  0.83925892  1
  H+  H159  1  0.39428468  0.29630055  0.14025401  1
  H+  H160  1  0.13645115  0.36504345  0.99478422  1
  H+  H161  1  0.74025519  0.11746909  1.02328304  1
  H+  H162  1  0.29157726  0.14788077  0.33186215  1
  H+  H163  1  0.22973085  0.86617238  0.01166744  1
  H+  H164  1  0.40284169  0.29440149  0.35815085  1
  H+  H165  1  0.89924355  0.37921966  0.32625430  1
  H+  H166  1  0.49161661  0.87720201  0.84157397  1
  H+  H167  1  0.54660124  0.41309740  0.35709463  1
  H+  H168  1  0.42995110  0.30372989  0.59723695  1
  H+  H169  1  0.35259583  0.21215101  0.49059695  1
  H+  H170  1  0.88497301  0.34983570  0.15341969  1
  H+  H171  1  0.21775397  0.35509794  0.16283623  1
  H+  H172  1  0.34779095  0.48204527  0.15252303  1
  H+  H173  1  0.63841511  0.95910798  0.81313106  1
  H+  H174  1  0.22648766  0.85978671  0.66306374  1
  H+  H175  1  0.60835869  0.39205694  0.82399975  1
  H+  H176  1  0.87888442  0.77987554  0.83422159  1
  H+  H177  1  0.75367343  0.60352337  1.00160957  1
  H+  H178  1  0.36447519  0.90504697  0.83588058  1
  H+  H179  1  0.33489343  0.59911978  0.63780311  1
  H+  H180  1  0.63229752  0.61087298  0.84580094  1
  H+  H181  1  0.39519690  0.88180989  0.16877642  1
  H+  H182  1  0.21360233  0.58292166  0.18663196  1
  H+  H183  1  1.00933016  0.16446526  0.31994443  1
  H+  H184  1  0.47217816  0.36851181  0.83326957  1
  H+  H185  1  0.10065751  0.72421291  0.47945399  1
  H+  H186  1  0.10878006  0.87174792  0.67364355  1
  H+  H187  1  0.10607891  0.48332998  0.49655218  1
  H+  H188  1  0.36549166  0.46149720  0.67000741  1
  H+  H189  1  0.22822847  0.34328610  0.51131177  1
  H+  H190  1  0.37791047  0.61930382  0.65335562  1
  H+  H191  1  0.67251656  0.58464064  0.22805444  1
  H+  H192  1  0.38935544  0.62205804  -0.00125433  1
  H+  H193  1  0.39219261  1.02473029  0.32884577  1
  H+  H194  1  0.62324525  0.64499273  0.67814266  1
  H+  H195  1  0.98401323  0.11807200  0.98568585  1
  H+  H196  1  0.97818185  0.37411223  0.50660655  1
  H+  H197  1  0.88164971  0.14429156  0.48950357  1
  H+  H198  1  0.66193804  1.03497449  0.51658298  1
  H+  H199  1  0.72083220  0.12875622  0.19529680  1
  H+  H200  1  0.77341782  0.38996796  0.67287127  1
  H+  H201  1  0.85787074  0.38414450  0.00340845  1
  H+  H202  1  0.61615918  0.86848833  0.16489619  1
  H+  H203  1  0.33075094  0.61936207  0.33973476  1
  H+  H204  1  0.71133931  0.71788578  0.53979995  1
  H+  H205  1  0.76727794  0.38926465  0.83000887  1
  H+  H206  1  0.90202552  0.87138182  0.16586155  1
  H+  H207  1  0.10412790  0.22669363  0.15968917  1
  H+  H208  1  0.38567056  0.36652477  0.98761711  1
  H+  H209  1  0.73030172  0.11699204  0.33887002  1
  H+  H210  1  0.75209011  0.04653266  0.80598048  1
  H+  H211  1  0.65590941  0.53496620  0.32429230  1
  H+  H212  1  0.09813925  0.71085325  0.66967804  1
  H+  H213  1  0.14484353  0.52908738  0.99863414  1
  H+  H214  1  0.62391711  -0.02507562  1.02966407  1
  H+  H215  1  0.35884391  0.89908333  0.67103529  1
  H+  H216  1  0.37019384  0.34101684  0.49916007  1
  H+  H217  1  0.47516875  0.37683561  0.17020290  1
  H+  H218  1  0.76079658  0.10318216  0.11558194  1
  H+  H219  1  0.88293687  0.14965350  -0.00198880  1
  H+  H220  1  0.26930661  0.64224835  0.85279920  1
  H+  H221  1  0.61317834  0.13886537  0.48869747  1
  H+  H222  1  0.62007809  0.59321066  0.99563002  1
  H+  H223  1  0.67920099  0.61102265  0.60557115  1
  H+  H224  1  0.64811223  0.90085786  0.37807160  1
  H+  H225  1  0.23159019  0.89295021  0.85381765  1
  H+  H226  1  0.92078765  0.34089855  0.93044265  1
  H+  H227  1  0.98318002  0.88808714  0.98186925  1
  H+  H228  1  0.24715408  0.62807973  0.33818354  1
  H+  H229  1  0.73421753  0.86821033  0.99487755  1
  H+  H230  1  0.84187971  0.88705213  0.50808721  1
  H+  H231  1  0.84334983  0.13145114  0.66363732  1
  H+  H232  1  0.57869867  0.67113336  0.27840706  1
  H+  H233  1  0.86237932  0.73483964  0.14745202  1
  H+  H234  1  0.88367880  0.73610081  0.33886498  1
  H+  H235  1  0.57447058  0.05251289  0.85081194  1
  H+  H236  1  0.11166953  0.22634362  1.00651921  1
  H+  H237  1  0.18432522  0.31499806  0.34765938  1
  H+  H238  1  0.12763378  0.59836383  0.84191252  1
  H+  H239  1  0.47792189  0.14041686  0.84762957  1
  H+  H240  1  0.11629779  0.62196590  0.16499466  1
  H+  H241  1  0.87791404  0.49959947  0.65520952  1
  H+  H242  1  0.86101145  0.48083395  0.33735694  1
  H+  H243  1  0.87988627  0.60311975  -0.00713481  1
  H+  H244  1  0.41974691  0.08785340  0.94201097  1
  H+  H245  1  0.14234527  0.99704830  0.32402231  1
  H+  H246  1  0.61298454  0.15494803  0.17352811  1
  H+  H247  1  0.11121634  0.47629881  0.16183303  1
  H+  H248  1  0.88093200  0.25882267  0.15303852  1
  H+  H249  1  0.37234135  0.56394596  0.26331443  1
  H+  H250  1  0.13933973  0.11066372  0.51185361  1
  H+  H251  1  0.92990724  0.08652520  0.35359030  1
  H+  H252  1  0.58440317  -0.02726919  0.69318609  1
  H+  H253  1  0.36740382  0.76333186  0.32701618  1
  H+  H254  1  0.93580979  0.83921102  0.22213246  1
  H+  H255  1  0.52689159  0.13885327  0.33876612  1
  H+  H256  1  0.10079521  0.46945690  0.66824649  1
  H+  H257  1  0.22214162  0.36218676  0.66648153  1
  H+  H258  1  0.60748139  0.49703677  0.99728547  1
  H+  H259  1  0.78203985  0.66028195  0.49304337  1
  H+  H260  1  0.66143544  0.89331339  0.57288359  1
  H+  H261  1  0.16528551  0.84130991  0.42636284  1
  H+  H262  1  0.10953091  0.63149916  0.33215338  1
  H+  H263  1  0.22674613  0.62101214  0.50424056  1
  H+  H264  1  0.09045780  0.61869071  0.66350532  1
  H+  H265  1  0.85807156  0.63580532  0.83694030  1
  H+  H266  1  0.35624068  0.12453988  0.49227822  1
  H+  H267  1  0.33347415  0.16069528  0.39795872  1
  H+  H268  1  0.50099893  0.59370441  0.64491352  1
  H+  H269  1  0.16725978  0.82701034  0.26268731  1
  H+  H270  1  0.32895283  0.42425687  0.73613201  1
  H+  H271  1  0.69956928  0.42462585  0.88035994  1
  H+  H272  1  0.17529351  0.85256257  0.91331807  1
  H+  H273  1  0.70601565  0.11397551  0.67160963  1
  H+  H274  1  0.48282403  0.86969772  0.00472102  1
  H+  H275  1  0.87361410  0.35255895  0.83439226  1
  H+  H276  1  0.22558960  0.21251431  0.89107761  1
  H+  H277  1  0.97565389  0.61320088  0.32812524  1
  H+  H278  1  0.88290789  0.61574528  0.50459223  1
  H+  H279  1  0.36442578  0.65545605  0.85351493  1
  H+  H280  1  0.86353615  0.18267146  0.06032886  1
  H+  H281  1  0.58932243  0.45909582  0.51781773  1
  H+  H282  1  0.38475643  0.52989363  0.99406919  1
  H+  H283  1  0.11467463  0.72437754  0.33440404  1
  H+  H284  1  0.61567453  0.22236067  0.01134555  1
  H+  H285  1  0.13946987  0.03007880  0.15976569  1
  H+  H286  1  0.13151740  1.00070284  0.66043585  1
  H+  H287  1  0.13202952  0.36140528  0.66036696  1
  H+  H288  1  0.34068607  0.68170154  0.07163342  1
  H+  H289  1  0.60308968  0.89823519  0.68180153  1
  H+  H290  1  0.98274908  0.59989806  0.18127835  1
  H+  H291  1  0.76317960  0.90469168  0.50187800  1
  H+  H292  1  0.09098267  0.42287071  0.06786291  1
  H+  H293  1  0.65795055  0.33314296  0.94042592  1
  H+  H294  1  0.91692346  0.58009265  0.26819893  1
  H+  H295  1  0.12217527  0.94840970  0.38778905  1
  H+  H296  1  0.17942061  0.09165752  0.25325072  1
  H+  H297  1  0.84348959  0.68041783  0.43454841  1
  H+  H298  1  0.07958766  0.91222725  0.77118629  1
  H+  H299  1  0.58382797  0.66726303  0.77209828  1
  H+  H300  1  0.07017314  0.64133675  0.76600491  1
  H+  H301  1  0.58922270  0.42860863  0.72930403  1
  H+  H302  1  0.17052416  0.31835924  0.57242849  1
  H+  H303  1  0.41397569  0.33741950  0.89386993  1
  H+  H304  1  0.66660945  0.33695286  0.26740959  1
  H+  H305  1  0.91478578  0.57915520  0.90244854  1
  H+  H306  1  0.69500267  0.80404597  0.21452938  1
  H+  H307  1  0.84650822  0.92564544  0.09394374  1
  H+  H308  1  0.66107289  0.09590752  0.25347270  1
  H+  H309  1  0.85225052  0.22569062  0.66464931  1
  H+  H310  1  0.42201758  0.56318129  0.54607272  1
  H+  H311  1  0.52847924  0.13260438  0.01382311  1
  H+  H312  1  0.06976224  0.16431326  0.10125636  1
  H+  H313  1  0.61525282  0.92804848  0.45848533  1
  H+  H314  1  0.57198664  0.64124051  0.40924718  1
  H+  H315  1  0.84890529  0.18255373  0.39328753  1
  H+  H316  1  0.58357604  0.89919266  0.10899006  1
  H+  H317  1  0.09310999  0.92300790  0.08477572  1
  H+  H318  1  0.01447756  0.14747183  0.67925522  1
  H+  H319  1  0.48589051  0.51056358  0.61100892  1
  H+  H320  1  0.08509348  0.65332591  0.10542962  1
  H+  H321  1  0.33003866  0.61880301  0.74772667  1
  H+  H322  1  0.40841167  0.82369323  0.26915357  1
  H+  H323  1  0.15063048  0.57262066  0.25738797  1
  H+  H324  1  0.33707638  0.93203242  0.77332992  1
  H+  H325  1  0.57851954  0.16403356  0.42985883  1
  H+  H326  1  0.91528296  0.08659278  0.23354338  1
  H+  H327  1  0.28748653  0.57918788  0.75358754  1
  H+  H328  1  0.82024720  0.66053540  0.74501149  1
  H+  H329  1  0.92407289  0.08415743  0.92528355  1
  H+  H330  1  0.79341638  0.14401857  0.48218977  1
  H+  H331  1  0.16107012  0.33405732  0.93329251  1
  H+  H332  1  0.28496593  0.88733707  0.48330564  1
  H+  H333  1  0.91921781  0.07939676  0.56826523  1
  H+  H334  1  0.08179692  0.17245080  0.76479986  1
  H+  H335  1  0.03274655  0.93391080  0.44814472  1
  H+  H336  1  0.65000712  0.56734617  0.90433615  1
  H+  H337  1  0.15349423  0.57875247  0.59463299  1
  H+  H338  1  0.35622328  0.92168091  0.10836739  1
  H+  H339  1  0.32274190  0.65974725  0.43206781  1
  H+  H340  1  0.32971967  0.42331999  0.05823664  1
  H+  H341  1  0.90383417  0.83266675  0.61720071  1
  H+  H342  1  0.71175845  0.12281899  0.55450678  1
  H+  H343  1  0.39010152  0.02106465  0.50593198  1
  H+  H344  1  0.65481559  0.38331885  0.66664422  1
  H+  H345  1  0.81533123  0.90353407  0.34733611  1
  H+  H346  1  0.58633941  0.61968391  0.18574766  1
  H+  H347  1  0.07413212  0.41290951  0.72931902  1
  H+  H348  1  0.58510769  0.17349859  0.10778980  1
  H+  H349  1  0.31374851  0.15090220  0.73823691  1
  H+  H350  1  0.01612143  0.38199553  0.82317244  1
  H+  H351  1  0.14098574  0.86716136  0.00671012  1
  H+  H352  1  0.26508381  0.40785834  0.32884338  1
  H+  H353  1  0.07641894  0.42292529  0.43830458  1
  H+  H354  1  0.61508404  0.18815802  0.83487264  1
  H+  H355  1  0.91118664  0.33088240  0.59594021  1
  H+  H356  1  0.81247626  -0.00813498  0.65049607  1
  H+  H357  1  0.32324049  0.29750687  0.25640353  1
  H+  H358  1  0.82691779  0.14810059  0.75649452  1
  H+  H359  1  0.83127599  0.41180816  0.10061294  1
  H+  H360  1  0.53495042  0.88355017  0.77423422  1
  H+  H361  1  0.64248516  0.64348503  0.49874890  1
  H+  H362  1  0.16707594  0.06713403  0.60177659  1
  H+  H363  1  0.15820076  0.57381987  0.90469221  1
  H+  H364  1  0.42350575  0.59435080  0.90617814  1
  H+  H365  1  0.83144671  0.41789865  0.39493780  1
  H+  H366  1  0.71433259  0.06814747  0.91700553  1
  H+  H367  1  0.17110910  0.09967020  0.94813273  1
  H+  H368  1  0.41221127  0.85144693  0.91671001  1
  H+  H369  1  0.73070603  0.11510083  0.91159838  1
  H+  H370  1  0.56972059  0.19762919  0.74340472  1
  H+  H371  1  0.96191917  0.87002376  0.52459599  1
  H+  H372  1  0.69347735  0.87343540  0.29807218  1
  H+  H373  1  0.60014828  0.38134263  0.49532185  1
  H+  H374  1  0.63883115  0.77611421  0.83960062  1
  H+  H375  1  0.28792295  0.39004038  0.42487251  1
  H+  H376  1  0.42087369  0.07751045  0.23553427  1
  H+  H377  1  0.41328768  0.09073883  0.60165869  1
  H+  H378  1  0.82821855  0.41489467  0.76931755  1
  H+  H379  1  0.62251854  0.07615276  0.62912276  1
  H+  H380  1  0.34966662  0.34562306  0.25785756  1
  H+  H381  1  0.17118344  0.82619440  0.60265652  1
  H+  H382  1  0.07499977  0.65911385  0.42492720  1
  H+  H383  1  0.63628800  0.98436919  0.37270807  1
  O2-  O384  1  0.06914209  0.16330085  0.14659457  1
  O2-  O385  1  0.09214188  0.15755516  0.48516041  1
  O2-  O386  1  0.08012125  0.17310512  0.81122114  1
  O2-  O387  1  0.08840990  0.41815952  0.13918823  1
  O2-  O388  1  0.07097140  0.42272034  0.48359211  1
  O2-  O389  1  0.07660553  0.41244918  0.80858739  1
  O2-  O390  1  0.08678755  0.65496662  0.15055016  1
  O2-  O391  1  0.07271462  0.66185156  0.47114268  1
  O2-  O392  1  0.07557561  0.64074153  0.81050791  1
  O2-  O393  1  0.09549446  0.92429602  0.12968851  1
  O2-  O394  1  0.06617842  0.92655087  0.48010294  1
  O2-  O395  1  0.07052815  0.91596679  0.81509366  1
  O2-  O396  1  0.33414401  0.19674816  0.13992699  1
  O2-  O397  1  0.32172193  0.14987275  0.47620835  1
  O2-  O398  1  0.33118927  0.17232195  0.81176230  1
  O2-  O399  1  0.32636420  0.42412249  0.13375867  1
  O2-  O400  1  0.32320639  0.39760447  0.46211116  1
  O2-  O401  1  0.33310097  0.43072812  0.81703182  1
  O2-  O402  1  0.33591096  0.68832124  0.14113238  1
  O2-  O403  1  0.33045539  0.65999550  0.47760136  1
  O2-  O404  1  0.33135596  0.68557856  0.84779649  1
  O2-  O405  1  0.36595062  0.92192863  0.15354516  1
  O2-  O406  1  0.34600887  0.91645706  0.47205849  1
  O2-  O407  1  0.34200522  0.94118885  0.81799382  1
  O2-  O408  1  0.58140527  0.18075908  0.15250227  1
  O2-  O409  1  0.57597500  0.16169215  0.47594731  1
  O2-  O410  1  0.58166008  0.21481175  0.82252783  1
  O2-  O411  1  0.66711039  0.46611982  0.11814940  1
  O2-  O412  1  0.56232978  0.40826046  0.49231172  1
  O2-  O413  1  0.57449652  0.41847714  0.80743912  1
  O2-  O414  1  0.55455029  0.65171218  0.19385750  1
  O2-  O415  1  0.56797768  0.62516004  0.45219673  1
  O2-  O416  1  0.58738400  0.67147182  0.81735487  1
  O2-  O417  1  0.58374097  0.89747886  0.15419570  1
  O2-  O418  1  0.60871968  0.92895975  0.50809945  1
  O2-  O419  1  0.54673634  0.88954267  0.81872675  1
  O2-  O420  1  0.81040315  0.14018041  0.14181725  1
  O2-  O421  1  0.85514542  0.17630284  0.47097454  1
  O2-  O422  1  0.82307910  0.13228799  0.80055109  1
  O2-  O423  1  0.83571589  0.40875214  0.14564785  1
  O2-  O424  1  0.82991572  0.41507135  0.47275457  1
  O2-  O425  1  0.82856103  0.41040671  0.81416484  1
  O2-  O426  1  0.82216668  0.67735734  0.13059598  1
  O2-  O427  1  0.84224262  0.67985412  0.48044460  1
  O2-  O428  1  0.82720240  0.66597587  0.82273884  1
  O2-  O429  1  0.84446829  0.91924760  0.13981091  1
  O2-  O430  1  0.82267783  0.92444735  0.48900233  1
  O2-  O431  1  0.86333598  0.91335824  0.74691106  1
  O2-  O432  1  0.16398396  0.08810184  0.17906799  1
  O2-  O433  1  0.16616279  0.07483367  0.52519503  1
  O2-  O434  1  0.19778213  0.15472758  0.87391633  1
  O2-  O435  1  0.15828226  0.32379796  0.17869523  1
  O2-  O436  1  0.16951591  0.30872650  0.52775606  1
  O2-  O437  1  0.16304454  0.33723602  0.85416077  1
  O2-  O438  1  0.15354388  0.56529805  0.19350145  1
  O2-  O439  1  0.16647114  0.59352142  0.51995920  1
  O2-  O440  1  0.15900577  0.56935557  0.85920415  1
  O2-  O441  1  0.15282151  0.81868671  0.19232813  1
  O2-  O442  1  0.15882498  0.84145242  0.47051414  1
  O2-  O443  1  0.17263196  0.86602005  0.86996325  1
  O2-  O444  1  0.41974444  0.07091282  0.19049911  1
  O2-  O445  1  0.41530183  0.08055899  0.52213590  1
  O2-  O446  1  0.41799814  0.10192067  0.86192811  1
  O2-  O447  1  0.43617276  0.36100717  0.13579791  1
  O2-  O448  1  0.39860474  0.30958103  0.51408186  1
  O2-  O449  1  0.41099203  0.33738049  0.84812816  1
  O2-  O450  1  0.38079140  0.58069889  0.18755086  1
  O2-  O451  1  0.40953010  0.56490203  0.50230956  1
  O2-  O452  1  0.42447439  0.59813458  0.86032942  1
  O2-  O453  1  0.42266540  0.83183106  0.18873880  1
  O2-  O454  1  0.42571149  0.83202194  0.51858169  1
  O2-  O455  1  0.40493992  0.84787018  0.87111566  1
  O2-  O456  1  0.66383738  0.11409444  0.21057185  1
  O2-  O457  1  0.68948373  0.09977775  0.51434086  1
  O2-  O458  1  0.70289639  -0.01968728  0.80394841  1
  O2-  O459  1  0.67391162  0.34462379  0.18842096  1
  O2-  O460  1  0.65736168  0.33716599  0.50418070  1
  O2-  O461  1  0.67806492  0.36794194  0.86236623  1
  O2-  O462  1  0.65864803  0.58829017  0.18444316  1
  O2-  O463  1  0.69176379  0.65847519  0.52839547  1
  O2-  O464  1  0.65804894  0.57547930  0.85875220  1
  O2-  O465  1  0.68429397  0.82050497  0.17481448  1
  O2-  O466  1  0.65451645  0.88378255  0.52788220  1
  O2-  O467  1  0.65590266  0.83489372  0.85611082  1
  O2-  O468  1  0.90962941  0.07928149  0.18894616  1
  O2-  O469  1  0.92388862  0.08384484  0.52372195  1
  O2-  O470  1  0.92085509  0.07084473  0.83933276  1
  O2-  O471  1  0.91994941  0.32093089  0.15184164  1
  O2-  O472  1  0.91528248  0.33866956  0.52152316  1
  O2-  O473  1  0.90686461  0.32400052  0.84855143  1
  O2-  O474  1  0.92353610  0.57057879  0.19849804  1
  O2-  O475  1  0.91081519  0.58199540  0.51764619  1
  O2-  O476  1  0.91211245  0.58081762  0.85662431  1
  O2-  O477  1  0.93322710  0.84048169  0.17696266  1
  O2-  O478  1  0.90132861  0.83455130  0.53732653  1
  O2-  O479  1  0.90585656  0.84346033  0.83770597  1
  O2-  O480  1  0.18838963  0.09065125  0.29864152  1
  O2-  O481  1  0.16524295  0.06310607  0.64728207  1
  O2-  O482  1  0.16631621  0.08898960  0.99238866  1
  O2-  O483  1  0.09973704  0.21785606  0.33442957  1
  O2-  O484  1  0.16195696  0.32932240  0.64928991  1
  O2-  O485  1  0.16385129  0.33199419  0.97860482  1
  O2-  O486  1  0.15208894  0.58051467  0.30650160  1
  O2-  O487  1  0.14409174  0.57181119  0.63989250  1
  O2-  O488  1  0.17343223  0.58886221  0.98161226  1
  O2-  O489  1  0.17375639  0.83230857  0.30925288  1
  O2-  O490  1  0.16599875  0.82307942  0.64677737  1
  O2-  O491  1  0.16995621  0.83377621  0.99548482  1
  O2-  O492  1  0.42448908  0.08543583  0.31397659  1
  O2-  O493  1  0.40854705  0.08970855  0.64700501  1
  O2-  O494  1  0.42073645  0.08539045  0.98725037  1
  O2-  O495  1  0.43035149  0.35773948  0.36095770  1
  O2-  O496  1  0.45167255  0.29057275  0.63420402  1
  O2-  O497  1  0.41204401  0.33336814  0.97065424  1
  O2-  O498  1  0.36934928  0.55407471  0.30861729  1
  O2-  O499  1  0.45852480  0.54454311  0.61927988  1
  O2-  O500  1  0.41841733  0.59154471  0.98130632  1
  O2-  O501  1  0.40219836  0.82426775  0.31404113  1
  O2-  O502  1  0.40418017  0.84432387  0.63979280  1
  O2-  O503  1  0.42161839  0.84370745  0.99092822  1
  O2-  O504  1  0.66704814  0.07707806  0.33340713  1
  O2-  O505  1  0.64150566  0.08442349  0.67135774  1
  O2-  O506  1  0.68559622  0.08347006  1.04577370  1
  O2-  O507  1  0.66536067  0.33255102  0.31270303  1
  O2-  O508  1  0.68444141  0.34972914  0.65765016  1
  O2-  O509  1  0.65596530  0.32509301  0.98565951  1
  O2-  O510  1  0.68719838  0.59542466  0.30521252  1
  O2-  O511  1  0.67168533  0.59742873  0.64949499  1
  O2-  O512  1  0.64198346  0.55556247  0.97870635  1
  O2-  O513  1  0.69881977  0.85115266  0.33722056  1
  O2-  O514  1  0.70041931  0.90937352  0.65062283  1
  O2-  O515  1  0.67218689  0.83587434  0.98243344  1
  O2-  O516  1  0.94195003  0.11835375  0.31541497  1
  O2-  O517  1  0.87321188  0.03904690  0.65589248  1
  O2-  O518  1  0.92299588  0.09046837  0.96987530  1
  O2-  O519  1  0.93339359  0.35188848  0.31428307  1
  O2-  O520  1  0.90736100  0.32659016  0.64206313  1
  O2-  O521  1  0.92409918  0.34569668  0.97544964  1
  O2-  O522  1  0.91444177  0.58509229  0.31472224  1
  O2-  O523  1  0.90934701  0.56481309  0.63531693  1
  O2-  O524  1  0.91856730  0.57999303  0.97840067  1
  O2-  O525  1  0.94245365  0.83696821  0.30382713  1
  O2-  O526  1  0.91529177  0.82959040  0.66124118  1
  O2-  O527  1  0.92093526  0.86185657  0.96963740  1
  O2-  O528  1  0.07765514  0.16563954  0.02107922  1
  O2-  O529  1  0.10895692  0.15154731  0.36622630  1
  O2-  O530  1  0.07325442  0.17198587  0.69353117  1
  O2-  O531  1  0.09298965  0.42361265  0.02109967  1
  O2-  O532  1  0.08621117  0.42405406  0.36158039  1
  O2-  O533  1  0.07137999  0.40904355  0.68387820  1
  O2-  O534  1  0.08341103  0.66186668  0.02349231  1
  O2-  O535  1  0.08249579  0.66478256  0.35103178  1
  O2-  O536  1  0.06071639  0.64938860  0.68033957  1
  O2-  O537  1  0.08898402  0.92922239  -0.00061305  1
  O2-  O538  1  0.11249319  0.93744063  0.34424395  1
  O2-  O539  1  0.08238845  0.90562304  0.68812462  1
  O2-  O540  1  0.33454029  0.16699359  0.01825318  1
  O2-  O541  1  0.34751228  0.17375241  0.35382604  1
  O2-  O542  1  0.30594702  0.14234508  0.69295205  1
  O2-  O543  1  0.33311184  0.42220826  0.01247542  1
  O2-  O544  1  0.22425242  0.37610385  0.36129279  1
  O2-  O545  1  0.32102743  0.41116906  0.69191315  1
  O2-  O546  1  0.34261197  0.67872257  0.02446058  1
  O2-  O547  1  0.30720491  0.65496606  0.35630430  1
  O2-  O548  1  0.26503978  0.71384769  0.69286822  1
  O2-  O549  1  0.33910289  0.92221409  0.03450160  1
  O2-  O550  1  0.33916774  0.91812263  0.35160071  1
  O2-  O551  1  0.32593194  0.92483708  0.68945382  1
  O2-  O552  1  0.58869346  0.16316947  0.02945451  1
  O2-  O553  1  0.58661533  0.16910748  0.35615583  1
  O2-  O554  1  0.56866549  0.18529341  0.69910975  1
  O2-  O555  1  0.56420032  0.39549307  0.03026174  1
  O2-  O556  1  0.61000178  0.44447109  0.35250967  1
  O2-  O557  1  0.59853659  0.43047228  0.68444880  1
  O2-  O558  1  0.58716466  0.66008265  0.01940449  1
  O2-  O559  1  0.60538391  0.68122799  0.31942824  1
  O2-  O560  1  0.58468265  0.66828931  0.69109939  1
  O2-  O561  1  0.58585031  0.91117677  0.02894325  1
  O2-  O562  1  0.61786163  0.92921891  0.39535757  1
  O2-  O563  1  0.55737364  0.90943482  0.69692146  1
  O2-  O564  1  0.85688866  0.18298637  0.01584936  1
  O2-  O565  1  0.83825542  0.18123192  0.34859126  1
  O2-  O566  1  0.81700657  0.16404209  0.67983889  1
  O2-  O567  1  0.82738093  0.41278264  0.02087975  1
  O2-  O568  1  0.83101704  0.41862176  0.34947397  1
  O2-  O569  1  0.84003896  0.42307376  0.68398849  1
  O2-  O570  1  0.81463315  0.63127597  0.01424638  1
  O2-  O571  1  0.84853082  0.67805517  0.35755455  1
  O2-  O572  1  0.81977797  0.66068476  0.69950198  1
  O2-  O573  1  0.83817370  0.92663652  0.01990474  1
  O2-  O574  1  0.87891602  0.93396504  0.34485789  1
  O2-  O575  1  0.70067712  0.84681830  0.68409748  1
