# generated using pymatgen
data_H2O
_symmetry_space_group_name_H-M   'P 1'
_cell_length_a   17.99215268
_cell_length_b   17.99144761
_cell_length_c   22.00660846
_cell_angle_alpha   89.99688831
_cell_angle_beta   90.00331241
_cell_angle_gamma   119.99687213
_symmetry_Int_Tables_number   1
_chemical_formula_structural   H2O
_chemical_formula_sum   'H384 O192'
_cell_volume   6169.45315738
_cell_formula_units_Z   192
loop_
 _symmetry_equiv_pos_site_id
 _symmetry_equiv_pos_as_xyz
  1  'x, y, z'
loop_
 _atom_type_symbol
 _atom_type_oxidation_number
  H+  1.0
  O2-  -2.0
loop_
 _atom_site_type_symbol
 _atom_site_label
 _atom_site_symmetry_multiplicity
 _atom_site_fract_x
 _atom_site_fract_y
 _atom_site_fract_z
 _atom_site_occupancy
  H+  H0  1  0.88763685  0.14499594  0.18181898  1
  H+  H1  1  0.25773952  0.89443066  0.16822777  1
  H+  H2  1  0.48437794  0.39292936  0.51794707  1
  H+  H3  1  0.60883848  0.38666349  0.50051180  1
  H+  H4  1  0.36978012  0.15899037  0.33775412  1
  H+  H5  1  0.26168792  0.14009889  0.16825300  1
  H+  H6  1  0.87208906  0.89277101  1.00340506  1
  H+  H7  1  0.34146164  0.92853494  0.50336374  1
  H+  H8  1  0.11101298  0.22469467  0.49327576  1
  H+  H9  1  0.91204282  0.54448833  0.65828780  1
  H+  H10  1  0.72515816  0.36028756  -0.00230688  1
  H+  H11  1  0.61737362  0.64189422  0.01020626  1
  H+  H12  1  0.22410306  0.11752632  0.50468435  1
  H+  H13  1  0.36656058  0.39827165  0.34373271  1
  H+  H14  1  0.08410358  0.66844016  0.09784723  1
  H+  H15  1  0.36452359  0.88313670  0.34862214  1
  H+  H16  1  0.11080303  0.38306122  0.49087041  1
  H+  H17  1  0.41665036  0.10106533  0.27614477  1
  H+  H18  1  0.64105767  0.86158863  0.50509096  1
  H+  H19  1  0.21224652  0.83671584  0.49532594  1
  H+  H20  1  0.10883904  0.71140612  0.49542647  1
  H+  H21  1  0.11678523  0.38557269  0.33542440  1
  H+  H22  1  0.22208767  0.10306763  0.65991619  1
  H+  H23  1  0.64051382  0.52664871  0.99435186  1
  H+  H24  1  0.66163266  0.82867035  0.23872390  1
  H+  H25  1  0.97716298  0.11003611  0.51049081  1
  H+  H26  1  0.35684167  0.73155764  1.01597804  1
  H+  H27  1  0.67158872  0.55555586  0.34749321  1
  H+  H28  1  0.94770505  0.80091142  0.24712984  1
  H+  H29  1  0.37111086  0.16958586  0.48032664  1
  H+  H30  1  0.61178191  0.22706007  0.83092691  1
  H+  H31  1  0.61828698  0.98071525  0.01315091  1
  H+  H32  1  0.32295821  0.67197735  0.07591265  1
  H+  H33  1  0.36959224  0.97205842  0.83252887  1
  H+  H34  1  0.22622922  0.36147347  0.32244611  1
  H+  H35  1  0.47740937  0.11363569  0.84371001  1
  H+  H36  1  0.12912299  0.51353300  0.84081347  1
  H+  H37  1  0.13266759  0.25797416  0.65318367  1
  H+  H38  1  0.87112176  0.22758097  0.82445423  1
  H+  H39  1  0.10701864  0.45550032  0.67588223  1
  H+  H40  1  0.32453033  0.64934794  0.75794334  1
  H+  H41  1  0.11193891  0.63470019  0.00478938  1
  H+  H42  1  0.90131350  0.38889335  0.32199169  1
  H+  H43  1  0.11659943  0.12919726  0.82893521  1
  H+  H44  1  0.86213959  0.89114471  0.81895231  1
  H+  H45  1  0.64336281  0.11526221  0.50123273  1
  H+  H46  1  -0.02119022  0.10062145  0.33205963  1
  H+  H47  1  0.03847740  0.65208273  0.68241631  1
  H+  H48  1  0.90154810  0.62747449  0.66417886  1
  H+  H49  1  0.63830606  0.52367970  0.84228921  1
  H+  H50  1  0.67612436  0.34536696  0.26474606  1
  H+  H51  1  0.11730828  0.38067471  0.82760348  1
  H+  H52  1  0.64110485  0.36410407  0.84390658  1
  H+  H53  1  0.84064069  0.66586354  0.10232838  1
  H+  H54  1  0.59822740  0.88745910  0.19048742  1
  H+  H55  1  -0.02930723  0.36556697  0.47963645  1
  H+  H56  1  0.12657560  0.34242708  0.65534853  1
  H+  H57  1  0.91362015  0.83158250  0.76781952  1
  H+  H58  1  0.72751891  0.85830095  0.33176942  1
  H+  H59  1  0.16023030  0.66504370  0.18259401  1
  H+  H60  1  0.10286838  0.86445184  0.34503168  1
  H+  H61  1  0.40458453  0.07366146  0.42575291  1
  H+  H62  1  0.60740762  0.36665518  0.67834904  1
  H+  H63  1  0.28614847  0.39625112  0.82230386  1
  H+  H64  1  0.84283564  0.16427776  0.74086972  1
  H+  H65  1  0.37852433  0.13956568  1.00671383  1
  H+  H66  1  0.88970305  0.52030900  0.52279879  1
  H+  H67  1  0.70663064  0.86407859  0.17418185  1
  H+  H68  1  0.86581451  0.13544648  0.50119646  1
  H+  H69  1  0.02149515  0.12477453  0.67562602  1
  H+  H70  1  0.49313386  0.87783879  1.01035644  1
  H+  H71  1  0.74977036  0.65262177  0.34520488  1
  H+  H72  1  0.77589972  0.88613932  0.49664083  1
  H+  H73  1  0.11660324  0.72650135  0.00279420  1
  H+  H74  1  0.08661096  0.15610477  0.73232231  1
  H+  H75  1  0.60507071  0.72060747  0.16296306  1
  H+  H76  1  0.76730851  0.38303977  0.16056577  1
  H+  H77  1  0.82106368  0.80094978  0.19715284  1
  H+  H78  1  1.02661788  0.37875427  0.82794278  1
  H+  H79  1  0.14837478  0.52147749  0.32090177  1
  H+  H80  1  0.39216737  0.77354890  0.32302709  1
  H+  H81  1  0.64212520  0.27604945  0.50479200  1
  H+  H82  1  0.16312318  0.57696132  -0.06289830  1
  H+  H83  1  0.86825680  0.72915085  1.00927477  1
  H+  H84  1  0.64144330  0.86629238  0.33123181  1
  H+  H85  1  0.63929954  0.77138212  0.50535633  1
  H+  H86  1  0.89471958  1.02443811  -0.01609216  1
  H+  H87  1  0.13310096  0.03184908  0.18031667  1
  H+  H88  1  0.09273149  0.42191011  0.39441033  1
  H+  H89  1  0.88356925  0.76832730  0.68263866  1
  H+  H90  1  0.52505166  0.63656389  0.49311133  1
  H+  H91  1  0.09905327  0.65946495  0.40309882  1
  H+  H92  1  0.35952106  0.64377156  0.16202671  1
  H+  H93  1  0.85978694  0.86351567  0.34428503  1
  H+  H94  1  0.38318789  0.61009135  0.51284221  1
  H+  H95  1  0.23969790  0.90026974  0.63251270  1
  H+  H96  1  0.02023063  0.14421005  0.15523409  1
  H+  H97  1  0.13173038  0.34254291  0.16744622  1
  H+  H98  1  0.38085959  0.52184567  0.49859416  1
  H+  H99  1  0.15865106  0.53760559  0.13696964  1
  H+  H100  1  0.41247039  0.83836577  0.26842240  1
  H+  H101  1  0.53361632  0.62765960  0.67706158  1
  H+  H102  1  0.51532135  0.86554552  0.82651717  1
  H+  H103  1  0.14040636  0.13167902  0.33325410  1
  H+  H104  1  0.89029019  0.26772567  0.99464578  1
  H+  H105  1  0.21769939  0.35932587  0.50355476  1
  H+  H106  1  0.07217875  0.80610338  0.20876610  1
  H+  H107  1  0.82773768  0.82554683  0.22637778  1
  H+  H108  1  0.38560975  0.02134293  0.99690839  1
  H+  H109  1  0.38664933  0.28319625  0.17161301  1
  H+  H110  1  0.84318717  0.40327703  0.58054017  1
  H+  H111  1  0.36197913  0.48261024  0.33043804  1
  H+  H112  1  0.62910594  0.24077053  0.33401237  1
  H+  H113  1  0.51202924  0.89401472  0.18951666  1
  H+  H114  1  0.59982744  0.13655201  0.16878159  1
  H+  H115  1  0.47410199  0.61677104  0.16530669  1
  H+  H116  1  0.12288286  0.97108273  0.82654292  1
  H+  H117  1  0.51862212  0.87654155  0.67777665  1
  H+  H118  1  0.61915064  0.64258991  0.83082335  1
  H+  H119  1  0.53108434  0.88545534  0.49702270  1
  H+  H120  1  0.78915257  0.46312057  0.69972632  1
  H+  H121  1  0.61956303  0.14574766  0.33736325  1
  H+  H122  1  0.96798478  0.35232808  0.66744139  1
  H+  H123  1  0.48463406  0.61217811  0.31713877  1
  H+  H124  1  0.61920333  0.64422804  0.34707346  1
  H+  H125  1  0.78003962  0.62344174  0.66830602  1
  H+  H126  1  0.73007788  0.61520611  0.99599461  1
  H+  H127  1  0.12358436  0.88226419  0.82434588  1
  H+  H128  1  0.38829967  0.36725363  0.82628148  1
  H+  H129  1  0.88969745  0.60320930  0.16609742  1
  H+  H130  1  0.34294441  0.71527776  0.81260743  1
  H+  H131  1  0.15788751  0.32356675  0.56360917  1
  H+  H132  1  0.61715068  0.89155318  0.01226800  1
  H+  H133  1  0.11169653  0.97056531  0.49083235  1
  H+  H134  1  0.66201031  0.08628417  0.27609009  1
  H+  H135  1  0.49495923  0.60155799  0.86169148  1
  H+  H136  1  0.39071083  0.84827600  0.51322379  1
  H+  H137  1  0.27770214  0.38763263  0.15688205  1
  H+  H138  1  0.36711546  0.89256419  0.01936983  1
  H+  H139  1  0.84679226  0.23013903  0.16950477  1
  H+  H140  1  0.38431546  0.52800303  0.16595272  1
  H+  H141  1  0.14679160  0.76729923  0.33864871  1
  H+  H142  1  0.37762169  0.85284300  0.84334709  1
  H+  H143  1  0.96928993  0.19349450  0.22242871  1
  H+  H144  1  0.08943378  0.43016777  0.15198788  1
  H+  H145  1  0.21725585  0.60355776  0.83516732  1
  H+  H146  1  0.38696756  0.37267020  0.98645308  1
  H+  H147  1  0.88290164  0.55234345  0.32392347  1
  H+  H148  1  0.63322670  0.77410759  0.66283178  1
  H+  H149  1  0.24095900  0.60790225  0.32139563  1
  H+  H150  1  0.88282756  0.71245431  0.16604939  1
  H+  H151  1  0.71080925  0.11480653  0.18157323  1
  H+  H152  1  0.39897289  0.76760564  0.52693045  1
  H+  H153  1  0.22201140  0.08915568  0.00180837  1
  H+  H154  1  0.83135528  0.65227140  0.73271845  1
  H+  H155  1  -0.01336156  0.38181590  0.32147701  1
  H+  H156  1  0.86269313  0.47027047  0.83270970  1
  H+  H157  1  0.61447345  0.47766428  0.15639716  1
  H+  H158  1  -0.02108242  0.35479401  -0.00704918  1
  H+  H159  1  0.88940030  0.51448722  0.17038247  1
  H+  H160  1  0.64352318  0.12530451  0.84922577  1
  H+  H161  1  0.13414760  0.73463394  0.83172992  1
  H+  H162  1  0.29372322  0.53343908  0.94468768  1
  H+  H163  1  0.37605082  0.70701646  0.66773929  1
  H+  H164  1  0.13424418  0.63905421  0.34235660  1
  H+  H165  1  0.23986772  0.13803641  0.32615346  1
  H+  H166  1  0.78297544  0.40356217  0.33563101  1
  H+  H167  1  0.77058773  0.63122216  0.82785201  1
  H+  H168  1  0.12134488  0.63279632  0.83143361  1
  H+  H169  1  0.37686154  0.11521236  0.17987579  1
  H+  H170  1  0.61176202  0.22639905  1.01059412  1
  H+  H171  1  0.63704802  0.60808523  0.50585657  1
  H+  H172  1  0.14324806  0.26996610  0.83753174  1
  H+  H173  1  0.14396340  0.87315598  0.64879260  1
  H+  H174  1  0.86857450  0.22565184  0.67652025  1
  H+  H175  1  0.67454094  0.09582301  0.93970389  1
  H+  H176  1  0.86879748  0.95665508  0.34046870  1
  H+  H177  1  0.85519170  0.62940522  0.49267151  1
  H+  H178  1  0.13997883  0.26439081  0.99326913  1
  H+  H179  1  0.63042697  0.85959737  0.84158774  1
  H+  H180  1  0.37670270  0.61626875  0.66603136  1
  H+  H181  1  0.64152748  0.11942460  1.00174797  1
  H+  H182  1  0.95960022  0.34477296  0.17209080  1
  H+  H183  1  0.48623226  0.14295571  0.32875967  1
  H+  H184  1  0.14332702  0.26212690  0.16886358  1
  H+  H185  1  0.38674903  0.11113905  0.84394422  1
  H+  H186  1  0.33995106  0.60202924  -0.00343498  1
  H+  H187  1  0.24040755  0.86187673  0.83963636  1
  H+  H188  1  0.61547149  0.72964641  0.83511448  1
  H+  H189  1  0.85487557  0.88556835  0.68240077  1
  H+  H190  1  0.40067197  0.29507471  0.34591152  1
  H+  H191  1  0.02170434  0.62149559  0.49490424  1
  H+  H192  1  0.42448402  0.57159803  0.91511352  1
  H+  H193  1  0.35828469  0.39687059  0.48829128  1
  H+  H194  1  0.86168044  0.71825622  0.81942301  1
  H+  H195  1  0.17279307  0.57427557  0.72382004  1
  H+  H196  1  0.14186082  0.86607484  0.98895837  1
  H+  H197  1  0.38000851  0.78237151  0.17223942  1
  H+  H198  1  0.12054627  0.76651435  0.17601611  1
  H+  H199  1  0.11443035  0.12153763  0.00660828  1
  H+  H200  1  0.66778420  0.33048464  0.93730365  1
  H+  H201  1  0.77593810  0.13425005  0.49983746  1
  H+  H202  1  0.72921838  0.36053221  0.84392034  1
  H+  H203  1  0.22873424  0.10823775  0.84582443  1
  H+  H204  1  0.11171831  0.13498317  0.49349591  1
  H+  H205  1  0.84420226  0.99192428  0.15474607  1
  H+  H206  1  0.63548061  0.60776511  0.16732176  1
  H+  H207  1  0.88846910  0.02059411  0.51091495  1
  H+  H208  1  0.12772808  0.60469204  0.51924549  1
  H+  H209  1  0.52551908  0.88611340  0.33895621  1
  H+  H210  1  0.88571909  0.52053874  1.00032431  1
  H+  H211  1  0.12774533  0.11775648  0.17885595  1
  H+  H212  1  0.27509501  0.88197498  0.35164507  1
  H+  H213  1  0.36474353  0.98035052  0.68563365  1
  H+  H214  1  0.38082612  0.63281525  0.32134432  1
  H+  H215  1  0.54084149  0.15140869  0.47625090  1
  H+  H216  1  0.36133411  0.22691279  0.82878734  1
  H+  H217  1  0.11587276  0.37703962  0.00148926  1
  H+  H218  1  0.86944077  0.13660998  0.82434747  1
  H+  H219  1  0.37968664  0.47515621  0.83483310  1
  H+  H220  1  0.12216750  0.91016791  0.15826318  1
  H+  H221  1  0.11586371  0.53598953  0.13857267  1
  H+  H222  1  0.72739723  0.60825575  0.50314756  1
  H+  H223  1  -0.03121548  0.85029298  0.50514266  1
  H+  H224  1  0.40045081  0.36554871  0.66667332  1
  H+  H225  1  -0.00404733  0.85219134  0.18562768  1
  H+  H226  1  0.61107209  0.38575457  0.00258064  1
  H+  H227  1  0.61637344  0.72960484  1.01090948  1
  H+  H228  1  0.42526109  0.58415021  0.25451297  1
  H+  H229  1  0.85443328  0.37827644  0.16343517  1
  H+  H230  1  0.87990764  1.01930921  0.66328151  1
  H+  H231  1  0.83130491  0.40964859  0.06889669  1
  H+  H232  1  0.64917825  0.50787138  0.65735763  1
  H+  H233  1  0.62248369  1.02540547  0.19357791  1
  H+  H234  1  0.97478725  0.60987282  0.99682725  1
  H+  H235  1  0.13345510  0.10385435  0.65774002  1
  H+  H236  1  0.12519871  0.64779556  0.68384637  1
  H+  H237  1  0.16536618  0.32422732  0.26405209  1
  H+  H238  1  0.28061451  0.66625438  0.17014689  1
  H+  H239  1  0.72158934  0.10526368  0.33579407  1
  H+  H240  1  0.87360642  0.13154506  0.67496483  1
  H+  H241  1  0.38085318  0.84370687  0.67618581  1
  H+  H242  1  0.88791220  1.02384172  0.83096176  1
  H+  H243  1  0.84844686  0.10669972  0.34891892  1
  H+  H244  1  0.61096762  0.88461386  0.67266435  1
  H+  H245  1  0.11210434  0.97176558  0.66855186  1
  H+  H246  1  0.50519431  0.11490385  0.68817443  1
  H+  H247  1  0.34943329  0.11496836  0.68555162  1
  H+  H248  1  0.67694630  0.56766483  0.59736514  1
  H+  H249  1  0.38550146  0.28396062  0.98148119  1
  H+  H250  1  0.63934221  0.02414437  0.50467577  1
  H+  H251  1  0.60836304  0.72664751  0.34144805  1
  H+  H252  1  0.91590879  0.08105150  0.60419331  1
  H+  H253  1  0.61620848  0.47993085  0.49670130  1
  H+  H254  1  0.22765565  0.35497850  0.99528099  1
  H+  H255  1  0.52554457  0.38561767  0.82788731  1
  H+  H256  1  0.26097641  0.62767795  0.52451121  1
  H+  H257  1  0.87865415  0.34887900  0.67653627  1
  H+  H258  1  0.09454028  0.91459933  0.72864061  1
  H+  H259  1  0.86225313  0.38213358  0.00881515  1
  H+  H260  1  0.11233411  0.47244426  0.49555047  1
  H+  H261  1  0.97278874  0.85887646  0.68100397  1
  H+  H262  1  0.74746221  0.37127649  0.67385663  1
  H+  H263  1  0.86647294  0.63850466  0.00842907  1
  H+  H264  1  0.11406863  0.22774869  0.34162240  1
  H+  H265  1  0.42691423  0.41435837  0.56547210  1
  H+  H266  1  0.55674937  0.41534001  0.34543377  1
  H+  H267  1  0.02184131  0.63073905  0.15668544  1
  H+  H268  1  0.44301289  0.36161641  0.39847456  1
  H+  H269  1  0.62164046  0.01661773  0.66103035  1
  H+  H270  1  0.65450148  0.37828820  0.32705631  1
  H+  H271  1  0.72560455  0.36237348  0.52603335  1
  H+  H272  1  0.13437399  1.00036443  0.00276661  1
  H+  H273  1  0.89744640  0.11438834  0.98364200  1
  H+  H274  1  0.72418673  0.60732806  0.16916815  1
  H+  H275  1  0.35701685  0.20879097  0.68186951  1
  H+  H276  1  0.34287745  0.46989386  1.00476112  1
  H+  H277  1  0.76132128  0.12101866  0.01146664  1
  H+  H278  1  0.37011558  0.86667749  0.17651369  1
  H+  H279  1  0.61781231  0.24672285  0.66439318  1
  H+  H280  1  0.98718711  0.86627742  1.00345299  1
  H+  H281  1  0.23100918  0.86662975  0.99460132  1
  H+  H282  1  0.21834234  0.61189086  0.99907840  1
  H+  H283  1  0.59613703  0.11906757  0.67705857  1
  H+  H284  1  -0.02079634  0.83750394  0.33710330  1
  H+  H285  1  0.61209844  0.97656175  0.34206485  1
  H+  H286  1  0.36047359  0.24981542  0.49801730  1
  H+  H287  1  0.72868515  0.86756147  -0.00841079  1
  H+  H288  1  0.58477561  0.91461374  0.43426308  1
  H+  H289  1  0.88335388  0.85317674  0.50915404  1
  H+  H290  1  0.46536244  0.11393087  0.17802149  1
  H+  H291  1  0.06548889  0.37936956  0.09150311  1
  H+  H292  1  0.58209885  0.66680599  0.10026778  1
  H+  H293  1  0.34090332  0.90761362  0.77145612  1
  H+  H294  1  0.85411670  0.71694274  0.49443418  1
  H+  H295  1  0.07830924  0.15543342  0.09500187  1
  H+  H296  1  0.38228237  0.78920963  0.89349280  1
  H+  H297  1  0.83666146  0.91231607  0.43841545  1
  H+  H298  1  0.16694423  0.82698684  0.27995331  1
  H+  H299  1  0.86575183  0.37999719  0.51508847  1
  H+  H300  1  0.63473351  0.36614633  0.17040440  1
  H+  H301  1  0.02920024  0.13245928  0.82406845  1
  H+  H302  1  0.76541832  0.88538632  0.67145845  1
  H+  H303  1  0.16547715  0.07968908  0.56378249  1
  H+  H304  1  0.72327216  0.86602864  0.84340922  1
  H+  H305  1  0.35799197  0.65781423  0.38387830  1
  H+  H306  1  0.82575174  0.14636358  0.40542937  1
  H+  H307  1  0.98111348  0.86163778  0.81971425  1
  H+  H308  1  0.30982488  0.67258331  0.46555675  1
  H+  H309  1  0.92720109  0.83788169  0.94169218  1
  H+  H310  1  0.36952331  0.39296831  0.15667964  1
  H+  H311  1  0.91931092  0.32694326  0.89828988  1
  H+  H312  1  0.60742801  0.18434206  0.42393375  1
  H+  H313  1  0.88890513  0.68224786  0.32517994  1
  H+  H314  1  0.80612986  0.07939767  0.04860300  1
  H+  H315  1  0.90452691  0.56933098  0.90275351  1
  H+  H316  1  0.17652973  0.83163182  0.89779877  1
  H+  H317  1  0.23938571  0.60023326  0.67248834  1
  H+  H318  1  0.93088017  0.60031501  0.56600809  1
  H+  H319  1  0.84231081  0.43589668  0.39418605  1
  H+  H320  1  0.10938789  0.87980121  0.48867363  1
  H+  H321  1  0.17042704  0.32720809  0.89753866  1
  H+  H322  1  0.06283046  0.84264811  0.04750316  1
  H+  H323  1  0.08606438  0.16772041  0.40301486  1
  H+  H324  1  0.15972683  0.82662728  0.55553970  1
  H+  H325  1  0.33378777  0.41599584  0.06542338  1
  H+  H326  1  0.27459540  0.85717743  0.69942857  1
  H+  H327  1  0.91265704  0.59644746  0.25969289  1
  H+  H328  1  0.57690670  0.90247448  0.76904143  1
  H+  H329  1  0.88329120  0.27564157  0.48333193  1
  H+  H330  1  0.87550136  0.59714118  0.84244409  1
  H+  H331  1  0.83729363  0.92801609  0.05725469  1
  H+  H332  1  0.57382549  0.16508922  0.10691480  1
  H+  H333  1  0.52445901  0.39122395  0.99852207  1
  H+  H334  1  0.66499434  0.83031606  0.60095940  1
  H+  H335  1  0.14431371  0.56640370  0.58112034  1
  H+  H336  1  0.41608638  0.34053186  0.88773280  1
  H+  H337  1  0.41341616  0.22089412  0.04738630  1
  H+  H338  1  0.92270381  0.08427816  0.88973344  1
  H+  H339  1  0.47721544  0.36936700  0.16759991  1
  H+  H340  1  0.63021854  0.27486563  0.17470366  1
  H+  H341  1  0.57888812  0.67244425  0.73972412  1
  H+  H342  1  0.84545055  0.90640253  0.16002088  1
  H+  H343  1  0.60749547  0.42974329  0.40577075  1
  H+  H344  1  0.91832712  0.07691779  0.27435593  1
  H+  H345  1  0.02918040  0.12835930  -0.00052352  1
  H+  H346  1  0.41592915  0.82610936  0.61303273  1
  H+  H347  1  0.32452834  0.42163243  0.42727391  1
  H+  H348  1  0.89140528  0.35984305  0.83961652  1
  H+  H349  1  0.65039352  0.07832405  0.60296000  1
  H+  H350  1  0.07711086  0.39739352  0.73435120  1
  H+  H351  1  0.32621548  0.15821447  0.77472871  1
  H+  H352  1  0.09702192  0.67226803  0.76638414  1
  H+  H353  1  0.08445405  0.93235089  0.09970675  1
  H+  H354  1  0.58220665  0.66648515  0.43347376  1
  H+  H355  1  0.52431512  0.13565989  1.00887316  1
  H+  H356  1  0.67001056  0.58460666  0.90107481  1
  H+  H357  1  0.82051961  0.16889335  0.10994126  1
  H+  H358  1  0.73154794  0.12361539  0.84690467  1
  H+  H359  1  0.91461919  0.33895335  0.23807878  1
  H+  H360  1  0.66372655  0.83646638  0.93607885  1
  H+  H361  1  0.52460326  0.37622946  0.68231063  1
  H+  H362  1  0.06975100  0.89935476  0.39992057  1
  H+  H363  1  0.39626314  0.04630603  0.62664985  1
  H+  H364  1  0.31817635  0.16022697  0.10778670  1
  H+  H365  1  0.41705782  0.31880836  0.61500602  1
  H+  H366  1  0.32965771  0.18499793  0.39511563  1
  H+  H367  1  0.41626153  0.07855675  0.93500316  1
  H+  H368  1  0.83154941  0.41018801  0.77273495  1
  H+  H369  1  0.82385089  0.92078584  0.76553376  1
  H+  H370  1  0.40046884  0.06359848  0.49725342  1
  H+  H371  1  0.16510617  0.06848776  0.90270490  1
  H+  H372  1  0.16741264  0.09852405  0.26721707  1
  H+  H373  1  0.57947825  0.16228494  0.77346743  1
  H+  H374  1  0.18915993  0.63167739  0.24158426  1
  H+  H375  1  0.11252884  0.46575557  0.00613524  1
  H+  H376  1  0.59010167  0.41382289  0.77224499  1
  H+  H377  1  0.43054835  0.56325030  0.58904776  1
  H+  H378  1  0.44416180  0.87772969  0.95142274  1
  H+  H379  1  0.58258938  0.41590044  0.09770080  1
  H+  H380  1  0.32800486  0.88940093  0.43425834  1
  H+  H381  1  0.34802246  0.98210550  0.16916374  1
  H+  H382  1  0.32513642  0.91986126  0.07352657  1
  H+  H383  1  0.64830368  0.30864918  0.60378776  1
  O2-  O384  1  0.07850207  0.15978739  0.14067734  1
  O2-  O385  1  0.08095585  0.16406016  0.47692170  1
  O2-  O386  1  0.09068069  0.16202158  0.81096857  1
  O2-  O387  1  0.05998540  0.37093702  0.13708944  1
  O2-  O388  1  0.08615502  0.41748123  0.47301163  1
  O2-  O389  1  0.08664198  0.41084954  0.81168616  1
  O2-  O390  1  0.08274714  0.67049750  0.14302875  1
  O2-  O391  1  0.08452884  0.64917761  0.48456820  1
  O2-  O392  1  0.10022537  0.67236834  0.81500122  1
  O2-  O393  1  0.09166768  0.94069716  0.14580260  1
  O2-  O394  1  0.07932743  0.91089918  0.47528535  1
  O2-  O395  1  0.09406989  0.91237424  0.80809787  1
  O2-  O396  1  0.32162408  0.16544710  0.15240350  1
  O2-  O397  1  0.33340770  0.19477095  0.47593860  1
  O2-  O398  1  0.33059031  0.16327984  0.82000667  1
  O2-  O399  1  0.33689357  0.42202532  0.14070477  1
  O2-  O400  1  0.32279908  0.42103339  0.47278273  1
  O2-  O401  1  0.34600162  0.42351312  0.80819451  1
  O2-  O402  1  0.33436889  0.67826872  0.14569185  1
  O2-  O403  1  0.32091841  0.66037112  0.50662345  1
  O2-  O404  1  0.30320930  0.65631700  0.79779512  1
  O2-  O405  1  0.31627540  0.92214735  0.15181540  1
  O2-  O406  1  0.32113112  0.87477998  0.48171401  1
  O2-  O407  1  0.33933152  0.91055669  0.81997995  1
  O2-  O408  1  0.56963295  0.16663306  0.15208466  1
  O2-  O409  1  0.60318092  0.17922991  0.46997663  1
  O2-  O410  1  0.58005162  0.16517274  0.81899658  1
  O2-  O411  1  0.58288289  0.41478582  0.14291287  1
  O2-  O412  1  0.58031267  0.41712410  0.48286897  1
  O2-  O413  1  0.58840255  0.41544539  0.81768005  1
  O2-  O414  1  0.57618164  0.66125854  0.14639355  1
  O2-  O415  1  0.58565070  0.66685004  0.47901393  1
  O2-  O416  1  0.58458982  0.66954750  0.81900270  1
  O2-  O417  1  0.57508213  0.92659966  0.19606132  1
  O2-  O418  1  0.59006231  0.91713561  0.47975145  1
  O2-  O419  1  0.57590109  0.89738759  0.81419023  1
  O2-  O420  1  0.81922821  0.16803080  0.15495443  1
  O2-  O421  1  0.83578126  0.16421160  0.48340179  1
  O2-  O422  1  0.83946100  0.16725791  0.80819016  1
  O2-  O423  1  0.82794797  0.41055131  0.14507038  1
  O2-  O424  1  0.83655370  0.40991243  0.53720259  1
  O2-  O425  1  0.83562406  0.40790755  0.81728424  1
  O2-  O426  1  0.83951749  0.65723632  0.14725373  1
  O2-  O427  1  0.82096442  0.65576103  0.48024330  1
  O2-  O428  1  0.83025402  0.65555696  0.81062979  1
  O2-  O429  1  0.81875349  0.93416376  0.13790659  1
  O2-  O430  1  0.83736381  0.91845992  0.48339050  1
  O2-  O431  1  0.83028795  0.92237501  0.81108589  1
  O2-  O432  1  0.16016850  0.09176881  0.19825496  1
  O2-  O433  1  0.16400603  0.08126250  0.51812750  1
  O2-  O434  1  0.16645159  0.07312089  0.85779015  1
  O2-  O435  1  0.16898363  0.32170636  0.18525518  1
  O2-  O436  1  0.15691919  0.32610775  0.51718209  1
  O2-  O437  1  0.16936505  0.33030463  0.85240875  1
  O2-  O438  1  0.21021979  0.67095395  0.20599474  1
  O2-  O439  1  0.15763584  0.57392739  0.53780896  1
  O2-  O440  1  0.15851425  0.57463338  0.85548906  1
  O2-  O441  1  0.13209959  0.82021122  0.19842218  1
  O2-  O442  1  0.15288979  0.81620642  0.51033465  1
  O2-  O443  1  0.17725615  0.82801612  0.85233508  1
  O2-  O444  1  0.40564118  0.08379562  0.19532153  1
  O2-  O445  1  0.42078842  0.10540796  0.46439240  1
  O2-  O446  1  0.41643538  0.08016921  0.85881066  1
  O2-  O447  1  0.41669067  0.34470666  0.18203696  1
  O2-  O448  1  0.42472786  0.37205630  0.53372979  1
  O2-  O449  1  0.41672408  0.33395388  0.84290578  1
  O2-  O450  1  0.41327577  0.58823509  0.18168334  1
  O2-  O451  1  0.41691131  0.58050641  0.51689622  1
  O2-  O452  1  0.44760762  0.55132093  0.88291089  1
  O2-  O453  1  0.40328303  0.83996097  0.19172476  1
  O2-  O454  1  0.42932727  0.83054995  0.53338973  1
  O2-  O455  1  0.40115876  0.81283404  0.85298731  1
  O2-  O456  1  0.65256646  0.09058065  0.19907460  1
  O2-  O457  1  0.66911613  0.08383995  0.52121419  1
  O2-  O458  1  0.67803473  0.10355703  0.86995390  1
  O2-  O459  1  0.66521580  0.33633982  0.18733148  1
  O2-  O460  1  0.66151593  0.33080282  0.52787002  1
  O2-  O461  1  0.66889037  0.33124904  0.85934781  1
  O2-  O462  1  0.66263556  0.57376083  0.17961128  1
  O2-  O463  1  0.66512066  0.57516956  0.51900918  1
  O2-  O464  1  0.67059851  0.58498637  0.85547148  1
  O2-  O465  1  0.65123685  0.82601490  0.19365283  1
  O2-  O466  1  0.67078302  0.83154141  0.52152181  1
  O2-  O467  1  0.66439843  0.83356250  0.86037901  1
  O2-  O468  1  0.93621801  0.13891501  0.20098184  1
  O2-  O469  1  0.91823959  0.08042759  0.52827124  1
  O2-  O470  1  0.92179519  0.08591573  0.84443241  1
  O2-  O471  1  0.90335737  0.32608486  0.19162461  1
  O2-  O472  1  0.90731978  0.33875420  0.47912978  1
  O2-  O473  1  0.92192239  0.32853166  0.85300411  1
  O2-  O474  1  0.92296627  0.57627863  0.18246588  1
  O2-  O475  1  0.92244409  0.58438747  0.52223795  1
  O2-  O476  1  0.90171428  0.56347040  0.85784027  1
  O2-  O477  1  0.96977718  0.79577117  0.20602782  1
  O2-  O478  1  0.90976514  0.81865341  0.52154314  1
  O2-  O479  1  0.91775559  0.83296353  0.81372395  1
  O2-  O480  1  0.17574479  0.10534338  0.31392524  1
  O2-  O481  1  0.16375296  0.07407370  0.64085556  1
  O2-  O482  1  0.16316707  0.06027089  0.98642456  1
  O2-  O483  1  0.16471071  0.32607469  0.30952305  1
  O2-  O484  1  0.15744120  0.31641344  0.63563978  1
  O2-  O485  1  0.16718705  0.32488868  0.97877353  1
  O2-  O486  1  0.18014949  0.58358415  0.30911282  1
  O2-  O487  1  0.17564892  0.57554763  0.67939203  1
  O2-  O488  1  0.15916906  0.57394362  0.98235925  1
  O2-  O489  1  0.17211578  0.82978765  0.32475177  1
  O2-  O490  1  0.18083725  0.85322422  0.62814927  1
  O2-  O491  1  0.17263108  0.83564667  0.97527984  1
  O2-  O492  1  0.42360246  0.11645812  0.32015393  1
  O2-  O493  1  0.39077927  0.04712917  0.67060972  1
  O2-  O494  1  0.41744100  0.08142730  0.98087076  1
  O2-  O495  1  0.43548924  0.35820766  0.35443174  1
  O2-  O496  1  0.41455423  0.31927507  0.65971891  1
  O2-  O497  1  0.41805601  0.34435887  0.96853021  1
  O2-  O498  1  0.42412361  0.58170782  0.30064090  1
  O2-  O499  1  0.43288626  0.54776429  0.63280193  1
  O2-  O500  1  0.34274939  0.55611946  0.97209622  1
  O2-  O501  1  0.41775793  0.83557244  0.31371904  1
  O2-  O502  1  0.41104666  0.81397790  0.65742393  1
  O2-  O503  1  0.43153761  0.85303073  0.99220597  1
  O2-  O504  1  0.66025755  0.08230076  0.32156015  1
  O2-  O505  1  0.64469694  0.07721478  0.64776059  1
  O2-  O506  1  0.67278166  0.09035866  0.98625744  1
  O2-  O507  1  0.68184996  0.34592808  0.31015704  1
  O2-  O508  1  0.65062614  0.30801976  0.64935448  1
  O2-  O509  1  0.66451448  0.32999398  0.98284454  1
  O2-  O510  1  0.68766911  0.61542104  0.33832037  1
  O2-  O511  1  0.68991196  0.56536884  0.64102943  1
  O2-  O512  1  0.67075683  0.58693419  0.97906483  1
  O2-  O513  1  0.66784429  0.83248225  0.31547461  1
  O2-  O514  1  0.66574517  0.83457759  0.64623671  1
  O2-  O515  1  0.66670214  0.83808255  0.98187902  1
  O2-  O516  1  0.91886450  0.06312430  0.31765162  1
  O2-  O517  1  0.91407467  0.08151739  0.65014880  1
  O2-  O518  1  0.92814660  0.08551311  0.96829438  1
  O2-  O519  1  0.92759063  0.35645224  0.30479958  1
  O2-  O520  1  0.90543671  0.32004218  0.65615197  1
  O2-  O521  1  0.91765368  0.32622591  0.97868700  1
  O2-  O522  1  0.90311035  0.60723231  0.30245568  1
  O2-  O523  1  0.94078803  0.60550995  0.64787118  1
  O2-  O524  1  0.91347652  0.58029776  0.98398278  1
  O2-  O525  1  0.91523983  0.80529713  0.31662055  1
  O2-  O526  1  0.91075563  0.83113224  0.69198454  1
  O2-  O527  1  0.92309716  0.83910637  0.98585252  1
  O2-  O528  1  0.08709674  0.15562657  0.01915212  1
  O2-  O529  1  0.08740408  0.16677256  0.35671760  1
  O2-  O530  1  0.08334109  0.15293745  0.68686160  1
  O2-  O531  1  0.08206831  0.40365076  0.01773378  1
  O2-  O532  1  0.09223198  0.42164390  0.34891945  1
  O2-  O533  1  0.07141138  0.39510658  0.68880663  1
  O2-  O534  1  0.08361669  0.66707611  0.01925500  1
  O2-  O535  1  0.10745670  0.67141418  0.35902462  1
  O2-  O536  1  0.09626398  0.67644449  0.70228859  1
  O2-  O537  1  0.07175103  0.89638039  0.02988853  1
  O2-  O538  1  0.06460399  0.88853139  0.35497274  1
  O2-  O539  1  0.08604112  0.91115136  0.68360948  1
  O2-  O540  1  0.36101354  0.17994409  0.02622980  1
  O2-  O541  1  0.33300849  0.18600775  0.34996416  1
  O2-  O542  1  0.32070685  0.14865689  0.69615634  1
  O2-  O543  1  0.32889585  0.41188468  0.01963426  1
  O2-  O544  1  0.32873842  0.42365713  0.34885670  1
  O2-  O545  1  0.40817691  0.45845827  0.62851951  1
  O2-  O546  1  0.31875178  0.67184483  0.02924331  1
  O2-  O547  1  0.35055663  0.66284682  0.34063166  1
  O2-  O548  1  0.34446587  0.64440379  0.67900176  1
  O2-  O549  1  0.33079002  0.91899252  0.02827655  1
  O2-  O550  1  0.33391975  0.90890670  0.37028890  1
  O2-  O551  1  0.33582470  0.89602372  0.70590572  1
  O2-  O552  1  0.58290308  0.16633639  0.02705327  1
  O2-  O553  1  0.59359505  0.18149857  0.35096274  1
  O2-  O554  1  0.56763362  0.15088966  0.69623077  1
  O2-  O555  1  0.58279720  0.41826590  0.01694670  1
  O2-  O556  1  0.61570211  0.43769566  0.36069039  1
  O2-  O557  1  0.58615567  0.40476977  0.69414274  1
  O2-  O558  1  0.58749785  0.67059256  0.02780132  1
  O2-  O559  1  0.57718840  0.66559585  0.35523278  1
  O2-  O560  1  0.58206477  0.67917563  0.69470961  1
  O2-  O561  1  0.58743292  0.92126642  0.02928601  1
  O2-  O562  1  0.58484410  0.91523624  0.35621716  1
  O2-  O563  1  0.57999924  0.91301667  0.68996367  1
  O2-  O564  1  0.81979394  0.13468541  0.03109118  1
  O2-  O565  1  0.81838781  0.13749716  0.36062784  1
  O2-  O566  1  0.84443254  0.16414471  0.69319537  1
  O2-  O567  1  0.83202179  0.41218350  0.02314811  1
  O2-  O568  1  0.84411218  0.43968594  0.35003297  1
  O2-  O569  1  0.80498149  0.42025384  0.68863202  1
  O2-  O570  1  0.83647622  0.66882151  0.02421933  1
  O2-  O571  1  0.86938396  0.72068829  0.34618968  1
  O2-  O572  1  0.83976110  0.65897619  0.68755775  1
  O2-  O573  1  0.84247428  0.92664408  0.01258793  1
  O2-  O574  1  0.83341024  0.89786195  0.35764084  1
  O2-  O575  1  0.82552619  0.91966055  0.68873001  1
