# generated using pymatgen
data_H2O
_symmetry_space_group_name_H-M   'P 1'
_cell_length_a   17.99329315
_cell_length_b   17.98838522
_cell_length_c   22.00700442
_cell_angle_alpha   89.97454007
_cell_angle_beta   90.01635190
_cell_angle_gamma   119.97489415
_symmetry_Int_Tables_number   1
_chemical_formula_structural   H2O
_chemical_formula_sum   'H384 O192'
_cell_volume   6170.26997998
_cell_formula_units_Z   192
loop_
 _symmetry_equiv_pos_site_id
 _symmetry_equiv_pos_as_xyz
  1  'x, y, z'
loop_
 _atom_type_symbol
 _atom_type_oxidation_number
  H+  1.0
  O2-  -2.0
loop_
 _atom_site_type_symbol
 _atom_site_label
 _atom_site_symmetry_multiplicity
 _atom_site_fract_x
 _atom_site_fract_y
 _atom_site_fract_z
 _atom_site_occupancy
  H+  H0  1  0.67429938  0.32646769  0.60142741  1
  H+  H1  1  0.58846596  0.41358973  0.59225242  1
  H+  H2  1  0.25403431  0.38811465  0.48892627  1
  H+  H3  1  0.10491489  0.22660506  0.66765832  1
  H+  H4  1  0.46883947  0.61529272  0.84880507  1
  H+  H5  1  0.64497428  0.62966342  0.83655748  1
  H+  H6  1  0.90855287  0.03058013  0.84224513  1
  H+  H7  1  0.11345816  0.39907270  0.00861605  1
  H+  H8  1  0.58226796  0.17301822  0.43526936  1
  H+  H9  1  0.22688682  0.61976836  0.18252766  1
  H+  H10  1  0.88841070  0.52626136  0.66921148  1
  H+  H11  1  0.89783806  0.27020241  0.17636502  1
  H+  H12  1  0.78285705  0.12808672  0.86012355  1
  H+  H13  1  0.13744276  0.61418500  0.65696063  1
  H+  H14  1  0.98403349  0.11562905  0.33016151  1
  H+  H15  1  0.41873174  0.07992127  0.92926266  1
  H+  H16  1  0.38768491  0.72458687  0.49388575  1
  H+  H17  1  -0.02776678  0.36623511  0.65747277  1
  H+  H18  1  0.38858787  0.77390886  0.82830780  1
  H+  H19  1  0.97459171  0.36756069  1.00026181  1
  H+  H20  1  0.62194194  0.38322424  0.46327210  1
  H+  H21  1  0.89098195  0.86238764  0.17378401  1
  H+  H22  1  0.51960991  0.14487091  0.34975452  1
  H+  H23  1  0.72764050  0.35537768  0.84336520  1
  H+  H24  1  -0.03351866  0.60289909  0.51108724  1
  H+  H25  1  0.39348005  0.28907020  0.18813852  1
  H+  H26  1  0.88803179  0.52459890  0.99375208  1
  H+  H27  1  0.12022676  -0.02148712  0.66314182  1
  H+  H28  1  0.60275030  0.07475868  0.63602902  1
  H+  H29  1  0.13862427  0.77128211  0.17773157  1
  H+  H30  1  0.33211484  0.43069592  0.76806128  1
  H+  H31  1  0.36467138  0.13846269  0.02086577  1
  H+  H32  1  0.97773501  0.62112702  0.17516504  1
  H+  H33  1  0.78103306  0.64559637  0.68912719  1
  H+  H34  1  0.43289371  0.33998975  0.85775481  1
  H+  H35  1  0.20779692  0.12913034  0.66286635  1
  H+  H36  1  0.12053601  0.38968135  0.15865012  1
  H+  H37  1  0.59376714  0.64617122  0.67733409  1
  H+  H38  1  0.02708974  0.14522362  0.00673142  1
  H+  H39  1  0.52753392  0.89462755  0.16499130  1
  H+  H40  1  0.60040270  0.62973358  1.00156649  1
  H+  H41  1  0.28164247  0.87967184  0.67118162  1
  H+  H42  1  -0.01903098  0.85855723  0.17346402  1
  H+  H43  1  0.61687681  0.88061394  0.33953093  1
  H+  H44  1  -0.01407879  0.85311803  0.81288074  1
  H+  H45  1  0.38724582  0.78302104  0.17358285  1
  H+  H46  1  0.37488090  0.24111253  0.35416874  1
  H+  H47  1  0.22585788  0.11081493  0.15340552  1
  H+  H48  1  0.89642627  0.52142146  0.32720218  1
  H+  H49  1  0.22538148  0.86296015  0.18188823  1
  H+  H50  1  0.11347103  0.88609169  0.50007442  1
  H+  H51  1  0.00270881  0.87157368  -0.01684087  1
  H+  H52  1  0.13166590  0.52838420  0.83745694  1
  H+  H53  1  0.87501741  0.27119068  0.63948099  1
  H+  H54  1  0.87367287  0.13284775  0.16067467  1
  H+  H55  1  0.97070722  0.53363844  0.86268234  1
  H+  H56  1  0.27705070  0.88357398  0.34416330  1
  H+  H57  1  0.11765141  0.47734071  0.16286255  1
  H+  H58  1  0.11077468  0.84424478  -0.01701645  1
  H+  H59  1  0.27166297  0.13192112  0.50028976  1
  H+  H60  1  0.65788223  0.12427837  0.18329385  1
  H+  H61  1  0.67416027  0.51909869  0.81167073  1
  H+  H62  1  0.78633310  0.96881839  0.80703034  1
  H+  H63  1  0.34578545  0.38776826  0.82850168  1
  H+  H64  1  0.35870085  0.63531128  0.82938586  1
  H+  H65  1  0.37940019  1.03089073  0.18302669  1
  H+  H66  1  0.73651800  0.88164579  0.66202840  1
  H+  H67  1  0.61580315  0.38409650  0.64889449  1
  H+  H68  1  0.62853618  0.48279518  0.35413103  1
  H+  H69  1  0.85609559  0.36710748  0.82789931  1
  H+  H70  1  0.86165175  0.72670196  0.50908037  1
  H+  H71  1  0.35609375  0.38473626  0.02183218  1
  H+  H72  1  0.48264197  0.86659437  0.66742263  1
  H+  H73  1  0.98289187  0.36047086  0.17712346  1
  H+  H74  1  0.54498588  0.08145953  0.13451577  1
  H+  H75  1  0.51524257  0.38778483  1.01068235  1
  H+  H76  1  0.88079468  0.36979720  0.66022618  1
  H+  H77  1  0.59852607  0.72305749  0.83270492  1
  H+  H78  1  0.88744833  0.81925795  0.92221456  1
  H+  H79  1  0.89285415  0.61940832  0.98916966  1
  H+  H80  1  0.63760470  0.10387803  0.50034133  1
  H+  H81  1  0.74842765  0.65636220  0.83855578  1
  H+  H82  1  0.64659892  1.03074898  0.17839441  1
  H+  H83  1  0.32022971  0.65899645  0.11376268  1
  H+  H84  1  0.65540196  0.06069455  0.58477434  1
  H+  H85  1  0.40365861  0.57393685  -0.05685609  1
  H+  H86  1  0.50008460  0.84063982  0.98135331  1
  H+  H87  1  0.89162560  0.86853559  0.50861317  1
  H+  H88  1  0.14041147  0.86118106  0.33576800  1
  H+  H89  1  0.11365809  0.22542597  0.33979348  1
  H+  H90  1  0.30015936  0.62323185  0.34781557  1
  H+  H91  1  0.63063604  0.85908441  0.84352790  1
  H+  H92  1  0.66717777  0.34410616  0.93538192  1
  H+  H93  1  0.62456136  0.39354090  0.35095929  1
  H+  H94  1  0.89611328  0.28085240  0.32933031  1
  H+  H95  1  0.32335454  0.98679436  0.01653418  1
  H+  H96  1  0.38166801  0.89687077  0.82532397  1
  H+  H97  1  0.88920239  0.12896880  0.50435164  1
  H+  H98  1  0.08137758  0.17268703  0.09806868  1
  H+  H99  1  0.48965073  0.38064825  0.34321872  1
  H+  H100  1  0.10294500  0.72642267  0.99805042  1
  H+  H101  1  0.88971557  0.61644589  0.67135744  1
  H+  H102  1  0.61646617  0.87547838  0.49282313  1
  H+  H103  1  0.86024296  -0.01845027  0.67024595  1
  H+  H104  1  0.37522824  0.41253997  0.67219565  1
  H+  H105  1  0.63366776  0.36922909  -0.00383732  1
  H+  H106  1  -0.01658490  0.11284986  0.17581050  1
  H+  H107  1  0.65864947  0.38253751  0.83675285  1
  H+  H108  1  0.97826031  0.86508037  0.51379134  1
  H+  H109  1  0.38214177  0.27378334  0.00941438  1
  H+  H110  1  0.86360046  0.22494502  0.00914697  1
  H+  H111  1  0.78948293  0.14144345  0.34626081  1
  H+  H112  1  -0.09404914  0.83684851  0.60645821  1
  H+  H113  1  0.21449775  0.29126292  0.60664528  1
  H+  H114  1  0.27657424  0.13940729  0.01844612  1
  H+  H115  1  0.61863131  0.89701473  0.16351353  1
  H+  H116  1  0.64376259  0.53733377  0.52132470  1
  H+  H117  1  0.86348573  0.98244877  0.49099539  1
  H+  H118  1  0.97406980  0.12273192  0.50536357  1
  H+  H119  1  0.15840613  0.08679779  0.56428528  1
  H+  H120  1  0.28471125  0.52843600  0.58442927  1
  H+  H121  1  0.34718009  0.17776048  0.41169375  1
  H+  H122  1  0.13934566  0.35419374  0.31957372  1
  H+  H123  1  0.44170922  0.02856518  0.97638670  1
  H+  H124  1  0.25634899  0.61767722  1.01853987  1
  H+  H125  1  0.36494862  0.97370726  0.34495906  1
  H+  H126  1  0.12838363  0.16984039  0.81435726  1
  H+  H127  1  0.62118399  0.24463550  0.00776714  1
  H+  H128  1  0.64301544  0.12323191  0.00186216  1
  H+  H129  1  0.65568977  0.28264352  0.66897161  1
  H+  H130  1  0.86955259  0.38766914  0.33735407  1
  H+  H131  1  0.61246158  -0.02051758  1.00973409  1
  H+  H132  1  0.38867007  0.43005101  0.35226713  1
  H+  H133  1  0.22740886  0.85581001  0.50334937  1
  H+  H134  1  0.12101734  0.72559549  0.34473366  1
  H+  H135  1  0.90512671  0.11516222  0.85860957  1
  H+  H136  1  0.53677133  0.71211792  0.13487592  1
  H+  H137  1  0.22642308  0.61453100  0.66039664  1
  H+  H138  1  0.11384897  0.13506142  0.14891003  1
  H+  H139  1  0.60760971  0.88666363  0.67797620  1
  H+  H140  1  0.83983791  0.91925978  0.39925794  1
  H+  H141  1  0.22983073  0.36295363  0.17301663  1
  H+  H142  1  0.10859768  0.71548739  0.49673763  1
  H+  H143  1  0.36939085  0.84650971  1.02886907  1
  H+  H144  1  0.74166737  0.87604402  0.17343869  1
  H+  H145  1  0.74713049  0.61885802  0.31847650  1
  H+  H146  1  1.03313798  0.39320382  0.31963212  1
  H+  H147  1  0.11093818  0.63524580  0.16133268  1
  H+  H148  1  0.63619979  0.02856030  0.84723772  1
  H+  H149  1  0.71208963  0.84850381  0.84867326  1
  H+  H150  1  0.36753774  0.88373403  0.49494272  1
  H+  H151  1  0.63132826  0.36420734  0.17725438  1
  H+  H152  1  0.13363682  1.02767822  0.50546459  1
  H+  H153  1  0.60934339  0.23456401  0.34922373  1
  H+  H154  1  0.10935128  -0.02009184  0.84576710  1
  H+  H155  1  0.64735343  0.62233638  0.17575716  1
  H+  H156  1  0.53101987  0.88664063  0.33942196  1
  H+  H157  1  0.39528660  0.61025549  0.52599434  1
  H+  H158  1  0.09920589  0.62155164  0.49423113  1
  H+  H159  1  0.24256876  0.11441166  0.83392257  1
  H+  H160  1  0.39060319  0.77152528  0.66596735  1
  H+  H161  1  0.66321799  0.62811763  0.32251156  1
  H+  H162  1  0.88928651  0.11307559  -0.00383785  1
  H+  H163  1  0.24616899  0.36018600  0.65889489  1
  H+  H164  1  0.87048030  0.21709687  0.85998601  1
  H+  H165  1  0.34260648  0.25556143  0.85367669  1
  H+  H166  1  0.33978809  0.60758303  0.02307010  1
  H+  H167  1  0.00546689  0.62618943  -0.00244546  1
  H+  H168  1  0.02575064  0.63951426  0.66540783  1
  H+  H169  1  0.87444932  0.64396089  0.17467877  1
  H+  H170  1  0.78033174  0.88622038  0.34007410  1
  H+  H171  1  0.76945177  0.39840505  0.15787153  1
  H+  H172  1  0.16085197  0.36774122  0.58113150  1
  H+  H173  1  0.59020669  0.92671757  0.76967743  1
  H+  H174  1  0.53318393  0.15407947  0.00440372  1
  H+  H175  1  0.73424760  0.36780166  0.33226414  1
  H+  H176  1  0.14004786  0.27389784  0.16804433  1
  H+  H177  1  0.36031534  0.36372735  0.50758299  1
  H+  H178  1  0.61950366  0.48299533  0.16169705  1
  H+  H179  1  0.77714749  0.39770145  1.00485181  1
  H+  H180  1  0.90552651  0.08324208  0.59262170  1
  H+  H181  1  0.46778969  0.11940494  0.18128361  1
  H+  H182  1  0.47491222  0.08084750  0.59844437  1
  H+  H183  1  0.36266477  0.14942405  0.17696195  1
  H+  H184  1  0.14224862  0.12539343  1.00084138  1
  H+  H185  1  0.61091561  0.23307174  0.84163279  1
  H+  H186  1  0.13779941  0.11115786  0.35990776  1
  H+  H187  1  0.37944105  0.11472019  0.84062111  1
  H+  H188  1  0.98737310  0.61007996  0.32750711  1
  H+  H189  1  0.35600356  0.22217070  0.50569772  1
  H+  H190  1  0.09021669  0.95026765  0.00997379  1
  H+  H191  1  0.03215269  0.14888444  0.82956761  1
  H+  H192  1  0.08125274  0.66458731  0.10169561  1
  H+  H193  1  0.71923041  0.53116809  0.95024446  1
  H+  H194  1  0.87878054  0.77963080  0.66709361  1
  H+  H195  1  0.34981468  0.48516855  0.66086991  1
  H+  H196  1  0.22954154  0.11619251  0.35974825  1
  H+  H197  1  0.46625802  0.61157069  0.18997944  1
  H+  H198  1  0.13363823  0.61795256  0.83262620  1
  H+  H199  1  0.27107526  0.63733295  0.82229283  1
  H+  H200  1  0.33848284  -0.08468249  0.43665722  1
  H+  H201  1  0.77942706  0.88847351  0.49081762  1
  H+  H202  1  0.38565755  0.11542785  0.33908630  1
  H+  H203  1  0.47430992  0.37073065  0.64958551  1
  H+  H204  1  0.12159353  0.72976207  0.82246336  1
  H+  H205  1  0.48381896  0.37585268  0.18222085  1
  H+  H206  1  0.11254983  0.11115972  0.65844543  1
  H+  H207  1  0.76329388  0.14922707  0.63885586  1
  H+  H208  1  0.38979968  0.85919450  0.33034736  1
  H+  H209  1  0.11167567  0.15027988  0.49677346  1
  H+  H210  1  0.85785868  0.19884820  0.43044405  1
  H+  H211  1  0.36047532  0.48021582  0.17437789  1
  H+  H212  1  0.60706735  0.97437847  0.66750363  1
  H+  H213  1  0.10601859  0.96048843  0.15073985  1
  H+  H214  1  0.35085477  0.47101628  0.50831351  1
  H+  H215  1  0.77695965  0.38791824  0.67023901  1
  H+  H216  1  0.87451983  0.85873075  0.98573476  1
  H+  H217  1  0.10965883  0.24014778  0.49323880  1
  H+  H218  1  0.87235180  0.72835996  -0.00355758  1
  H+  H219  1  0.14947330  0.77640625  0.65689457  1
  H+  H220  1  0.13029053  0.49855011  0.51292515  1
  H+  H221  1  0.13547745  0.29266584  0.84282914  1
  H+  H222  1  0.60777683  0.47283153  0.00270491  1
  H+  H223  1  0.86343697  0.46195283  0.49739225  1
  H+  H224  1  0.15754036  0.87012181  0.65699246  1
  H+  H225  1  0.11474606  0.23797931  0.00614623  1
  H+  H226  1  0.33083143  0.06471652  0.64382923  1
  H+  H227  1  0.87507118  0.74363153  0.17304120  1
  H+  H228  1  0.08715952  0.67213400  0.72256827  1
  H+  H229  1  0.37932596  0.52764375  0.84686414  1
  H+  H230  1  0.87590841  0.97867521  0.16548679  1
  H+  H231  1  0.43043141  0.35546302  0.28408483  1
  H+  H232  1  0.77474375  0.37640255  0.49082539  1
  H+  H233  1  0.63949557  0.76761137  0.32296510  1
  H+  H234  1  0.11942464  -0.02491648  0.35933928  1
  H+  H235  1  0.11035445  0.39737179  0.82951403  1
  H+  H236  1  0.37170994  0.39690323  0.17335535  1
  H+  H237  1  0.22609764  0.37293366  1.00274944  1
  H+  H238  1  0.17254746  0.07456991  0.09343527  1
  H+  H239  1  0.63319794  0.01240853  0.49766607  1
  H+  H240  1  0.10668220  0.87429658  0.16742264  1
  H+  H241  1  0.89363776  1.02685242  0.32855604  1
  H+  H242  1  0.08542453  0.42774184  0.06891829  1
  H+  H243  1  0.63444538  0.27744760  0.18125542  1
  H+  H244  1  0.54467783  0.43216976  0.87133950  1
  H+  H245  1  0.36531808  0.08288411  0.66803601  1
  H+  H246  1  0.89406009  0.86556643  0.32997467  1
  H+  H247  1  0.50207416  0.64704277  0.34378160  1
  H+  H248  1  0.97345923  0.36232220  0.84570663  1
  H+  H249  1  0.62554248  0.25876813  0.50243710  1
  H+  H250  1  0.08581840  0.04777379  0.86532552  1
  H+  H251  1  0.37329092  0.98327724  0.82433646  1
  H+  H252  1  0.35684214  0.64255251  0.17486621  1
  H+  H253  1  0.02523950  0.64768286  0.81817187  1
  H+  H254  1  0.84546534  0.81993811  0.81838015  1
  H+  H255  1  0.85603714  0.48877191  0.15773787  1
  H+  H256  1  0.54496662  0.39040278  0.87048323  1
  H+  H257  1  0.10289772  0.38981409  0.67465008  1
  H+  H258  1  0.61377378  0.63824660  0.49663402  1
  H+  H259  1  0.10515737  0.63049190  0.99792341  1
  H+  H260  1  0.78646751  0.13574605  0.16240193  1
  H+  H261  1  0.64000214  0.76328281  0.49912364  1
  H+  H262  1  0.16447877  0.07234004  0.95279849  1
  H+  H263  1  0.57936711  0.15335742  0.68551027  1
  H+  H264  1  0.35835867  0.63879318  0.66253434  1
  H+  H265  1  0.48374921  0.85927151  0.50542316  1
  H+  H266  1  0.87225615  0.72654598  0.33015071  1
  H+  H267  1  0.52787956  0.89086804  0.82582119  1
  H+  H268  1  0.88516594  0.36620360  0.99914585  1
  H+  H269  1  0.23816549  0.89681358  0.02226580  1
  H+  H270  1  0.15889805  0.62118461  0.35808080  1
  H+  H271  1  0.86747931  0.97565364  0.01163696  1
  H+  H272  1  0.54658809  0.59344559  0.34937376  1
  H+  H273  1  0.65858905  1.02554346  0.33599533  1
  H+  H274  1  0.88091107  0.14659966  0.34463245  1
  H+  H275  1  0.12388706  0.52452363  0.99324191  1
  H+  H276  1  0.58670983  0.72905108  0.67602171  1
  H+  H277  1  0.22340753  0.38125629  0.84090102  1
  H+  H278  1  0.18720918  0.58067628  0.40966852  1
  H+  H279  1  0.39174046  0.10879111  0.51910125  1
  H+  H280  1  0.03057862  0.88688163  0.34529562  1
  H+  H281  1  0.77734411  0.88686170  0.02243605  1
  H+  H282  1  0.34909647  0.25348242  0.68163988  1
  H+  H283  1  0.85182355  0.14602702  0.63955548  1
  H+  H284  1  0.64214874  0.86615653  0.01951896  1
  H+  H285  1  0.85429585  0.45461144  0.82354445  1
  H+  H286  1  0.39774327  0.88943677  0.01427837  1
  H+  H287  1  0.52662381  0.13873596  0.49808126  1
  H+  H288  1  0.16745976  0.83009565  0.27545765  1
  H+  H289  1  0.06787967  0.84472327  0.80521046  1
  H+  H290  1  0.33893168  0.16158502  0.68330694  1
  H+  H291  1  0.07524492  0.42162975  0.76948576  1
  H+  H292  1  0.15804857  0.58031278  0.23628230  1
  H+  H293  1  0.16726705  0.31776479  0.26628360  1
  H+  H294  1  0.33055483  0.42026455  0.08052780  1
  H+  H295  1  0.57216094  0.66385152  0.09848313  1
  H+  H296  1  0.84102545  0.41607539  0.39806788  1
  H+  H297  1  0.12322864  0.47484462  0.33713802  1
  H+  H298  1  0.91672530  0.33599091  0.90732250  1
  H+  H299  1  0.65274512  0.78864905  0.17012077  1
  H+  H300  1  0.39236564  0.02057120  0.51138031  1
  H+  H301  1  0.82716273  0.93237611  0.76195342  1
  H+  H302  1  0.91056740  0.57412731  0.57168214  1
  H+  H303  1  0.16623640  0.81867279  0.93631045  1
  H+  H304  1  0.37836211  0.54720764  0.34688789  1
  H+  H305  1  0.92140154  0.57051513  0.89719965  1
  H+  H306  1  0.85872157  0.88885217  0.67402995  1
  H+  H307  1  0.38078088  0.86767471  0.67091601  1
  H+  H308  1  0.15938728  0.12059687  0.25142737  1
  H+  H309  1  0.92671837  0.08194708  0.94128903  1
  H+  H310  1  0.58000578  0.92089463  0.06904814  1
  H+  H311  1  0.31858118  0.93150018  0.11262942  1
  H+  H312  1  0.83296803  0.43000847  0.06576004  1
  H+  H313  1  0.87949602  0.32310749  0.48527926  1
  H+  H314  1  0.68166989  0.58227317  0.91832392  1
  H+  H315  1  0.62283993  0.44850434  0.76254928  1
  H+  H316  1  0.58520861  0.90392598  0.43326021  1
  H+  H317  1  0.80452440  0.15603512  0.75144538  1
  H+  H318  1  0.41244623  0.08572938  0.27890034  1
  H+  H319  1  0.43115327  0.82246177  0.88959268  1
  H+  H320  1  0.50874724  0.62413176  0.00725678  1
  H+  H321  1  0.57827035  0.66160419  0.43677064  1
  H+  H322  1  0.83003032  0.40391042  0.73274570  1
  H+  H323  1  0.07724260  0.17349169  0.40301059  1
  H+  H324  1  0.63721662  0.77481976  1.01631819  1
  H+  H325  1  0.40105449  0.34161140  0.60047051  1
  H+  H326  1  0.12735314  0.07349585  0.25131625  1
  H+  H327  1  0.30194331  0.16779072  0.77731136  1
  H+  H328  1  0.85097287  0.19023570  0.75096073  1
  H+  H329  1  0.68970686  0.08579028  0.27810389  1
  H+  H330  1  0.10975649  0.48123060  0.67128676  1
  H+  H331  1  0.67445008  0.81912912  0.55960577  1
  H+  H332  1  0.37670986  0.66441213  0.43747092  1
  H+  H333  1  0.37902796  0.51417279  0.00406773  1
  H+  H334  1  0.92282187  0.58880149  0.23747155  1
  H+  H335  1  0.34059487  0.66498653  0.73011618  1
  H+  H336  1  0.16026201  0.57179512  0.56003110  1
  H+  H337  1  0.69349858  0.91120540  0.61301613  1
  H+  H338  1  -0.04128960  0.11785254  0.65453300  1
  H+  H339  1  0.44804106  0.74227871  0.96320732  1
  H+  H340  1  0.85517147  0.63396764  0.50823687  1
  H+  H341  1  0.41995960  0.84216367  0.23198906  1
  H+  H342  1  0.39765435  0.77373546  0.32523490  1
  H+  H343  1  0.36360446  0.89833142  0.16270902  1
  H+  H344  1  0.42303875  0.83038228  0.56402421  1
  H+  H345  1  0.06629415  0.17621105  0.72916009  1
  H+  H346  1  0.44838557  0.36257112  0.50641295  1
  H+  H347  1  0.66161302  0.08313089  0.90927014  1
  H+  H348  1  0.87326502  0.63681103  0.32839956  1
  H+  H349  1  0.08305729  0.66398683  0.40307982  1
  H+  H350  1  0.56347899  0.66559489  0.77249192  1
  H+  H351  1  0.84647033  0.68894064  0.74507410  1
  H+  H352  1  0.78980595  0.63837773  0.00397924  1
  H+  H353  1  0.72878896  0.11638977  1.00122113  1
  H+  H354  1  0.61483151  0.19331451  0.74999829  1
  H+  H355  1  0.45063213  0.02394089  0.65737560  1
  H+  H356  1  0.67041990  0.34022571  0.27549651  1
  H+  H357  1  0.40302203  0.59186421  0.24669610  1
  H+  H358  1  0.08152047  0.91162858  0.44096015  1
  H+  H359  1  0.64268848  0.53531961  0.66231884  1
  H+  H360  1  0.23352970  0.77315557  0.88100612  1
  H+  H361  1  0.83866536  0.16407409  0.06763703  1
  H+  H362  1  0.17371643  0.82889169  0.56409768  1
  H+  H363  1  0.67535132  0.58981217  0.23490372  1
  H+  H364  1  0.34319841  0.91281566  0.73329215  1
  H+  H365  1  0.92544017  0.83890844  0.27014115  1
  H+  H366  1  0.73405068  0.62535274  0.51889514  1
  H+  H367  1  0.17164887  0.35060866  0.94024874  1
  H+  H368  1  0.67661248  0.60619315  0.61380319  1
  H+  H369  1  0.25529049  0.85597125  0.84485341  1
  H+  H370  1  0.78017362  0.64437776  0.17093128  1
  H+  H371  1  0.58007863  0.16606728  0.09791290  1
  H+  H372  1  0.07474593  0.90747834  0.71349014  1
  H+  H373  1  0.58341789  0.42196444  0.10340765  1
  H+  H374  1  0.91935271  0.33396097  0.26675558  1
  H+  H375  1  0.35039281  0.44839894  0.41312392  1
  H+  H376  1  0.47437470  0.12336520  0.84084890  1
  H+  H377  1  0.92497152  0.08394056  0.23662886  1
  H+  H378  1  0.34422266  0.18427709  0.11586037  1
  H+  H379  1  0.67399671  0.83225810  0.26635050  1
  H+  H380  1  0.84667191  0.91985047  0.10481155  1
  H+  H381  1  0.15728926  0.58488052  0.93234639  1
  H+  H382  1  0.61088908  0.14276461  0.84245757  1
  H+  H383  1  0.39195030  0.32600749  0.94874148  1
  O2-  O384  1  0.08359758  0.16825550  0.14328615  1
  O2-  O385  1  0.07711805  0.17673568  0.48399819  1
  O2-  O386  1  0.08831157  0.19069516  0.80804615  1
  O2-  O387  1  0.09010791  0.42013690  0.14333526  1
  O2-  O388  1  0.15425960  0.39694738  0.54504203  1
  O2-  O389  1  0.07684869  0.42494502  0.81461244  1
  O2-  O390  1  0.08158258  0.66674091  0.14637741  1
  O2-  O391  1  0.07269189  0.65582153  0.48063773  1
  O2-  O392  1  0.08401279  0.67503212  0.80081744  1
  O2-  O393  1  0.07151403  0.89712182  0.14885864  1
  O2-  O394  1  0.08281424  0.91631784  0.48654490  1
  O2-  O395  1  0.04873126  0.88654567  0.80253577  1
  O2-  O396  1  0.33601832  0.18280313  0.16053486  1
  O2-  O397  1  0.33487781  0.16257862  0.49142871  1
  O2-  O398  1  0.30215478  0.15682542  0.82184604  1
  O2-  O399  1  0.33769525  0.42237902  0.15591698  1
  O2-  O400  1  0.32390755  0.41747406  0.48378233  1
  O2-  O401  1  0.32523354  0.42630660  0.81307789  1
  O2-  O402  1  0.32732900  0.67279666  0.15883064  1
  O2-  O403  1  0.37121360  0.66503972  0.48190399  1
  O2-  O404  1  0.33128284  0.66450272  0.80721609  1
  O2-  O405  1  0.33060184  0.92885344  0.15687033  1
  O2-  O406  1  0.33722116  0.91490966  0.48225190  1
  O2-  O407  1  0.34727609  0.92293320  0.80903102  1
  O2-  O408  1  0.56946175  0.14306451  0.14093669  1
  O2-  O409  1  0.58668615  0.17242969  0.48250458  1
  O2-  O410  1  0.57965017  0.17218435  0.82697124  1
  O2-  O411  1  0.58577612  0.42195328  0.14880278  1
  O2-  O412  1  0.61020936  0.36583551  0.50646045  1
  O2-  O413  1  0.66851487  0.46619808  0.79235603  1
  O2-  O414  1  0.56624965  0.67955465  0.14150732  1
  O2-  O415  1  0.58399090  0.66857959  0.48117581  1
  O2-  O416  1  0.56761429  0.66173064  0.81760862  1
  O2-  O417  1  0.58803636  0.92722230  0.14952351  1
  O2-  O418  1  0.58336472  0.90338476  0.47894763  1
  O2-  O419  1  0.59006460  0.92452659  0.81488878  1
  O2-  O420  1  0.84452927  0.16330157  0.14353044  1
  O2-  O421  1  0.85552463  0.20507905  0.47664557  1
  O2-  O422  1  0.84576304  0.15414722  0.86419269  1
  O2-  O423  1  0.82380602  0.43376172  0.13582037  1
  O2-  O424  1  0.83568966  0.40364924  0.47863415  1
  O2-  O425  1  0.82384973  0.39423678  0.80931992  1
  O2-  O426  1  0.84310319  0.67640144  0.15978529  1
  O2-  O427  1  0.82477768  0.66535610  0.49746920  1
  O2-  O428  1  0.84359433  0.70953248  0.82050034  1
  O2-  O429  1  0.84418492  0.91745478  0.15045493  1
  O2-  O430  1  0.84018006  0.92235746  0.47646896  1
  O2-  O431  1  0.82005807  0.93993920  0.80714059  1
  O2-  O432  1  0.16603867  0.07472625  0.13750560  1
  O2-  O433  1  0.16401612  0.08883220  0.51926089  1
  O2-  O434  1  0.13449433  0.03798170  0.86528592  1
  O2-  O435  1  0.16770163  0.33395527  0.18353592  1
  O2-  O436  1  0.16663086  0.34879880  0.49544490  1
  O2-  O437  1  0.16454590  0.35219792  0.85929782  1
  O2-  O438  1  0.16322715  0.58634008  0.19220498  1
  O2-  O439  1  0.14753556  0.55943781  0.51627162  1
  O2-  O440  1  0.16303862  0.58964395  0.85216139  1
  O2-  O441  1  0.16476017  0.82935080  0.19638721  1
  O2-  O442  1  0.16724387  0.82458893  0.51909448  1
  O2-  O443  1  0.20693362  0.80608701  0.86708411  1
  O2-  O444  1  0.40933121  0.09175898  0.19855009  1
  O2-  O445  1  0.42507179  0.07972401  0.52893300  1
  O2-  O446  1  0.41240711  0.08706145  0.85423768  1
  O2-  O447  1  0.42584043  0.35034934  0.20132174  1
  O2-  O448  1  0.39166551  0.33267823  0.52508641  1
  O2-  O449  1  0.37250996  0.31643094  0.86906804  1
  O2-  O450  1  0.40543161  0.58481220  0.20187694  1
  O2-  O451  1  0.40017301  0.56694932  0.55384287  1
  O2-  O452  1  0.40793333  0.58645352  0.86472094  1
  O2-  O453  1  0.42014320  0.84459041  0.18657767  1
  O2-  O454  1  0.42192568  0.82946661  0.51937449  1
  O2-  O455  1  0.42044821  0.83288742  0.84598127  1
  O2-  O456  1  0.68443204  0.09001865  0.19464377  1
  O2-  O457  1  0.66329593  0.07045926  0.51630371  1
  O2-  O458  1  0.66402706  0.08803316  0.86396517  1
  O2-  O459  1  0.66391945  0.33723636  0.19430659  1
  O2-  O460  1  0.66274480  0.32482972  0.51870735  1
  O2-  O461  1  0.66929690  0.34008306  0.85912319  1
  O2-  O462  1  0.67701590  0.59176409  0.18826659  1
  O2-  O463  1  0.67050259  0.59706783  0.53403249  1
  O2-  O464  1  0.68562906  0.61030945  0.84978479  1
  O2-  O465  1  0.68026856  0.84653436  0.18814520  1
  O2-  O466  1  0.67461291  0.82536425  0.51520588  1
  O2-  O467  1  0.65123517  0.82085511  0.85970417  1
  O2-  O468  1  0.92288387  0.07987868  0.19083707  1
  O2-  O469  1  0.91173718  0.09100287  0.51748901  1
  O2-  O470  1  0.94329633  0.08782251  0.86171870  1
  O2-  O471  1  0.92399499  0.32863859  0.19374129  1
  O2-  O472  1  0.91632406  0.29642138  0.48686924  1
  O2-  O473  1  0.91369584  0.33010854  0.86174016  1
  O2-  O474  1  0.91830387  0.59521992  0.19191258  1
  O2-  O475  1  0.90646492  0.56956864  0.52659345  1
  O2-  O476  1  0.93398070  0.55823881  0.85514837  1
  O2-  O477  1  0.91845591  0.82919534  0.18982188  1
  O2-  O478  1  0.91728180  0.83655029  0.52802280  1
  O2-  O479  1  0.88207203  0.80156268  0.83886052  1
  O2-  O480  1  0.16738353  0.07725203  0.36501669  1
  O2-  O481  1  0.15136017  0.09008495  0.64419583  1
  O2-  O482  1  0.17248247  0.09126044  0.99551736  1
  O2-  O483  1  0.16501078  0.31712835  0.31120056  1
  O2-  O484  1  0.19299688  0.31629266  0.63636324  1
  O2-  O485  1  0.16674584  0.34543131  0.98532568  1
  O2-  O486  1  0.19231415  0.59078502  0.36575597  1
  O2-  O487  1  0.16650202  0.58069780  0.64563062  1
  O2-  O488  1  0.15217377  0.58596119  0.97754712  1
  O2-  O489  1  0.17089310  0.83050475  0.32077540  1
  O2-  O490  1  0.18785498  0.83767213  0.64454060  1
  O2-  O491  1  0.14664736  0.81372622  0.97916326  1
  O2-  O492  1  0.41213445  0.08138886  0.32391198  1
  O2-  O493  1  0.49887032  0.07237733  0.63707611  1
  O2-  O494  1  0.42614483  0.07336929  0.97427404  1
  O2-  O495  1  0.42891652  0.35604581  0.32923603  1
  O2-  O496  1  0.41108138  0.34799196  0.64586720  1
  O2-  O497  1  0.40683165  0.33320544  0.99272869  1
  O2-  O498  1  0.39887088  0.60710205  0.32301164  1
  O2-  O499  1  0.34162983  0.55628078  0.60428545  1
  O2-  O500  1  0.40803849  0.57520622  0.98855263  1
  O2-  O501  1  0.42300884  0.83381083  0.31145880  1
  O2-  O502  1  0.41931590  0.83454560  0.65255079  1
  O2-  O503  1  0.45248710  0.79754561  0.95552055  1
  O2-  O504  1  0.69414030  0.08577823  0.32274025  1
  O2-  O505  1  0.64912593  0.06069775  0.63173954  1
  O2-  O506  1  0.66701271  0.08710110  0.98783905  1
  O2-  O507  1  0.67205006  0.34067201  0.32057313  1
  O2-  O508  1  0.67805624  0.33905571  0.64569432  1
  O2-  O509  1  0.66824371  0.34344440  0.98114070  1
  O2-  O510  1  0.68133907  0.58892474  0.30686306  1
  O2-  O511  1  0.67159182  0.59841059  0.65889518  1
  O2-  O512  1  0.68688434  0.55987694  0.96022516  1
  O2-  O513  1  0.67157840  0.82869695  0.31178723  1
  O2-  O514  1  0.67909117  0.86338898  0.64068482  1
  O2-  O515  1  0.67448030  0.83557170  1.02677255  1
  O2-  O516  1  0.92342929  0.08690787  0.31301986  1
  O2-  O517  1  0.89933342  0.08284047  0.63833682  1
  O2-  O518  1  0.92271299  0.08358644  0.98635144  1
  O2-  O519  1  0.92076851  0.34017241  0.31268658  1
  O2-  O520  1  0.91294026  0.34155736  0.63995401  1
  O2-  O521  1  0.91455753  0.33493680  0.98431342  1
  O2-  O522  1  0.92783707  0.58184648  0.31073616  1
  O2-  O523  1  0.91833130  0.58603046  0.65327991  1
  O2-  O524  1  0.92200045  0.58478707  0.97524403  1
  O2-  O525  1  0.92590468  0.83652332  0.31526323  1
  O2-  O526  1  0.89923774  0.83845915  0.65136784  1
  O2-  O527  1  0.90008517  0.82587642  0.96625515  1
  O2-  O528  1  0.08885282  0.17693758  0.01995783  1
  O2-  O529  1  0.07984129  0.16517846  0.35855229  1
  O2-  O530  1  0.06265389  0.16931987  0.68423909  1
  O2-  O531  1  0.08211489  0.42866304  0.02292224  1
  O2-  O532  1  0.09650581  0.42045538  0.31475745  1
  O2-  O533  1  0.07339937  0.42034106  0.68735531  1
  O2-  O534  1  0.07190976  0.66092418  0.01337488  1
  O2-  O535  1  0.09233299  0.66394171  0.35807368  1
  O2-  O536  1  0.08817304  0.66963088  0.67738885  1
  O2-  O537  1  0.06552463  0.89428882  -0.00963396  1
  O2-  O538  1  0.08852751  0.91018595  0.36387979  1
  O2-  O539  1  0.10660315  0.92008177  0.67515656  1
  O2-  O540  1  0.33689625  0.17026364  0.03483173  1
  O2-  O541  1  0.34703563  0.17972325  0.36635415  1
  O2-  O542  1  0.31269389  0.19406449  0.69926072  1
  O2-  O543  1  0.32738004  0.41746586  0.03473043  1
  O2-  O544  1  0.37291373  0.47041396  0.37108377  1
  O2-  O545  1  0.33774031  0.43541792  0.68714029  1
  O2-  O546  1  0.30533496  0.62852396  0.04444767  1
  O2-  O547  1  0.36458001  0.65733191  0.35252664  1
  O2-  O548  1  0.33988025  0.67435682  0.68505890  1
  O2-  O549  1  0.28136149  0.94671285  0.04573660  1
  O2-  O550  1  0.33826369  0.91231819  0.35820832  1
  O2-  O551  1  0.34371619  0.90642336  0.68765223  1
  O2-  O552  1  0.59063319  0.18353311  0.02345825  1
  O2-  O553  1  0.57819835  0.17624745  0.36735442  1
  O2-  O554  1  0.63066132  0.19881720  0.70628963  1
  O2-  O555  1  0.57649423  0.41674404  0.02428720  1
  O2-  O556  1  0.59742187  0.42418108  0.37116420  1
  O2-  O557  1  0.58361810  0.41430932  0.63665416  1
  O2-  O558  1  0.57041178  0.65499282  0.02223712  1
  O2-  O559  1  0.55968408  0.65289802  0.35320881  1
  O2-  O560  1  0.55927296  0.67101653  0.69274877  1
  O2-  O561  1  0.58309302  0.91867849  0.02394175  1
  O2-  O562  1  0.58958701  0.91213030  0.35716637  1
  O2-  O563  1  0.57546057  0.91629764  0.69004557  1
  O2-  O564  1  0.83412290  0.16357921  0.02191893  1
  O2-  O565  1  0.85185365  0.17801708  0.35968049  1
  O2-  O566  1  0.82660032  0.18439029  0.63623794  1
  O2-  O567  1  0.83767129  0.42810214  0.01934115  1
  O2-  O568  1  0.84008165  0.41962672  0.35285151  1
  O2-  O569  1  0.83703776  0.41443663  0.68771173  1
  O2-  O570  1  0.85155485  0.66961047  0.01337847  1
  O2-  O571  1  0.83723489  0.66334573  0.33640202  1
  O2-  O572  1  0.84293471  0.67518518  0.70019037  1
  O2-  O573  1  0.84196671  0.91561101  0.02689434  1
  O2-  O574  1  0.84108024  0.91797737  0.35365194  1
  O2-  O575  1  0.82988707  0.92322002  0.68946180  1
