# generated using pymatgen
data_H2O
_symmetry_space_group_name_H-M   'P 1'
_cell_length_a   17.99152933
_cell_length_b   17.99436439
_cell_length_c   22.01082098
_cell_angle_alpha   90.02473597
_cell_angle_beta   89.96800890
_cell_angle_gamma   120.00559503
_symmetry_Int_Tables_number   1
_chemical_formula_structural   H2O
_chemical_formula_sum   'H384 O192'
_cell_volume   6170.87718479
_cell_formula_units_Z   192
loop_
 _symmetry_equiv_pos_site_id
 _symmetry_equiv_pos_as_xyz
  1  'x, y, z'
loop_
 _atom_type_symbol
 _atom_type_oxidation_number
  H+  1.0
  O2-  -2.0
loop_
 _atom_site_type_symbol
 _atom_site_label
 _atom_site_symmetry_multiplicity
 _atom_site_fract_x
 _atom_site_fract_y
 _atom_site_fract_z
 _atom_site_occupancy
  H+  H0  1  0.39551099  0.11216564  0.31984955  1
  H+  H1  1  0.39347101  0.52996062  0.83024600  1
  H+  H2  1  0.27000569  0.63004548  -0.00403380  1
  H+  H3  1  0.11185731  0.64152571  0.16881878  1
  H+  H4  1  0.88776922  0.61070999  0.66009937  1
  H+  H5  1  0.11297833  0.13482827  0.00409961  1
  H+  H6  1  0.26208235  0.88350807  0.50536790  1
  H+  H7  1  0.11830177  0.39131279  0.82714682  1
  H+  H8  1  0.39006157  0.61690817  0.97884665  1
  H+  H9  1  0.59720825  0.96447754  0.68554661  1
  H+  H10  1  0.25817898  0.37963910  0.67324037  1
  H+  H11  1  0.88160212  0.86332259  0.31373175  1
  H+  H12  1  0.35729336  0.65490717  0.48907045  1
  H+  H13  1  0.14154894  0.75638385  0.33948961  1
  H+  H14  1  -0.03098270  0.10525982  -0.01715068  1
  H+  H15  1  0.61356238  0.73082256  0.32817786  1
  H+  H16  1  0.23123592  0.35610573  0.49791983  1
  H+  H17  1  0.98249748  0.10700656  0.83140430  1
  H+  H18  1  0.75983320  0.15455698  0.82827850  1
  H+  H19  1  0.10283177  0.98360735  0.15740075  1
  H+  H20  1  0.51157660  0.86046762  0.85027141  1
  H+  H21  1  0.73002066  0.85315299  0.84879850  1
  H+  H22  1  0.61205089  0.73218081  0.67394982  1
  H+  H23  1  0.15083240  0.78131008  0.18304466  1
  H+  H24  1  0.12233518  0.98010378  0.00920290  1
  H+  H25  1  0.52556760  0.38568370  0.34497992  1
  H+  H26  1  0.86034041  0.11670433  0.48772515  1
  H+  H27  1  0.63217631  0.11829068  0.32767616  1
  H+  H28  1  0.10926909  0.13614714  0.15946767  1
  H+  H29  1  0.68949469  0.22805116  0.12850218  1
  H+  H30  1  0.35146131  0.73583255  0.46485675  1
  H+  H31  1  0.14870508  0.53010010  0.83098842  1
  H+  H32  1  0.35433699  0.22850263  0.66630772  1
  H+  H33  1  0.09962174  0.76195319  0.84670111  1
  H+  H34  1  0.87966464  0.11016071  0.68048699  1
  H+  H35  1  0.31306604  0.92524604  0.44118929  1
  H+  H36  1  0.11093459  0.97390154  0.32102506  1
  H+  H37  1  0.62841246  0.78026132  0.50480022  1
  H+  H38  1  0.62575187  0.35961332  0.69955856  1
  H+  H39  1  0.22360867  0.61578822  0.17477853  1
  H+  H40  1  0.26614446  0.88779517  0.35029970  1
  H+  H41  1  0.88747226  0.52526907  -0.00255896  1
  H+  H42  1  0.33242686  0.16310464  0.05889792  1
  H+  H43  1  0.58178070  0.71315172  1.04717234  1
  H+  H44  1  0.63069754  0.54023832  0.17372448  1
  H+  H45  1  0.58142275  0.33135069  0.68692999  1
  H+  H46  1  0.60951967  0.22679709  0.00678268  1
  H+  H47  1  0.42007170  0.70628170  0.12545959  1
  H+  H48  1  0.35631666  0.97760297  0.34545467  1
  H+  H49  1  0.83320822  0.40895612  0.40201033  1
  H+  H50  1  0.31983923  0.16833301  0.43293232  1
  H+  H51  1  0.37797252  0.64620886  0.82173111  1
  H+  H52  1  0.86181563  0.22743486  0.34336566  1
  H+  H53  1  0.84641204  0.96141529  0.67534575  1
  H+  H54  1  0.13240631  0.36362457  0.33250982  1
  H+  H55  1  0.92147374  0.76351288  0.97461812  1
  H+  H56  1  0.22159924  0.12019373  0.32901822  1
  H+  H57  1  0.87487465  0.64111568  1.00374238  1
  H+  H58  1  0.86512646  0.98031835  0.33247302  1
  H+  H59  1  0.88777527  0.51783185  0.83957862  1
  H+  H60  1  0.86282988  0.22833417  0.16179587  1
  H+  H61  1  0.98076659  0.36781782  0.50919252  1
  H+  H62  1  0.52815116  0.63868319  0.68309086  1
  H+  H63  1  0.62970755  0.10845695  0.84833174  1
  H+  H64  1  0.13259458  0.02333121  0.65738857  1
  H+  H65  1  0.72743027  0.26894473  0.61805855  1
  H+  H66  1  0.52602201  0.89270124  0.01217080  1
  H+  H67  1  0.47229304  0.10904273  0.99240638  1
  H+  H68  1  0.60736118  0.21334537  0.67218990  1
  H+  H69  1  0.51763116  0.38999049  0.16242639  1
  H+  H70  1  0.77557864  0.13619489  0.16261150  1
  H+  H71  1  0.88229220  0.88041364  0.16073241  1
  H+  H72  1  1.00595621  0.85556272  0.97575282  1
  H+  H73  1  0.37574796  0.35143485  0.18078777  1
  H+  H74  1  0.12224595  0.14399763  0.82740559  1
  H+  H75  1  0.45033545  0.36517418  0.66286682  1
  H+  H76  1  0.38956266  0.76931241  0.99545658  1
  H+  H77  1  0.85402320  0.72732008  0.33399771  1
  H+  H78  1  0.11561021  0.87704441  0.51934806  1
  H+  H79  1  0.01714012  0.89465904  0.81333646  1
  H+  H80  1  0.60878676  0.75509951  0.15800529  1
  H+  H81  1  0.22492252  0.10556700  0.84405505  1
  H+  H82  1  0.62143028  0.86540110  0.50905173  1
  H+  H83  1  0.16817695  0.58134411  0.23563276  1
  H+  H84  1  0.53985564  0.64113251  0.48378837  1
  H+  H85  1  0.62968466  0.61267314  0.32632798  1
  H+  H86  1  0.14125017  0.27771665  0.84053169  1
  H+  H87  1  0.37276653  0.24810525  0.33359176  1
  H+  H88  1  0.10612223  0.22364202  0.16057970  1
  H+  H89  1  0.63251624  0.36254927  0.99735866  1
  H+  H90  1  0.11676761  0.47706254  0.33819070  1
  H+  H91  1  0.39243317  0.76252092  0.75643259  1
  H+  H92  1  0.48644700  0.37530987  0.83475612  1
  H+  H93  1  0.84835686  -0.01757921  0.16362264  1
  H+  H94  1  0.61004469  0.46861238  0.50340022  1
  H+  H95  1  0.36943522  0.46247861  0.47942759  1
  H+  H96  1  0.16262078  0.83913656  0.94160240  1
  H+  H97  1  0.42471723  0.09031840  0.22776395  1
  H+  H98  1  0.88742143  0.12259430  0.32721180  1
  H+  H99  1  0.76059141  0.61310698  0.16024593  1
  H+  H100  1  0.51720471  0.88468557  0.17503076  1
  H+  H101  1  0.97790726  0.36145946  0.32995258  1
  H+  H102  1  0.64578613  0.36915945  0.50524559  1
  H+  H103  1  0.62295908  0.85634577  0.66504580  1
  H+  H104  1  0.14058556  0.52014085  0.98507484  1
  H+  H105  1  0.11705420  0.47752496  0.49078702  1
  H+  H106  1  0.40465665  0.77195960  0.85311574  1
  H+  H107  1  0.12313707  0.38731248  0.00606801  1
  H+  H108  1  0.00640388  0.14068984  0.33548103  1
  H+  H109  1  0.72449557  0.35436706  0.84447359  1
  H+  H110  1  0.75579039  0.87373264  0.66808370  1
  H+  H111  1  0.97654256  0.61625291  0.50315808  1
  H+  H112  1  0.21890785  0.35454934  0.32777989  1
  H+  H113  1  0.66000098  0.33629401  0.24267691  1
  H+  H114  1  1.02726346  0.64530226  0.17675281  1
  H+  H115  1  0.16254200  0.08032402  0.93412951  1
  H+  H116  1  0.38826600  0.26763680  0.98699029  1
  H+  H117  1  0.28307646  0.88367341  0.17607750  1
  H+  H118  1  1.02279358  0.38833814  0.15930131  1
  H+  H119  1  0.63715338  0.01865997  0.17838864  1
  H+  H120  1  0.11345093  0.47600885  0.16087705  1
  H+  H121  1  0.13982821  0.77393050  -0.00430398  1
  H+  H122  1  0.36576161  0.63652986  0.66013481  1
  H+  H123  1  0.40974152  0.84975598  0.40632570  1
  H+  H124  1  0.88432519  0.85737719  0.83370592  1
  H+  H125  1  0.92421634  0.34141535  0.56959328  1
  H+  H126  1  0.13181421  0.84236322  0.32868000  1
  H+  H127  1  0.22925103  0.60835493  0.32371882  1
  H+  H128  1  0.22913758  0.61324503  0.64538414  1
  H+  H129  1  0.36778840  0.96825724  0.00063849  1
  H+  H130  1  0.35530011  0.62716814  0.15869060  1
  H+  H131  1  0.60896793  0.39717390  0.16577457  1
  H+  H132  1  0.11119700  0.72346063  0.67033482  1
  H+  H133  1  0.76867402  0.37666854  0.34424508  1
  H+  H134  1  0.76140568  0.11385390  0.49286233  1
  H+  H135  1  0.86378826  0.38703135  0.83198048  1
  H+  H136  1  0.39071441  0.78118876  0.19006735  1
  H+  H137  1  0.77315659  0.39296168  0.17511988  1
  H+  H138  1  0.11049613  0.13126923  0.48600464  1
  H+  H139  1  0.47664017  0.35567444  0.50727352  1
  H+  H140  1  0.64403256  0.76268315  0.84538771  1
  H+  H141  1  0.35839682  0.37284971  0.32596029  1
  H+  H142  1  0.63759266  0.28658369  0.17888670  1
  H+  H143  1  0.87022175  0.47885727  0.67473207  1
  H+  H144  1  0.48012056  0.11936818  0.16684422  1
  H+  H145  1  0.81504955  0.17816849  0.76544084  1
  H+  H146  1  0.86794039  0.21920868  0.00135012  1
  H+  H147  1  0.84445369  0.96223779  -0.00353799  1
  H+  H148  1  0.57742777  0.49132358  0.68050852  1
  H+  H149  1  0.96718800  0.86130270  0.65827575  1
  H+  H150  1  0.61614177  0.52013869  0.99129604  1
  H+  H151  1  0.13988974  0.27062494  0.49846842  1
  H+  H152  1  0.51165611  0.13338655  0.67528423  1
  H+  H153  1  0.38448103  0.51314795  0.16502471  1
  H+  H154  1  0.14283783  0.27201883  0.99301864  1
  H+  H155  1  0.89221395  0.01531213  0.49627682  1
  H+  H156  1  0.76794350  0.13479851  0.66760255  1
  H+  H157  1  0.11769204  0.47815094  0.66941138  1
  H+  H158  1  -0.01671449  0.34976423  -0.01017943  1
  H+  H159  1  0.88534889  0.36374966  0.17764701  1
  H+  H160  1  0.39068041  0.35802159  0.98640232  1
  H+  H161  1  0.25512280  0.37157924  0.16720250  1
  H+  H162  1  0.15282267  0.32904461  0.23522603  1
  H+  H163  1  0.07939892  0.16407702  0.06143825  1
  H+  H164  1  0.78099039  0.63442210  0.82878609  1
  H+  H165  1  0.72407630  0.60700174  0.66750736  1
  H+  H166  1  0.53974300  0.88951754  0.33818233  1
  H+  H167  1  0.97792633  0.36886305  0.83650431  1
  H+  H168  1  0.38251280  0.84307683  0.74588828  1
  H+  H169  1  0.36189331  0.72102458  0.67086784  1
  H+  H170  1  0.13941567  0.61250007  0.65528484  1
  H+  H171  1  0.38969517  0.51621359  0.31868119  1
  H+  H172  1  0.65896418  0.12215280  0.50156184  1
  H+  H173  1  0.27652034  0.38732126  -0.00304716  1
  H+  H174  1  0.18578712  0.83201744  0.24421884  1
  H+  H175  1  0.52059749  0.38199651  1.00641937  1
  H+  H176  1  0.76976312  0.39443548  0.01633945  1
  H+  H177  1  0.64566232  0.61210195  0.83614774  1
  H+  H178  1  0.97420040  0.85575296  0.51261577  1
  H+  H179  1  0.35482782  0.13220968  0.48908114  1
  H+  H180  1  0.63443642  0.35833933  0.33758740  1
  H+  H181  1  0.87310690  0.48116219  0.49196780  1
  H+  H182  1  0.99752764  0.89257833  0.15490872  1
  H+  H183  1  0.10784222  0.23666434  0.33974600  1
  H+  H184  1  0.10558931  0.89078526  0.66809973  1
  H+  H185  1  0.37114241  0.97334077  0.16665956  1
  H+  H186  1  0.60184555  0.87877405  0.16371903  1
  H+  H187  1  0.89304680  0.60937337  0.83844325  1
  H+  H188  1  0.86024154  0.22418234  0.66838978  1
  H+  H189  1  0.02453111  0.63273199  0.66922198  1
  H+  H190  1  0.62632477  0.26355801  0.33198250  1
  H+  H191  1  0.62457604  -0.01583042  0.33440296  1
  H+  H192  1  0.15451440  0.82871102  0.70842343  1
  H+  H193  1  0.64717796  0.86946800  0.31462435  1
  H+  H194  1  0.52046380  0.89990850  0.46979492  1
  H+  H195  1  0.42705100  0.34061809  0.89261235  1
  H+  H196  1  0.22712825  0.11255522  -0.00930755  1
  H+  H197  1  0.39557151  0.59566006  0.56942586  1
  H+  H198  1  0.63504063  0.49148717  0.82610093  1
  H+  H199  1  0.05039165  0.79478371  0.88976977  1
  H+  H200  1  0.65327577  0.24875310  0.48605969  1
  H+  H201  1  0.88167703  0.10640910  -0.01588908  1
  H+  H202  1  0.86466843  -0.03169055  0.82122609  1
  H+  H203  1  0.86957021  0.72398661  0.82312654  1
  H+  H204  1  0.35656800  0.13403318  0.66787046  1
  H+  H205  1  0.66990386  0.08997749  0.90610394  1
  H+  H206  1  0.37880336  0.50177963  0.66803872  1
  H+  H207  1  0.12733504  0.76116549  0.51736824  1
  H+  H208  1  0.66528841  0.57881544  0.89792279  1
  H+  H209  1  0.11740460  0.38888860  0.66846438  1
  H+  H210  1  0.23019087  0.36732214  0.84308935  1
  H+  H211  1  0.12621068  0.89177683  0.01539036  1
  H+  H212  1  0.26004091  0.13231962  0.66696951  1
  H+  H213  1  0.63339092  1.02814776  0.00244150  1
  H+  H214  1  0.87335107  0.85184910  0.65874524  1
  H+  H215  1  0.71882722  0.59804425  0.51159886  1
  H+  H216  1  0.36549053  0.94662904  0.80821654  1
  H+  H217  1  0.76928999  0.13908160  0.33981216  1
  H+  H218  1  0.13237081  0.27151284  0.65369288  1
  H+  H219  1  0.37803842  0.87135516  0.46806601  1
  H+  H220  1  -0.01745795  0.36113037  0.66462629  1
  H+  H221  1  0.02364531  0.13765336  0.67931040  1
  H+  H222  1  0.92283981  0.32332168  0.93152583  1
  H+  H223  1  0.36872873  0.02680090  0.65497617  1
  H+  H224  1  0.11968872  0.38918413  0.49035576  1
  H+  H225  1  0.51284728  0.87515157  0.70643375  1
  H+  H226  1  0.37169282  0.01670927  0.51061691  1
  H+  H227  1  0.62062230  0.86612786  0.84064355  1
  H+  H228  1  0.78607388  0.56233302  0.11477705  1
  H+  H229  1  0.34179945  0.37069497  0.67484087  1
  H+  H230  1  0.86008091  0.71924404  0.67419024  1
  H+  H231  1  1.03002348  0.63961371  0.99647646  1
  H+  H232  1  0.22362243  0.11355150  0.50473932  1
  H+  H233  1  0.38443366  0.26651649  0.50452774  1
  H+  H234  1  0.71863148  0.61354328  0.32987209  1
  H+  H235  1  0.27946952  0.88002190  0.00108291  1
  H+  H236  1  0.62325498  0.10231668  0.66190108  1
  H+  H237  1  0.12754185  0.36247444  0.17448821  1
  H+  H238  1  0.63811432  0.35809972  0.84631069  1
  H+  H239  1  0.95105661  0.60202960  0.36219662  1
  H+  H240  1  0.22352907  0.10947290  0.16695270  1
  H+  H241  1  0.85708094  0.72190902  0.49612670  1
  H+  H242  1  0.60041141  0.21636543  0.83316880  1
  H+  H243  1  0.46254751  0.27060554  0.29823245  1
  H+  H244  1  0.36507100  0.62675465  0.33170205  1
  H+  H245  1  0.71499429  0.81837338  1.00336915  1
  H+  H246  1  0.14229271  0.61364947  0.33192019  1
  H+  H247  1  0.36934994  0.37415492  0.48667885  1
  H+  H248  1  0.61262111  0.13806038  0.00792351  1
  H+  H249  1  0.14796145  0.61883918  0.83305574  1
  H+  H250  1  0.78793684  0.38411797  0.67115182  1
  H+  H251  1  0.46374403  0.10185288  0.50636506  1
  H+  H252  1  0.39707221  0.53294465  0.97127352  1
  H+  H253  1  0.24332094  0.88799307  0.65972388  1
  H+  H254  1  0.48846705  0.11608950  0.31786173  1
  H+  H255  1  0.64226036  0.10979984  0.17192593  1
  H+  H256  1  0.12869234  1.02736974  0.83827365  1
  H+  H257  1  0.53201073  0.63432882  0.82525512  1
  H+  H258  1  0.02159249  0.13299499  0.48780825  1
  H+  H259  1  0.21937503  0.61594858  0.49864528  1
  H+  H260  1  0.17099222  0.33286404  0.93369267  1
  H+  H261  1  0.86611112  0.47689809  0.17726872  1
  H+  H262  1  0.77686816  0.89048567  0.33073126  1
  H+  H263  1  0.33826021  0.89592842  0.64468005  1
  H+  H264  1  0.91094360  0.07352940  0.73217127  1
  H+  H265  1  0.97320456  0.11470822  0.17465251  1
  H+  H266  1  0.35722539  0.22081429  0.15660463  1
  H+  H267  1  0.85065107  0.63724363  0.34397785  1
  H+  H268  1  0.36925383  0.39501081  0.82880267  1
  H+  H269  1  0.10635428  0.63455907  0.49077104  1
  H+  H270  1  0.88221537  0.28406052  0.83430587  1
  H+  H271  1  0.52324344  0.64068293  0.32865559  1
  H+  H272  1  0.87173319  0.51274657  0.34249873  1
  H+  H273  1  0.61074368  0.47878424  0.34407821  1
  H+  H274  1  0.45783315  0.61527601  0.16084077  1
  H+  H275  1  0.87505420  0.89182825  0.48845154  1
  H+  H276  1  0.93227456  0.82845167  0.88507037  1
  H+  H277  1  0.11905791  0.64032111  0.99207261  1
  H+  H278  1  0.39046457  0.87156104  0.18838053  1
  H+  H279  1  0.07630421  0.92135809  0.09505398  1
  H+  H280  1  0.46231862  0.08774167  0.84308100  1
  H+  H281  1  0.05224582  0.64192612  0.32736060  1
  H+  H282  1  0.38857832  0.86009771  0.99316798  1
  H+  H283  1  0.72518783  0.11564273  -0.00038052  1
  H+  H284  1  0.02527204  0.62884714  0.82474699  1
  H+  H285  1  0.42612184  0.59420037  0.88719097  1
  H+  H286  1  0.89644134  0.36577005  0.66748451  1
  H+  H287  1  0.76494210  0.88589293  0.15847089  1
  H+  H288  1  0.64964739  0.19921538  0.42524651  1
  H+  H289  1  0.58940325  0.90297426  0.78311473  1
  H+  H290  1  0.32845491  0.65650877  0.05634075  1
  H+  H291  1  0.09016094  0.41833321  0.06296027  1
  H+  H292  1  0.58120648  0.41391925  0.44110400  1
  H+  H293  1  0.12720433  0.10424862  0.31861216  1
  H+  H294  1  0.84844620  0.92312425  0.42708042  1
  H+  H295  1  0.07418994  0.16565080  0.39995758  1
  H+  H296  1  0.87352617  0.39117272  0.49661592  1
  H+  H297  1  0.64870025  0.78201867  0.95074720  1
  H+  H298  1  0.41255974  0.31658085  0.23418290  1
  H+  H299  1  0.35071577  0.45026776  0.04369131  1
  H+  H300  1  0.08719485  0.41830514  0.39892542  1
  H+  H301  1  0.41474770  0.57348773  0.25870549  1
  H+  H302  1  0.15314416  0.81170774  0.58238016  1
  H+  H303  1  0.92183917  0.09740010  0.26552359  1
  H+  H304  1  0.07724912  0.92675733  0.72442113  1
  H+  H305  1  0.57814138  0.41784952  0.06713802  1
  H+  H306  1  0.40344508  0.32456725  0.59799588  1
  H+  H307  1  0.91346231  0.58428036  0.24903912  1
  H+  H308  1  0.05802694  0.91052760  0.37336676  1
  H+  H309  1  0.59629034  0.66955471  0.76873785  1
  H+  H310  1  0.65654216  0.07351696  0.60358694  1
  H+  H311  1  0.91845927  0.57810584  0.93423231  1
  H+  H312  1  0.10225455  0.89321091  0.81938930  1
  H+  H313  1  0.74194453  0.37904403  0.50121476  1
  H+  H314  1  0.42619856  0.84068726  0.28360847  1
  H+  H315  1  0.59794628  0.92877363  0.42490062  1
  H+  H316  1  0.40966441  0.09377302  0.60132019  1
  H+  H317  1  0.64667931  0.82824451  0.60037078  1
  H+  H318  1  0.53606718  0.43508029  0.73964488  1
  H+  H319  1  0.67016536  0.82568935  0.25770261  1
  H+  H320  1  0.90790676  0.82717609  0.56733126  1
  H+  H321  1  0.08504467  0.66574364  0.76574445  1
  H+  H322  1  0.91302274  0.07484218  0.88353972  1
  H+  H323  1  0.36784214  0.07508193  0.84451574  1
  H+  H324  1  0.64206569  0.43444655  0.77270254  1
  H+  H325  1  0.64316428  0.62140054  0.66464423  1
  H+  H326  1  0.41117497  0.06889952  0.93354236  1
  H+  H327  1  0.27675109  0.22409670  0.37967263  1
  H+  H328  1  0.91653219  0.58195727  0.59946014  1
  H+  H329  1  0.88484066  0.61205934  0.50414100  1
  H+  H330  1  0.11313267  0.13864599  0.66964086  1
  H+  H331  1  0.40273604  0.76775554  0.33190338  1
  H+  H332  1  0.32893983  0.92040003  0.74147882  1
  H+  H333  1  0.90815189  0.83973601  0.21682901  1
  H+  H334  1  0.63843189  0.02296765  0.50044585  1
  H+  H335  1  0.16702044  0.08219241  0.22814009  1
  H+  H336  1  0.84971860  0.68052553  0.05867548  1
  H+  H337  1  0.88025637  0.60063780  0.18505995  1
  H+  H338  1  0.45194182  0.85310266  0.56803955  1
  H+  H339  1  0.91590791  0.07735836  0.55690424  1
  H+  H340  1  0.43739530  0.83224634  0.91660632  1
  H+  H341  1  0.16508974  0.08667588  0.59880654  1
  H+  H342  1  0.82558045  0.66681137  0.43550806  1
  H+  H343  1  0.68872900  0.32130653  0.58904927  1
  H+  H344  1  0.45675967  0.54493940  0.62349020  1
  H+  H345  1  0.32704056  0.41380042  0.77107496  1
  H+  H346  1  0.46665705  0.68266452  0.54649409  1
  H+  H347  1  0.82899198  0.42618238  0.07551162  1
  H+  H348  1  0.88781049  0.36006835  0.32992168  1
  H+  H349  1  0.66360275  0.56985528  0.57246879  1
  H+  H350  1  0.68676621  0.74778285  0.18525842  1
  H+  H351  1  0.09588488  0.17598957  0.76712936  1
  H+  H352  1  0.30425939  0.36628917  0.10977991  1
  H+  H353  1  0.10317772  0.90718602  0.45636098  1
  H+  H354  1  0.28915225  0.64891931  0.82410780  1
  H+  H355  1  0.35999071  0.13394278  0.15505554  1
  H+  H356  1  0.62743359  0.61476861  0.98514635  1
  H+  H357  1  0.55330088  0.14293506  0.38545124  1
  H+  H358  1  0.57146326  0.15815747  0.77360551  1
  H+  H359  1  0.83137330  0.41352733  0.77244507  1
  H+  H360  1  0.08337469  0.66776789  0.43027441  1
  H+  H361  1  0.36164157  0.13152087  -0.00000277  1
  H+  H362  1  0.33141915  0.65678570  0.39016470  1
  H+  H363  1  0.83715740  0.16249694  0.06236919  1
  H+  H364  1  0.60354984  0.18053111  0.09181949  1
  H+  H365  1  0.43826314  0.83470402  0.59944743  1
  H+  H366  1  0.16304036  0.58175855  0.56016487  1
  H+  H367  1  0.17257038  0.57986485  0.92467355  1
  H+  H368  1  0.88700318  0.12160066  0.17621759  1
  H+  H369  1  0.83614090  0.66091723  0.73435164  1
  H+  H370  1  0.82231547  0.91933003  0.06097808  1
  H+  H371  1  0.16678486  0.33130685  0.59379913  1
  H+  H372  1  0.66537208  0.33109408  0.94006923  1
  H+  H373  1  0.82583765  0.15130117  0.42682021  1
  H+  H374  1  0.96701246  0.85808047  0.30511735  1
  H+  H375  1  0.91834827  0.33219128  0.23389678  1
  H+  H376  1  0.09096124  0.41948261  0.76571486  1
  H+  H377  1  0.33677586  0.40141569  0.38864706  1
  H+  H378  1  0.58802474  0.68156094  0.42243874  1
  H+  H379  1  0.58061798  0.92531993  0.07232158  1
  H+  H380  1  0.66957205  0.09013927  0.27036695  1
  H+  H381  1  0.82202393  0.90076353  0.76618224  1
  H+  H382  1  0.13677321  0.02272217  0.51146058  1
  H+  H383  1  0.66742068  0.59115180  0.23471701  1
  O2-  O384  1  0.07597458  0.16352859  0.14505691  1
  O2-  O385  1  0.08071842  0.16194915  0.46939181  1
  O2-  O386  1  0.09263478  0.17539059  0.81214189  1
  O2-  O387  1  0.08375307  0.41553194  0.14531297  1
  O2-  O388  1  0.08760440  0.41693361  0.47497182  1
  O2-  O389  1  0.09031029  0.42319019  0.81094576  1
  O2-  O390  1  0.08641410  0.67790919  0.16096767  1
  O2-  O391  1  0.07893288  0.66802817  0.47669862  1
  O2-  O392  1  0.08625606  0.66634960  0.81101315  1
  O2-  O393  1  0.06614438  0.92315478  0.14139759  1
  O2-  O394  1  0.09149740  0.91146436  0.49901051  1
  O2-  O395  1  0.07931110  0.92791085  0.80028133  1
  O2-  O396  1  0.32624425  0.16092129  0.14039558  1
  O2-  O397  1  0.32456084  0.16424083  0.47912365  1
  O2-  O398  1  0.31517062  0.12283720  0.82441794  1
  O2-  O399  1  0.31475813  0.39326577  0.14970335  1
  O2-  O400  1  0.33817365  0.40246834  0.46675228  1
  O2-  O401  1  0.33334769  0.42128884  0.81587193  1
  O2-  O402  1  0.35850502  0.67794946  0.13785579  1
  O2-  O403  1  0.32057703  0.67136038  0.46561497  1
  O2-  O404  1  0.35169572  0.68337797  0.81421634  1
  O2-  O405  1  0.34536120  0.91101156  0.16188519  1
  O2-  O406  1  0.31966505  0.92138132  0.48729685  1
  O2-  O407  1  0.34008011  0.89803482  0.77927396  1
  O2-  O408  1  0.62779970  0.19365302  0.13576383  1
  O2-  O409  1  0.63604831  0.19038290  0.46872752  1
  O2-  O410  1  0.56775735  0.15603003  0.81849132  1
  O2-  O411  1  0.57774547  0.42431621  0.14745127  1
  O2-  O412  1  0.57891618  0.40715685  0.48620312  1
  O2-  O413  1  0.60613963  0.43059138  0.80711341  1
  O2-  O414  1  0.52547224  0.70565595  0.12683092  1
  O2-  O415  1  0.59369314  0.68690953  0.46749775  1
  O2-  O416  1  0.59471373  0.66323592  0.81392340  1
  O2-  O417  1  0.57733906  0.91554132  0.15673267  1
  O2-  O418  1  0.58451565  0.92909068  0.46935063  1
  O2-  O419  1  0.58636474  0.89465658  0.82785714  1
  O2-  O420  1  0.83598163  0.16752989  0.14734043  1
  O2-  O421  1  0.82429790  0.14279718  0.47320633  1
  O2-  O422  1  0.81471714  0.19758962  0.80701074  1
  O2-  O423  1  0.83302574  0.41741882  0.15987116  1
  O2-  O424  1  0.84268462  0.42003814  0.47756305  1
  O2-  O425  1  0.82809050  0.41315064  0.81760568  1
  O2-  O426  1  0.81171891  0.61431694  0.13945450  1
  O2-  O427  1  0.82864476  0.66183734  0.48042240  1
  O2-  O428  1  0.84022093  0.66169083  0.81112389  1
  O2-  O429  1  0.82438330  0.92514209  0.14418474  1
  O2-  O430  1  0.85599651  0.93119674  0.47177027  1
  O2-  O431  1  0.82900315  0.90509418  0.81105741  1
  O2-  O432  1  0.16295136  0.08187774  0.18284847  1
  O2-  O433  1  0.16230442  0.08525278  0.51977778  1
  O2-  O434  1  0.16229412  0.08566820  0.85681949  1
  O2-  O435  1  0.15578907  0.32945081  0.19021336  1
  O2-  O436  1  0.17182146  0.33042763  0.51405417  1
  O2-  O437  1  0.16906881  0.33746021  0.85759124  1
  O2-  O438  1  0.16546938  0.57831386  0.18978051  1
  O2-  O439  1  0.15964738  0.58057827  0.51458972  1
  O2-  O440  1  0.18134857  0.59084243  0.84603746  1
  O2-  O441  1  0.18801452  0.84049056  0.19960571  1
  O2-  O442  1  0.15731872  0.81924493  0.53778195  1
  O2-  O443  1  0.10413066  0.81368797  0.86698275  1
  O2-  O444  1  0.42140039  0.09230230  0.18193998  1
  O2-  O445  1  0.40602261  0.08036503  0.52255033  1
  O2-  O446  1  0.40291045  0.04797568  0.85778652  1
  O2-  O447  1  0.41054506  0.32364384  0.18920596  1
  O2-  O448  1  0.41390607  0.32748693  0.51959295  1
  O2-  O449  1  0.42718444  0.35198200  0.84843585  1
  O2-  O450  1  0.40576550  0.56973906  0.18400998  1
  O2-  O451  1  0.42218432  0.62673668  0.53147655  1
  O2-  O452  1  0.42796948  0.59241301  0.84082542  1
  O2-  O453  1  0.42280060  0.84028184  0.20579272  1
  O2-  O454  1  0.40997037  0.84385001  0.45117782  1
  O2-  O455  1  0.44307341  0.83177677  0.86933034  1
  O2-  O456  1  0.67058153  0.08061537  0.19113488  1
  O2-  O457  1  0.67783930  0.08199772  0.51855210  1
  O2-  O458  1  0.67133918  0.09093522  0.86101232  1
  O2-  O459  1  0.66281321  0.34439349  0.19731817  1
  O2-  O460  1  0.68152568  0.34272518  0.51704189  1
  O2-  O461  1  0.66415743  0.32422048  0.86077170  1
  O2-  O462  1  0.67080015  0.59832024  0.18967201  1
  O2-  O463  1  0.65992803  0.56238040  0.52767534  1
  O2-  O464  1  0.67634811  0.58229194  0.85221235  1
  O2-  O465  1  0.66724350  0.78964602  0.18260262  1
  O2-  O466  1  0.64485781  0.83273566  0.52962710  1
  O2-  O467  1  0.67013046  0.82067800  0.86476505  1
  O2-  O468  1  0.91499686  0.08955907  0.19396866  1
  O2-  O469  1  0.91843948  0.08013177  0.51257403  1
  O2-  O470  1  0.91981979  0.07070239  0.83883379  1
  O2-  O471  1  0.91739052  0.33311621  0.18863921  1
  O2-  O472  1  0.92125487  0.34309376  0.52453452  1
  O2-  O473  1  0.91926670  0.34315906  0.85370535  1
  O2-  O474  1  0.91665767  0.57952897  0.20458694  1
  O2-  O475  1  0.91642565  0.58318676  0.51967864  1
  O2-  O476  1  0.92337529  0.57904286  0.85320536  1
  O2-  O477  1  0.91536191  0.85085357  0.17217975  1
  O2-  O478  1  0.91215318  0.82873913  0.52162539  1
  O2-  O479  1  0.92009823  0.82961730  0.84027205  1
  O2-  O480  1  0.16386402  0.08054866  0.30692137  1
  O2-  O481  1  0.16682358  0.08627087  0.64425756  1
  O2-  O482  1  0.16465881  0.08085337  0.97980796  1
  O2-  O483  1  0.15638105  0.32550292  0.31765427  1
  O2-  O484  1  0.16358392  0.33250255  0.63897441  1
  O2-  O485  1  0.17552644  0.33357722  0.97941842  1
  O2-  O486  1  0.16710123  0.57834318  0.31232157  1
  O2-  O487  1  0.16573681  0.57959960  0.63773808  1
  O2-  O488  1  0.17177118  0.58065371  0.97006528  1
  O2-  O489  1  0.17167175  0.82054332  0.32398370  1
  O2-  O490  1  0.15508047  0.83463611  0.66425815  1
  O2-  O491  1  0.17095535  0.83833235  0.98597165  1
  O2-  O492  1  0.42378442  0.08296793  0.30242474  1
  O2-  O493  1  0.40536893  0.09151965  0.64660973  1
  O2-  O494  1  0.41155326  0.07820175  0.97874581  1
  O2-  O495  1  0.42874690  0.29770233  0.30830446  1
  O2-  O496  1  0.39478979  0.31981828  0.64311718  1
  O2-  O497  1  0.42242077  0.32892909  0.97324987  1
  O2-  O498  1  0.41790724  0.57630577  0.30444987  1
  O2-  O499  1  0.42106226  0.55937362  0.64866371  1
  O2-  O500  1  0.42318751  0.59312352  0.95847288  1
  O2-  O501  1  0.43448230  0.83157091  0.32749152  1
  O2-  O502  1  0.40536449  0.80794213  0.72570520  1
  O2-  O503  1  0.42374719  0.83046293  0.98246634  1
  O2-  O504  1  0.66972784  0.09174952  0.31572605  1
  O2-  O505  1  0.65634348  0.07404280  0.64852334  1
  O2-  O506  1  0.66365954  0.08965169  0.98711502  1
  O2-  O507  1  0.66193561  0.32694100  0.32005859  1
  O2-  O508  1  0.69984471  0.30172939  0.62943041  1
  O2-  O509  1  0.66262073  0.33063507  0.98539182  1
  O2-  O510  1  0.65853618  0.57943807  0.31412151  1
  O2-  O511  1  0.66380776  0.58143054  0.65220393  1
  O2-  O512  1  0.63915055  0.57278332  0.96601537  1
  O2-  O513  1  0.67545658  0.83566152  0.30252625  1
  O2-  O514  1  0.65200022  0.82669335  0.64669036  1
  O2-  O515  1  0.65810028  0.76800551  0.99221843  1
  O2-  O516  1  0.92392302  0.09816077  0.31230731  1
  O2-  O517  1  0.91134575  0.07739329  0.68769277  1
  O2-  O518  1  0.91038462  0.07629651  0.96564510  1
  O2-  O519  1  0.91706445  0.32829396  0.31556339  1
  O2-  O520  1  0.92148141  0.33170167  0.65018204  1
  O2-  O521  1  0.92369181  0.31256473  0.97577809  1
  O2-  O522  1  0.90142996  0.57684419  0.33487281  1
  O2-  O523  1  0.91870221  0.58097801  0.64486108  1
  O2-  O524  1  0.92091676  0.58435390  0.97916860  1
  O2-  O525  1  0.90466865  0.82787119  0.29541971  1
  O2-  O526  1  0.90658955  0.82422232  0.64407707  1
  O2-  O527  1  0.96614815  0.81004835  0.94763861  1
  O2-  O528  1  0.08323581  0.16705792  0.01644673  1
  O2-  O529  1  0.07230786  0.17135404  0.35302154  1
  O2-  O530  1  0.08709071  0.17282192  0.68485579  1
  O2-  O531  1  0.09247617  0.41847691  0.01786259  1
  O2-  O532  1  0.08653722  0.41549196  0.35310631  1
  O2-  O533  1  0.08839953  0.41859367  0.68659867  1
  O2-  O534  1  0.09255036  0.67431807  0.00508862  1
  O2-  O535  1  0.09708680  0.66427329  0.35811206  1
  O2-  O536  1  0.08547746  0.66214140  0.68370677  1
  O2-  O537  1  0.09277086  0.92106893  0.02749995  1
  O2-  O538  1  0.07402457  0.91107549  0.33113399  1
  O2-  O539  1  0.07581507  0.92478079  0.67853433  1
  O2-  O540  1  0.33280539  0.16452887  0.01370760  1
  O2-  O541  1  0.30063877  0.18890770  0.36569393  1
  O2-  O542  1  0.32339985  0.16525228  0.68118599  1
  O2-  O543  1  0.34075526  0.41925570  0.00559874  1
  O2-  O544  1  0.32926493  0.40143556  0.34347648  1
  O2-  O545  1  0.31747226  0.40567652  0.69132072  1
  O2-  O546  1  0.33113128  0.65967627  0.01148724  1
  O2-  O547  1  0.33602576  0.65908680  0.34479212  1
  O2-  O548  1  0.33876655  0.66857771  0.64529946  1
  O2-  O549  1  0.34169063  0.90645978  0.01046903  1
  O2-  O550  1  0.32212415  0.92711335  0.37134571  1
  O2-  O551  1  0.31346221  0.92880983  0.66134587  1
  O2-  O552  1  0.57989160  0.16677702  0.02373615  1
  O2-  O553  1  0.57644570  0.16057169  0.34452108  1
  O2-  O554  1  0.57152580  0.15559518  0.68999601  1
  O2-  O555  1  0.58096067  0.41664262  0.02194117  1
  O2-  O556  1  0.58430610  0.41925656  0.36178198  1
  O2-  O557  1  0.52209693  0.44636488  0.69874519  1
  O2-  O558  1  0.54042960  0.66463347  0.07393505  1
  O2-  O559  1  0.58301879  0.67116201  0.34487462  1
  O2-  O560  1  0.59004036  0.67270824  0.69212817  1
  O2-  O561  1  0.58522867  0.93049519  0.02776714  1
  O2-  O562  1  0.60294776  0.92371695  0.34831663  1
  O2-  O563  1  0.57709415  0.90712165  0.70370233  1
  O2-  O564  1  0.83228781  0.15797832  0.01764151  1
  O2-  O565  1  0.83024135  0.16521434  0.35646232  1
  O2-  O566  1  0.82846167  0.16282719  0.68183666  1
  O2-  O567  1  0.82925616  0.43155677  0.03093813  1
  O2-  O568  1  0.83073541  0.40889326  0.35621270  1
  O2-  O569  1  0.84370294  0.41944469  0.69213670  1
  O2-  O570  1  0.85357150  0.68138179  0.01429076  1
  O2-  O571  1  0.82247769  0.67086820  0.35528836  1
  O2-  O572  1  0.83216385  0.65854958  0.68867713  1
  O2-  O573  1  0.81624525  0.90599171  0.01722733  1
  O2-  O574  1  0.83771860  0.92002587  0.34620018  1
  O2-  O575  1  0.81635938  0.89889561  0.68347478  1
