# generated using pymatgen
data_H2O
_symmetry_space_group_name_H-M   'P 1'
_cell_length_a   17.98779875
_cell_length_b   17.98834090
_cell_length_c   22.00074333
_cell_angle_alpha   89.97586090
_cell_angle_beta   89.97335906
_cell_angle_gamma   120.04052835
_symmetry_Int_Tables_number   1
_chemical_formula_structural   H2O
_chemical_formula_sum   'H384 O192'
_cell_volume   6162.53555567
_cell_formula_units_Z   192
loop_
 _symmetry_equiv_pos_site_id
 _symmetry_equiv_pos_as_xyz
  1  'x, y, z'
loop_
 _atom_type_symbol
 _atom_type_oxidation_number
  H+  1.0
  O2-  -2.0
loop_
 _atom_site_type_symbol
 _atom_site_label
 _atom_site_symmetry_multiplicity
 _atom_site_fract_x
 _atom_site_fract_y
 _atom_site_fract_z
 _atom_site_occupancy
  H+  H0  1  0.81169186  0.94519594  0.67553811  1
  H+  H1  1  0.63552731  0.28141137  0.82520909  1
  H+  H2  1  0.14409105  0.28658192  0.97806144  1
  H+  H3  1  0.61508191  0.23650877  0.20364674  1
  H+  H4  1  0.36885875  0.63417821  0.50109905  1
  H+  H5  1  0.46908202  0.51733546  0.21942382  1
  H+  H6  1  0.58615444  0.16624533  0.25587925  1
  H+  H7  1  0.40309302  0.52621574  0.66291460  1
  H+  H8  1  0.67587929  0.82359582  0.90167584  1
  H+  H9  1  0.77854817  0.38487087  0.81793011  1
  H+  H10  1  0.89132373  0.12193588  0.18494409  1
  H+  H11  1  0.73911559  0.09099695  0.87310826  1
  H+  H12  1  0.63532972  0.27689242  0.99423070  1
  H+  H13  1  0.89470330  0.12041737  0.00660944  1
  H+  H14  1  0.11281829  0.62046232  0.49190353  1
  H+  H15  1  0.53267695  0.12707614  0.47445022  1
  H+  H16  1  0.88670104  0.91537943  0.17223847  1
  H+  H17  1  0.43246398  0.08629063  0.55983474  1
  H+  H18  1  0.66058364  0.62336999  0.16585319  1
  H+  H19  1  0.51358354  0.16348227  0.79896707  1
  H+  H20  1  0.52802722  0.14518756  0.04528247  1
  H+  H21  1  0.62351418  0.88473838  0.49044890  1
  H+  H22  1  0.31208061  0.61388933  0.23283805  1
  H+  H23  1  0.16756780  0.66214035  0.68362541  1
  H+  H24  1  0.22679031  0.62819077  0.14442084  1
  H+  H25  1  0.73083734  0.85618675  0.50529838  1
  H+  H26  1  0.14333486  0.11934452  0.50881404  1
  H+  H27  1  0.30210967  0.89366519  0.51332252  1
  H+  H28  1  0.76521204  0.61693817  0.49798515  1
  H+  H29  1  0.07314403  0.86868275  0.33943994  1
  H+  H30  1  0.16390833  0.78705392  0.66529036  1
  H+  H31  1  0.73499641  0.62721147  0.63798590  1
  H+  H32  1  0.92825190  0.35139804  0.23614685  1
  H+  H33  1  0.64232222  0.36550303  0.17315032  1
  H+  H34  1  -0.08773878  0.01873722  0.33686883  1
  H+  H35  1  0.62339713  0.89065084  -0.01003573  1
  H+  H36  1  0.54109492  0.63932394  0.67474422  1
  H+  H37  1  0.51122975  0.38035136  0.00747821  1
  H+  H38  1  0.87990603  0.84821177  0.83078839  1
  H+  H39  1  0.73344029  0.38931435  0.33203838  1
  H+  H40  1  0.65438769  0.97871522  0.81728276  1
  H+  H41  1  0.85749900  -0.03597149  0.49657166  1
  H+  H42  1  0.85922766  0.22645514  0.83921848  1
  H+  H43  1  0.37711501  0.36510936  1.00155776  1
  H+  H44  1  0.85912233  0.37173025  0.66391399  1
  H+  H45  1  1.04414184  0.62787503  0.61833751  1
  H+  H46  1  0.49287945  0.86083079  0.50385495  1
  H+  H47  1  0.14003315  0.53215024  0.98613848  1
  H+  H48  1  0.17342925  0.85889415  0.19545122  1
  H+  H49  1  0.80347432  0.64987135  0.15486642  1
  H+  H50  1  0.12261322  0.77789669  0.32974957  1
  H+  H51  1  0.12663305  1.02434687  0.83458326  1
  H+  H52  1  0.22686360  0.67214754  0.36646408  1
  H+  H53  1  0.88970202  0.89040656  0.34276428  1
  H+  H54  1  0.04858635  0.67160106  0.61784809  1
  H+  H55  1  0.09257727  0.79312995  0.26343887  1
  H+  H56  1  0.15508793  0.03177778  0.66170781  1
  H+  H57  1  0.28986357  0.30766853  0.12323994  1
  H+  H58  1  0.37367933  0.48162275  0.35389550  1
  H+  H59  1  0.51889513  0.63017835  0.82996712  1
  H+  H60  1  0.35963068  0.63420493  0.00831612  1
  H+  H61  1  0.48056091  0.60960834  0.50805811  1
  H+  H62  1  0.84916085  0.35849548  0.15429842  1
  H+  H63  1  0.89252255  0.99825231  0.01284531  1
  H+  H64  1  0.62021678  0.21594171  0.46539854  1
  H+  H65  1  0.78595399  0.14295409  0.67958497  1
  H+  H66  1  0.12439608  0.64957082  0.00118478  1
  H+  H67  1  0.73177813  0.85690981  0.00292199  1
  H+  H68  1  0.07386926  0.91048856  0.40348910  1
  H+  H69  1  0.01235610  0.87582829  -0.00585271  1
  H+  H70  1  0.64154021  0.10777739  0.49815319  1
  H+  H71  1  0.37174410  0.72518438  0.49985813  1
  H+  H72  1  0.60734973  0.63445527  1.01072653  1
  H+  H73  1  0.19336854  0.46365639  0.30889920  1
  H+  H74  1  0.78505347  0.15233300  0.17285968  1
  H+  H75  1  0.50813059  0.60754988  0.18752482  1
  H+  H76  1  0.40628196  0.86552346  0.50433654  1
  H+  H77  1  0.13107394  0.01913770  0.99224962  1
  H+  H78  1  0.05772280  0.81445813  0.15923628  1
  H+  H79  1  0.97433039  0.12040454  0.85492173  1
  H+  H80  1  0.27972446  0.40640839  0.34828178  1
  H+  H81  1  0.92330028  0.33835922  0.93587094  1
  H+  H82  1  0.35453178  0.86504822  0.01921223  1
  H+  H83  1  0.46609707  0.87670011  0.80474374  1
  H+  H84  1  0.13118925  0.53603288  0.21648865  1
  H+  H85  1  0.62299486  -0.02549702  0.49323252  1
  H+  H86  1  0.60595157  0.46265629  0.49805648  1
  H+  H87  1  0.38770051  0.61485094  0.33775762  1
  H+  H88  1  1.03138593  0.16221053  0.16384126  1
  H+  H89  1  0.37205620  0.85491030  0.17946336  1
  H+  H90  1  0.64079336  0.76975410  1.00232348  1
  H+  H91  1  0.96373054  0.35914855  0.33448947  1
  H+  H92  1  0.61475945  0.72174568  0.50234915  1
  H+  H93  1  0.27799594  0.31485280  0.15459644  1
  H+  H94  1  0.88440718  0.85675881  0.98143844  1
  H+  H95  1  0.33951561  0.16225431  0.40775250  1
  H+  H96  1  0.32402574  0.72722787  0.15260433  1
  H+  H97  1  0.31675146  0.41228887  0.62760793  1
  H+  H98  1  0.88017675  0.50089764  0.34360371  1
  H+  H99  1  0.38959420  1.02252745  0.03494900  1
  H+  H100  1  -0.00228374  0.61327479  0.17938971  1
  H+  H101  1  0.75464517  0.61945716  0.82353308  1
  H+  H102  1  0.63444684  0.12199643  0.81029759  1
  H+  H103  1  0.10836681  0.38323191  0.67102925  1
  H+  H104  1  0.22169276  0.35607499  0.51431197  1
  H+  H105  1  0.61737151  0.22163658  0.65649088  1
  H+  H106  1  0.26988042  0.44524823  0.15005922  1
  H+  H107  1  0.88213317  0.51837724  0.78131328  1
  H+  H108  1  -0.01638428  0.66278976  0.31840876  1
  H+  H109  1  0.11356033  0.73157364  0.17128210  1
  H+  H110  1  0.36535211  0.72675454  0.34866102  1
  H+  H111  1  0.27871169  0.13148485  0.34866292  1
  H+  H112  1  0.39955756  0.61365443  0.66108821  1
  H+  H113  1  0.63855692  0.76048571  0.84402892  1
  H+  H114  1  0.36276272  0.47282907  0.50309219  1
  H+  H115  1  0.65160045  0.37188081  0.84196518  1
  H+  H116  1  0.48216666  0.86489687  0.98504223  1
  H+  H117  1  0.33855123  0.66794237  0.40925988  1
  H+  H118  1  0.38522673  0.84965385  0.65271899  1
  H+  H119  1  0.86299881  0.64326294  0.34666053  1
  H+  H120  1  0.64573391  0.86458551  0.17899947  1
  H+  H121  1  0.19899955  0.33339187  0.66558172  1
  H+  H122  1  0.58112063  0.19343185  0.74479875  1
  H+  H123  1  0.86479930  0.47490778  0.01690179  1
  H+  H124  1  0.63506169  0.52686810  0.34563526  1
  H+  H125  1  0.71609092  0.34172353  0.65010655  1
  H+  H126  1  0.77090517  0.63611329  0.35494789  1
  H+  H127  1  0.38583881  0.35693363  0.51058396  1
  H+  H128  1  0.61977922  0.95766109  -0.05333864  1
  H+  H129  1  0.61752672  0.08012468  0.79383621  1
  H+  H130  1  0.36797856  0.35887339  0.84195657  1
  H+  H131  1  0.28741544  0.13410635  0.66789422  1
  H+  H132  1  0.39537066  0.77268029  0.99812892  1
  H+  H133  1  0.35089885  0.12319029  0.17096879  1
  H+  H134  1  0.78883697  0.15403861  0.02747866  1
  H+  H135  1  0.89561517  0.83128068  0.26543084  1
  H+  H136  1  0.12466951  0.77409291  0.82882340  1
  H+  H137  1  0.88098786  0.75857114  0.83100599  1
  H+  H138  1  0.38210344  0.98486419  0.49673582  1
  H+  H139  1  0.37226184  0.27285553  0.00500232  1
  H+  H140  1  0.63817487  0.11423935  0.19221193  1
  H+  H141  1  0.14000638  0.03009393  0.51347265  1
  H+  H142  1  0.14233156  0.58004047  0.31615690  1
  H+  H143  1  0.62889780  0.52196522  -0.00038175  1
  H+  H144  1  0.14274369  0.01950982  0.33940345  1
  H+  H145  1  0.66057371  0.03348217  0.65448309  1
  H+  H146  1  0.38572338  0.53042492  0.99216089  1
  H+  H147  1  0.51250253  0.88644335  0.34371297  1
  H+  H148  1  0.89002278  1.03248521  0.17872357  1
  H+  H149  1  0.08122697  0.41703985  0.76272229  1
  H+  H150  1  0.93011907  0.59750654  0.26665903  1
  H+  H151  1  0.72054902  0.61017023  0.00025324  1
  H+  H152  1  0.10378088  0.70342277  0.48432605  1
  H+  H153  1  0.12191125  0.14875578  -0.01975001  1
  H+  H154  1  0.89197447  0.93045492  0.67031710  1
  H+  H155  1  0.14165508  0.37504681  -0.01099437  1
  H+  H156  1  0.36760658  0.22292366  0.49878720  1
  H+  H157  1  0.77555211  0.13367344  0.49338765  1
  H+  H158  1  0.84604755  0.69832064  0.56846174  1
  H+  H159  1  0.42423033  0.07845990  0.87266059  1
  H+  H160  1  0.27518278  0.40041479  0.00127275  1
  H+  H161  1  0.91059419  0.07048524  0.27484295  1
  H+  H162  1  0.21589870  0.86298379  0.82133017  1
  H+  H163  1  0.27163878  0.63729440  -0.00285339  1
  H+  H164  1  0.35645403  0.64133894  0.22031394  1
  H+  H165  1  0.45267787  0.83985696  0.17201364  1
  H+  H166  1  0.11240649  0.38883010  0.82275120  1
  H+  H167  1  0.41941617  0.32525450  0.60165506  1
  H+  H168  1  0.52854264  0.64661843  0.35323332  1
  H+  H169  1  0.44053443  1.07953614  0.92341241  1
  H+  H170  1  0.90968009  0.29026486  0.17968399  1
  H+  H171  1  0.83294617  0.66088287  0.06368730  1
  H+  H172  1  0.89009687  0.36580500  0.83689510  1
  H+  H173  1  0.87260540  0.60222329  0.77887557  1
  H+  H174  1  0.88990452  0.27220176  0.66680898  1
  H+  H175  1  0.66581521  0.83391548  0.27698343  1
  H+  H176  1  0.65255434  0.89250356  0.81272682  1
  H+  H177  1  -0.01649294  0.95338183  0.36226243  1
  H+  H178  1  0.90425466  0.57784727  0.67837939  1
  H+  H179  1  0.90700974  0.60603021  0.17128442  1
  H+  H180  1  0.22154176  0.10658818  -0.00228413  1
  H+  H181  1  0.85935147  0.87678735  0.49477796  1
  H+  H182  1  0.18592201  0.06764077  0.17865655  1
  H+  H183  1  0.13161937  0.27646184  0.83797335  1
  H+  H184  1  0.37563074  0.85464817  0.33151946  1
  H+  H185  1  0.59045230  0.13496831  0.38239729  1
  H+  H186  1  1.03545973  0.15258754  0.98606918  1
  H+  H187  1  0.14250675  0.10770237  0.32878948  1
  H+  H188  1  0.73620581  0.86725052  0.18030485  1
  H+  H189  1  0.38231063  0.26666937  0.33856815  1
  H+  H190  1  0.97828164  0.36295985  0.66083994  1
  H+  H191  1  0.63143294  0.60249372  0.50675348  1
  H+  H192  1  0.11873867  0.73544343  -0.00162628  1
  H+  H193  1  0.14407329  0.39848906  0.17679911  1
  H+  H194  1  0.42214770  0.82265836  0.59651932  1
  H+  H195  1  0.77690548  0.87050974  0.82333940  1
  H+  H196  1  0.10051888  0.67939362  0.10893811  1
  H+  H197  1  0.27870410  0.13372932  0.49855092  1
  H+  H198  1  0.03728243  0.64706190  0.86789242  1
  H+  H199  1  0.53082172  0.38563352  0.16577198  1
  H+  H200  1  0.86446629  0.46958885  0.49795592  1
  H+  H201  1  0.64634668  0.04077552  1.01952920  1
  H+  H202  1  0.37169989  0.72210477  0.66391844  1
  H+  H203  1  0.89128009  0.14597071  0.34918218  1
  H+  H204  1  0.10461429  0.88988604  0.82070144  1
  H+  H205  1  0.12606428  0.60640949  0.83144216  1
  H+  H206  1  0.10543730  0.14102221  0.82588059  1
  H+  H207  1  0.90589835  0.81799965  0.92192731  1
  H+  H208  1  0.51973083  0.38360188  0.34630611  1
  H+  H209  1  0.13506517  0.37426285  0.33668687  1
  H+  H210  1  0.60783588  0.97442936  0.17088504  1
  H+  H211  1  0.07446219  0.48180661  0.30489999  1
  H+  H212  1  0.83752695  0.44939901  0.66191819  1
  H+  H213  1  0.14161670  0.51807119  0.50974521  1
  H+  H214  1  0.37878413  0.52381686  0.83785682  1
  H+  H215  1  0.88827156  0.35939307  0.50755113  1
  H+  H216  1  0.37666254  0.10901514  0.82194322  1
  H+  H217  1  0.61367628  0.39145498  0.34431896  1
  H+  H218  1  0.35100768  0.22225173  0.82475349  1
  H+  H219  1  0.51053161  0.89103183  0.79236949  1
  H+  H220  1  0.66328242  0.32615688  0.92925991  1
  H+  H221  1  0.26208573  0.38661503  0.82184407  1
  H+  H222  1  0.33800755  0.87919269  0.82232505  1
  H+  H223  1  0.02187530  0.38290575  0.50435052  1
  H+  H224  1  0.62932814  0.86590298  0.33036002  1
  H+  H225  1  0.36411877  0.97552716  0.17816664  1
  H+  H226  1  0.09860214  0.25570884  0.66633579  1
  H+  H227  1  0.07696173  0.80910050  0.52394699  1
  H+  H228  1  0.89010920  0.36701535  -0.00621120  1
  H+  H229  1  0.86527027  0.22252573  0.49941259  1
  H+  H230  1  0.11011803  0.37980184  0.50358211  1
  H+  H231  1  0.98078835  0.61576059  1.01900387  1
  H+  H232  1  0.86834206  0.40643920  0.33927667  1
  H+  H233  1  0.38210319  0.61394004  0.83565426  1
  H+  H234  1  0.11779004  0.47774469  0.67097669  1
  H+  H235  1  0.97953978  0.86853532  0.17025280  1
  H+  H236  1  0.60197723  0.38109632  0.00351000  1
  H+  H237  1  0.02753983  0.40061933  0.00571315  1
  H+  H238  1  0.43169695  0.08097939  0.97383075  1
  H+  H239  1  0.88847375  0.60955470  1.01177506  1
  H+  H240  1  0.35175256  0.97355898  0.80897075  1
  H+  H241  1  0.27958095  0.76327341  0.88740398  1
  H+  H242  1  0.85352416  0.76100462  0.31872999  1
  H+  H243  1  0.56775114  0.38697558  0.89989367  1
  H+  H244  1  0.28061630  0.89114556  0.65869684  1
  H+  H245  1  0.60313712  0.20402143  0.09131428  1
  H+  H246  1  0.35183598  0.21053252  0.17552811  1
  H+  H247  1  0.39678379  0.11287556  0.50230980  1
  H+  H248  1  0.38418431  0.10310398  0.33858065  1
  H+  H249  1  0.63313277  0.34460636  0.48766609  1
  H+  H250  1  0.26374443  0.13294440  0.81999125  1
  H+  H251  1  0.66129011  0.53604869  0.16624189  1
  H+  H252  1  -0.00897150  0.89875499  0.65136501  1
  H+  H253  1  0.11708452  0.89126172  0.67082351  1
  H+  H254  1  0.01299654  0.88291693  0.82064262  1
  H+  H255  1  0.10363441  0.88272042  0.99591858  1
  H+  H256  1  0.64492891  0.61388427  0.66209990  1
  H+  H257  1  0.24133321  0.60807981  0.65780448  1
  H+  H258  1  0.36820859  0.51590796  0.15272822  1
  H+  H259  1  0.47370561  0.11409914  0.19635022  1
  H+  H260  1  0.16496629  0.84892818  0.49316132  1
  H+  H261  1  0.62547875  0.51360679  0.85631900  1
  H+  H262  1  -0.03343485  0.09562494  0.50916617  1
  H+  H263  1  0.90120519  0.82158169  0.63099206  1
  H+  H264  1  0.84494532  0.91888020  0.76875022  1
  H+  H265  1  0.50230382  0.37648575  0.85031935  1
  H+  H266  1  0.64073912  0.61845552  0.34596351  1
  H+  H267  1  0.87797432  0.27911627  0.32575360  1
  H+  H268  1  0.66560028  0.07684475  0.24394801  1
  H+  H269  1  1.02141080  0.95693874  0.20338214  1
  H+  H270  1  0.65017817  0.11731030  0.65614177  1
  H+  H271  1  0.38955363  0.34659683  0.18603195  1
  H+  H272  1  0.26589200  0.63056360  0.81516584  1
  H+  H273  1  0.82780411  0.39678425  0.75459014  1
  H+  H274  1  0.10982463  0.22268288  0.49566685  1
  H+  H275  1  0.97822750  0.36494962  0.83848215  1
  H+  H276  1  0.11298931  0.25366210  0.16083673  1
  H+  H277  1  0.35884637  0.13889917  1.02775436  1
  H+  H278  1  0.61655337  0.73766999  0.35034153  1
  H+  H279  1  0.01738286  0.12644089  0.32662428  1
  H+  H280  1  0.77479826  0.38929194  1.00029053  1
  H+  H281  1  0.60569992  0.62514780  0.83448938  1
  H+  H282  1  0.85299790  0.71649084  0.00146111  1
  H+  H283  1  -0.00749559  0.28432497  0.37586234  1
  H+  H284  1  0.62387363  0.73180355  0.16456813  1
  H+  H285  1  0.88495245  0.11838646  0.85435024  1
  H+  H286  1  0.22341636  0.86906545  0.97908382  1
  H+  H287  1  0.88568560  0.60282991  0.50827100  1
  H+  H288  1  0.37497464  0.15896159  0.92290704  1
  H+  H289  1  0.32457135  0.41467037  0.76415856  1
  H+  H290  1  0.83477812  0.66442456  0.44569379  1
  H+  H291  1  0.03436105  0.42143863  0.16536368  1
  H+  H292  1  0.42843562  0.58445266  0.28365782  1
  H+  H293  1  0.65798837  0.57076907  0.56640160  1
  H+  H294  1  0.52097179  0.64057818  0.00825471  1
  H+  H295  1  0.84377978  0.42221218  0.43429905  1
  H+  H296  1  0.16025441  0.82537106  0.59996315  1
  H+  H297  1  0.08361018  0.92160152  0.72852010  1
  H+  H298  1  0.87906240  0.23965835  0.01741740  1
  H+  H299  1  0.16821144  0.58635065  0.92368351  1
  H+  H300  1  0.90094164  0.56725232  0.60392552  1
  H+  H301  1  0.39230494  0.26613669  0.66140687  1
  H+  H302  1  0.34821463  0.71969807  0.82343465  1
  H+  H303  1  0.37402064  0.81677878  0.91166744  1
  H+  H304  1  0.05964679  0.16798540  0.77328738  1
  H+  H305  1  0.59367711  0.66208604  0.73589586  1
  H+  H306  1  0.33497819  0.91245783  0.71885975  1
  H+  H307  1  0.00061248  0.62844003  0.80139724  1
  H+  H308  1  0.13099530  0.51968150  0.83001142  1
  H+  H309  1  0.16758186  0.34411921  0.89392134  1
  H+  H310  1  0.37924971  0.35565209  0.33747987  1
  H+  H311  1  0.32923253  0.44664775  0.06142235  1
  H+  H312  1  0.58593397  0.67093349  0.10521635  1
  H+  H313  1  0.72246981  0.34623659  0.16962669  1
  H+  H314  1  0.67425047  0.08671845  0.56156613  1
  H+  H315  1  0.39445017  1.01988793  0.65072067  1
  H+  H316  1  0.33428926  0.11631189  0.92141469  1
  H+  H317  1  0.30099431  0.66770129  0.08400980  1
  H+  H318  1  0.18324159  0.37961593  0.23535185  1
  H+  H319  1  0.68758365  0.08745666  0.93160643  1
  H+  H320  1  0.63151252  0.34801043  0.65384949  1
  H+  H321  1  0.91575819  0.08987027  0.94170609  1
  H+  H322  1  0.41417192  0.59150941  0.93370319  1
  H+  H323  1  0.93396194  0.07030056  0.68254575  1
  H+  H324  1  0.88053942  0.09847814  0.50604623  1
  H+  H325  1  0.13748171  0.65314369  0.39521473  1
  H+  H326  1  0.03407589  0.84438128  0.09280749  1
  H+  H327  1  0.34400398  0.16417016  0.72801718  1
  H+  H328  1  0.57464986  0.40657061  0.43744713  1
  H+  H329  1  0.67094099  0.83915468  0.56311773  1
  H+  H330  1  0.34616278  0.95576669  0.34475264  1
  H+  H331  1  0.40068947  0.07167583  0.24460463  1
  H+  H332  1  0.91477676  0.54201066  0.90035554  1
  H+  H333  1  0.53302676  0.38557242  0.67161603  1
  H+  H334  1  0.34190474  0.66424174  0.72484370  1
  H+  H335  1  0.05415958  0.36931437  0.41601544  1
  H+  H336  1  0.88889906  0.56336863  0.89386088  1
  H+  H337  1  0.31887954  0.16346359  0.08173373  1
  H+  H338  1  0.86226925  0.17879461  0.40776524  1
  H+  H339  1  0.46320418  0.08431663  0.33102322  1
  H+  H340  1  0.93684413  0.95202236  0.04457615  1
  H+  H341  1  0.84462169  0.92657449  0.11117246  1
  H+  H342  1  0.60496774  0.02039660  0.34014370  1
  H+  H343  1  0.42510277  0.58207455  0.56909379  1
  H+  H344  1  0.08165696  0.16295225  0.43686873  1
  H+  H345  1  0.81251484  0.37352834  0.09213737  1
  H+  H346  1  0.67731861  0.35638642  0.27213062  1
  H+  H347  1  0.17438780  0.58292104  0.60274087  1
  H+  H348  1  0.72485837  0.34946015  0.48524701  1
  H+  H349  1  0.82606769  0.16426130  0.78236185  1
  H+  H350  1  0.53302863  0.12749082  0.66038258  1
  H+  H351  1  0.39869931  0.11145383  0.65464391  1
  H+  H352  1  0.84698617  0.18255785  0.11459288  1
  H+  H353  1  0.09100351  0.44073198  0.06262336  1
  H+  H354  1  0.97416353  0.60018243  0.50340942  1
  H+  H355  1  0.78842139  0.66117468  0.75928935  1
  H+  H356  1  0.12090965  0.68404119  0.73539415  1
  H+  H357  1  0.47613008  0.35680231  0.50770659  1
  H+  H358  1  0.23120123  0.60880136  0.50965152  1
  H+  H359  1  0.16586591  0.84017658  0.91794200  1
  H+  H360  1  0.32462665  0.91313017  0.12153593  1
  H+  H361  1  0.58684380  0.66863465  0.44071143  1
  H+  H362  1  0.18406009  0.09321589  0.60434326  1
  H+  H363  1  0.88138099  0.15723011  0.69266867  1
  H+  H364  1  0.90548046  0.72180793  0.13913238  1
  H+  H365  1  0.36426427  0.37136063  0.66260709  1
  H+  H366  1  0.57980613  0.41220142  0.10187572  1
  H+  H367  1  0.15457855  0.31887343  0.57071164  1
  H+  H368  1  0.64524485  0.12900613  1.03024918  1
  H+  H369  1  0.86374546  0.66145954  0.62709183  1
  H+  H370  1  0.32941645  0.90155136  0.40439880  1
  H+  H371  1  0.40473848  0.82201381  0.27228010  1
  H+  H372  1  0.66553718  0.58361735  0.90809653  1
  H+  H373  1  0.15872987  0.04986471  0.24681799  1
  H+  H374  1  0.16260582  0.08226036  0.89425553  1
  H+  H375  1  0.62355810  0.47023927  0.66915103  1
  H+  H376  1  0.26531447  0.82322914  0.05269955  1
  H+  H377  1  0.91525702  0.32809759  0.56866153  1
  H+  H378  1  0.42043551  0.32557162  0.24767249  1
  H+  H379  1  0.10197060  0.19747197  0.29505236  1
  H+  H380  1  0.33001104  0.41280701  0.44465073  1
  H+  H381  1  0.58314611  0.91869040  0.11113643  1
  H+  H382  1  0.38928505  0.32525128  0.90415116  1
  H+  H383  1  0.57767905  0.91729053  0.40156915  1
  O2-  O384  1  0.08557333  0.19688341  0.14152355  1
  O2-  O385  1  0.08334027  0.16168311  0.48128543  1
  O2-  O386  1  0.07514953  0.17351639  0.81776969  1
  O2-  O387  1  0.09531294  0.45294051  0.14753794  1
  O2-  O388  1  0.08195159  0.41156740  0.48703770  1
  O2-  O389  1  0.08183200  0.41968297  0.80847224  1
  O2-  O390  1  0.10436390  0.67450007  0.15309967  1
  O2-  O391  1  0.08177674  0.64448594  0.46846223  1
  O2-  O392  1  0.05692484  0.65696939  0.82574939  1
  O2-  O393  1  0.00846493  0.81447931  0.13124811  1
  O2-  O394  1  0.07193274  0.91921439  0.48670049  1
  O2-  O395  1  0.07405152  0.92008909  0.80681343  1
  O2-  O396  1  0.31942932  0.15278083  0.15717437  1
  O2-  O397  1  0.33943852  0.16216065  0.48341640  1
  O2-  O398  1  0.32546541  0.16373916  0.80680270  1
  O2-  O399  1  0.31853170  0.48857860  0.12493283  1
  O2-  O400  1  0.32921972  0.41095472  0.49013037  1
  O2-  O401  1  0.32475381  0.41717492  0.80868466  1
  O2-  O402  1  0.27912957  0.67836158  0.12531497  1
  O2-  O403  1  0.33722144  0.66354228  0.48667782  1
  O2-  O404  1  0.32832464  0.66306394  0.80443836  1
  O2-  O405  1  0.33128212  0.91345506  0.16580133  1
  O2-  O406  1  0.35164295  0.92075522  0.48644013  1
  O2-  O407  1  0.31707624  0.91085567  0.79741962  1
  O2-  O408  1  0.58334154  0.17153356  0.21144085  1
  O2-  O409  1  0.59041282  0.15122828  0.45562110  1
  O2-  O410  1  0.56677473  0.21315575  0.78338175  1
  O2-  O411  1  0.58849544  0.41588410  0.14663308  1
  O2-  O412  1  0.57364008  0.40189618  0.48327713  1
  O2-  O413  1  0.56588394  0.40429602  0.85815900  1
  O2-  O414  1  0.59276634  0.67061853  0.15015885  1
  O2-  O415  1  0.58327375  0.66139203  0.48654103  1
  O2-  O416  1  0.58018844  0.65856902  0.81708488  1
  O2-  O417  1  0.57696509  0.91380656  0.15519989  1
  O2-  O418  1  0.59172189  0.91454307  0.47668120  1
  O2-  O419  1  0.64265642  0.93293836  0.78846125  1
  O2-  O420  1  0.84608077  0.18281306  0.16028005  1
  O2-  O421  1  0.83765140  0.16370476  0.48147757  1
  O2-  O422  1  0.82764766  0.16459756  0.82766630  1
  O2-  O423  1  0.79568443  0.34397884  0.13231978  1
  O2-  O424  1  0.83914800  0.41119390  0.47925425  1
  O2-  O425  1  0.83719668  0.41220024  0.79919172  1
  O2-  O426  1  0.85716568  0.66230449  0.13284728  1
  O2-  O427  1  0.82855172  0.65047454  0.49043247  1
  O2-  O428  1  0.80791384  0.64869997  0.79728363  1
  O2-  O429  1  0.84008869  0.92682225  0.15593624  1
  O2-  O430  1  0.82386242  0.90152644  0.48431103  1
  O2-  O431  1  0.83776049  0.89545915  0.81050205  1
  O2-  O432  1  0.13930673  0.02761086  0.20512908  1
  O2-  O433  1  0.17609319  0.09144658  0.52381073  1
  O2-  O434  1  0.16074411  0.08510881  0.84905333  1
  O2-  O435  1  0.17875901  0.37257911  0.19050250  1
  O2-  O436  1  0.15933395  0.32385684  0.52515075  1
  O2-  O437  1  0.16470021  0.33976437  0.84825952  1
  O2-  O438  1  0.13585170  0.54151299  0.17031548  1
  O2-  O439  1  0.17028921  0.57889676  0.52448737  1
  O2-  O440  1  0.16215712  0.58193314  0.84402992  1
  O2-  O441  1  0.11612637  0.80947518  0.19982247  1
  O2-  O442  1  0.12916054  0.80248010  0.52112017  1
  O2-  O443  1  0.15775149  0.83496034  0.84169674  1
  O2-  O444  1  0.40979527  0.07823117  0.19932360  1
  O2-  O445  1  0.43000642  0.08396181  0.51403475  1
  O2-  O446  1  0.40944816  0.07739924  0.82675908  1
  O2-  O447  1  0.42514900  0.32421518  0.20176353  1
  O2-  O448  1  0.41499471  0.32509813  0.52415700  1
  O2-  O449  1  0.39420292  0.32569223  0.85892740  1
  O2-  O450  1  0.45520995  0.56187596  0.20994205  1
  O2-  O451  1  0.41944675  0.57877572  0.52370457  1
  O2-  O452  1  0.41068859  0.58372462  0.85380873  1
  O2-  O453  1  0.39229827  0.81141288  0.18595461  1
  O2-  O454  1  0.43130943  0.83013186  0.51815640  1
  O2-  O455  1  0.33857704  0.79920902  0.87358368  1
  O2-  O456  1  0.66732493  0.08012470  0.19885875  1
  O2-  O457  1  0.67188004  0.07932248  0.51645575  1
  O2-  O458  1  0.68670138  0.05238836  0.89701273  1
  O2-  O459  1  0.66925932  0.33524470  0.19343116  1
  O2-  O460  1  0.66194157  0.31030081  0.48324302  1
  O2-  O461  1  0.67643668  0.33498202  0.85031697  1
  O2-  O462  1  0.69709317  0.59798775  0.17427326  1
  O2-  O463  1  0.65828279  0.56828634  0.52075332  1
  O2-  O464  1  0.66212839  0.57700510  0.86260537  1
  O2-  O465  1  0.67429482  0.83291207  0.19283280  1
  O2-  O466  1  0.66767266  0.82884117  0.51923321  1
  O2-  O467  1  0.67589672  0.82159956  0.85689168  1
  O2-  O468  1  0.92046021  0.09012872  0.19850480  1
  O2-  O469  1  0.90543752  0.06324280  0.52037065  1
  O2-  O470  1  0.91591695  0.09128201  0.87305797  1
  O2-  O471  1  0.93762864  0.35238647  0.19128982  1
  O2-  O472  1  0.91875831  0.32913946  0.52317303  1
  O2-  O473  1  0.91937015  0.33720651  0.85661315  1
  O2-  O474  1  0.93705977  0.58200782  0.19469333  1
  O2-  O475  1  0.91731430  0.57360464  0.52396697  1
  O2-  O476  1  0.91130539  0.57989906  0.76701405  1
  O2-  O477  1  0.96434400  0.90498080  0.19742488  1
  O2-  O478  1  1.01655514  0.85638370  0.51961077  1
  O2-  O479  1  0.91203847  0.81743909  0.84761745  1
  O2-  O480  1  0.17834519  0.08001069  0.32375520  1
  O2-  O481  1  0.19157860  0.09274828  0.64889844  1
  O2-  O482  1  0.16581982  0.07837718  0.97561075  1
  O2-  O483  1  0.19081870  0.40794331  0.31429698  1
  O2-  O484  1  0.14319030  0.31623066  0.64676236  1
  O2-  O485  1  0.17585280  0.35150397  0.97062870  1
  O2-  O486  1  0.13032738  0.52707969  0.29094937  1
  O2-  O487  1  0.17841090  0.58259112  0.64815261  1
  O2-  O488  1  0.17326732  0.59221060  0.96887296  1
  O2-  O489  1  0.07536417  0.78082737  0.31048831  1
  O2-  O490  1  0.17387299  0.84040426  0.64341203  1
  O2-  O491  1  0.16417309  0.83849614  0.96361941  1
  O2-  O492  1  0.40277942  0.06379330  0.32001157  1
  O2-  O493  1  0.42682710  0.08079599  0.63589348  1
  O2-  O494  1  0.42344730  0.08249606  1.02187774  1
  O2-  O495  1  0.41013346  0.32658132  0.32154112  1
  O2-  O496  1  0.41816785  0.32761398  0.64716972  1
  O2-  O497  1  0.40333819  0.33099403  0.98576522  1
  O2-  O498  1  0.42149486  0.58570520  0.32839226  1
  O2-  O499  1  0.43250943  0.58510673  0.64643198  1
  O2-  O500  1  0.41539373  0.59282763  0.97916855  1
  O2-  O501  1  0.41053327  0.82745681  0.31691803  1
  O2-  O502  1  0.41312994  0.81605545  0.64127980  1
  O2-  O503  1  0.41778571  0.83268784  0.98321056  1
  O2-  O504  1  0.63664698  0.08305059  0.32498095  1
  O2-  O505  1  0.68752410  0.09345324  0.64089533  1
  O2-  O506  1  0.68045861  0.10381445  1.01613237  1
  O2-  O507  1  0.67356771  0.35694986  0.31705887  1
  O2-  O508  1  0.65609909  0.31411013  0.63530013  1
  O2-  O509  1  0.65957313  0.33360132  0.97421054  1
  O2-  O510  1  0.67133677  0.58787352  0.33373675  1
  O2-  O511  1  0.67342160  0.58341253  0.64228408  1
  O2-  O512  1  0.65890185  0.58277998  0.98542441  1
  O2-  O513  1  0.65846675  0.83293889  0.32151843  1
  O2-  O514  1  0.68443429  0.88883236  0.64603317  1
  O2-  O515  1  0.67393329  0.83039168  0.98601862  1
  O2-  O516  1  0.91583928  0.07353681  0.32012571  1
  O2-  O517  1  0.95765011  0.13291964  0.67283473  1
  O2-  O518  1  0.92135092  0.08863743  0.98855186  1
  O2-  O519  1  0.90827829  0.34059879  0.31302933  1
  O2-  O520  1  0.91789997  0.32953605  0.64543916  1
  O2-  O521  1  0.92546679  0.34041406  0.98130265  1
  O2-  O522  1  0.93006414  0.60714910  0.31231744  1
  O2-  O523  1  0.86746026  0.55787238  0.64202707  1
  O2-  O524  1  0.91898788  0.57646033  1.01181593  1
  O2-  O525  1  0.85067125  0.80778613  0.29685889  1
  O2-  O526  1  0.93370046  0.88445993  0.63520857  1
  O2-  O527  1  0.90692390  0.81941392  0.96795767  1
  O2-  O528  1  0.09734218  0.18683327  -0.02429835  1
  O2-  O529  1  0.08295957  0.16018319  0.33060642  1
  O2-  O530  1  0.04348052  0.17694483  0.69978908  1
  O2-  O531  1  0.08982403  0.43489734  0.01792869  1
  O2-  O532  1  0.04102512  0.34530330  0.37357539  1
  O2-  O533  1  0.08209809  0.41745840  0.68649267  1
  O2-  O534  1  0.09967084  0.68154596  0.02156301  1
  O2-  O535  1  0.16884724  0.66159964  0.35634527  1
  O2-  O536  1  0.16782798  0.71049155  0.70639265  1
  O2-  O537  1  0.06995177  0.90712065  0.01409524  1
  O2-  O538  1  0.07494873  0.91982436  0.35940178  1
  O2-  O539  1  0.08986340  0.92522030  0.68335323  1
  O2-  O540  1  0.32419470  0.16649120  0.03598097  1
  O2-  O541  1  0.34078539  0.16277674  0.36196141  1
  O2-  O542  1  0.34979199  0.16434261  0.68302895  1
  O2-  O543  1  0.33516129  0.43041202  0.01831514  1
  O2-  O544  1  0.33634315  0.41954237  0.36531663  1
  O2-  O545  1  0.33066505  0.40352916  0.66888555  1
  O2-  O546  1  0.32785008  0.66543430  0.02030665  1
  O2-  O547  1  0.33228589  0.66629335  0.36394546  1
  O2-  O548  1  0.34405378  0.65996993  0.67990943  1
  O2-  O549  1  0.31074309  0.87818478  0.03686371  1
  O2-  O550  1  0.32252877  0.89605498  0.35981323  1
  O2-  O551  1  0.34102961  0.91602262  0.67378190  1
  O2-  O552  1  0.59170202  0.18343973  0.04945210  1
  O2-  O553  1  0.57908970  0.11712724  0.33747706  1
  O2-  O554  1  0.59352947  0.16082938  0.67491746  1
  O2-  O555  1  0.57310946  0.41190310  0.02002034  1
  O2-  O556  1  0.57851929  0.41552917  0.36336181  1
  O2-  O557  1  0.59358587  0.41049224  0.68435440  1
  O2-  O558  1  0.58041709  0.66851751  0.02534604  1
  O2-  O559  1  0.58896140  0.67721807  0.36760417  1
  O2-  O560  1  0.59998592  0.66360468  0.69108993  1
  O2-  O561  1  0.59490127  0.92592486  -0.01478843  1
  O2-  O562  1  0.57381939  0.92359479  0.35642337  1
  O2-  O563  1  0.63400977  0.91396045  0.66237351  1
  O2-  O564  1  0.85115624  0.18201524  0.03751275  1
  O2-  O565  1  0.88832155  0.19606104  0.36612927  1
  O2-  O566  1  0.84048507  0.17808036  0.70270526  1
  O2-  O567  1  0.83172799  0.40966153  0.01901969  1
  O2-  O568  1  0.84514447  0.44064816  0.35844786  1
  O2-  O569  1  0.81995891  0.39227599  0.67992460  1
  O2-  O570  1  0.82208726  0.65692180  0.01787759  1
  O2-  O571  1  0.83370333  0.67077925  0.36729660  1
  O2-  O572  1  0.84520567  0.70203722  0.61342074  1
  O2-  O573  1  0.88034141  0.93960374  0.03037380  1
  O2-  O574  1  0.92594960  0.94635464  0.36511791  1
  O2-  O575  1  0.86785064  0.96298816  0.69360893  1
