# generated using pymatgen
data_H2O
_symmetry_space_group_name_H-M   'P 1'
_cell_length_a   17.96436072
_cell_length_b   17.95066770
_cell_length_c   21.95286389
_cell_angle_alpha   90.04136329
_cell_angle_beta   89.94811285
_cell_angle_gamma   119.95648261
_symmetry_Int_Tables_number   1
_chemical_formula_structural   H2O
_chemical_formula_sum   'H384 O192'
_cell_volume   6133.44206283
_cell_formula_units_Z   192
loop_
 _symmetry_equiv_pos_site_id
 _symmetry_equiv_pos_as_xyz
  1  'x, y, z'
loop_
 _atom_type_symbol
 _atom_type_oxidation_number
  H+  1.0
  O2-  -2.0
loop_
 _atom_site_type_symbol
 _atom_site_label
 _atom_site_symmetry_multiplicity
 _atom_site_fract_x
 _atom_site_fract_y
 _atom_site_fract_z
 _atom_site_occupancy
  H+  H0  1  0.06317324  0.16486756  0.34273009  1
  H+  H1  1  0.51429140  0.88659886  0.34275648  1
  H+  H2  1  0.92266384  0.11220452  0.16067377  1
  H+  H3  1  0.90105311  0.26665871  0.33133380  1
  H+  H4  1  0.50533499  0.65423625  0.49919735  1
  H+  H5  1  0.78815700  0.03415456  0.97901716  1
  H+  H6  1  0.52275310  0.12643351  0.00231388  1
  H+  H7  1  0.56954952  0.16249986  0.28606506  1
  H+  H8  1  0.86399738  0.39640946  1.00991791  1
  H+  H9  1  0.62453832  0.56874448  0.49767509  1
  H+  H10  1  0.14623198  0.19081408  0.13341453  1
  H+  H11  1  0.37461557  0.21636234  0.83116217  1
  H+  H12  1  0.64439310  0.79648132  0.17084551  1
  H+  H13  1  0.35412316  0.96793317  0.16081860  1
  H+  H14  1  0.38400721  0.71201713  0.16186394  1
  H+  H15  1  0.62634233  0.23434915  0.82471318  1
  H+  H16  1  0.13452121  0.79184796  0.65919553  1
  H+  H17  1  -0.04675912  0.35727613  0.50036536  1
  H+  H18  1  0.56696512  0.17226543  0.08991764  1
  H+  H19  1  0.89482276  -0.03195158  0.68647907  1
  H+  H20  1  0.24982795  0.62543161  0.66819043  1
  H+  H21  1  0.45685944  0.35078688  0.51935980  1
  H+  H22  1  0.88606924  0.60482675  0.31295794  1
  H+  H23  1  0.48717384  0.35749749  0.84289964  1
  H+  H24  1  0.12910695  0.91111136  0.67049770  1
  H+  H25  1  0.08533224  0.62441234  0.49520789  1
  H+  H26  1  0.86522448  0.60145908  0.64905503  1
  H+  H27  1  0.48333194  0.61389906  0.98561020  1
  H+  H28  1  0.83726666  0.83105755  0.82241240  1
  H+  H29  1  0.35818134  0.41080018  0.16336150  1
  H+  H30  1  0.89441250  0.76028695  0.17248742  1
  H+  H31  1  0.23078952  0.87220224  -0.00859687  1
  H+  H32  1  0.86075084  0.47403119  0.65771385  1
  H+  H33  1  0.75128592  0.89998692  0.51288373  1
  H+  H34  1  0.14816023  0.11548425  0.85768816  1
  H+  H35  1  0.28505088  0.13064791  0.68250425  1
  H+  H36  1  0.13594335  0.39411265  0.34117905  1
  H+  H37  1  0.14405537  0.79448085  0.84260368  1
  H+  H38  1  0.36078687  0.87932102  0.00703529  1
  H+  H39  1  0.36923801  0.26052931  0.52783333  1
  H+  H40  1  0.48146263  0.63649195  0.34772533  1
  H+  H41  1  0.84678778  0.47068960  0.49740055  1
  H+  H42  1  0.67920571  0.33307734  0.90100247  1
  H+  H43  1  0.35035900  0.97303490  0.48811917  1
  H+  H44  1  0.48446437  0.65097956  0.65234099  1
  H+  H45  1  0.86318296  0.37365198  0.16335568  1
  H+  H46  1  0.64018143  0.63127526  -0.01297247  1
  H+  H47  1  0.12095579  0.65508943  0.82335580  1
  H+  H48  1  0.14342384  0.39773340  0.99238974  1
  H+  H49  1  0.66415240  0.23950401  0.28942995  1
  H+  H50  1  0.58680807  0.17085007  0.72961256  1
  H+  H51  1  0.11780648  1.00029233  0.31348254  1
  H+  H52  1  0.83588583  0.70512200  0.65996760  1
  H+  H53  1  1.05315782  0.16575511  0.15489466  1
  H+  H54  1  0.94125555  0.80751045  0.71864010  1
  H+  H55  1  0.22896462  0.62530115  0.98884785  1
  H+  H56  1  0.23536660  0.11029105  0.85614516  1
  H+  H57  1  0.73167418  0.35998433  -0.00333602  1
  H+  H58  1  0.36105246  0.44626219  0.68105529  1
  H+  H59  1  0.92833896  0.81699525  0.89577587  1
  H+  H60  1  0.84059637  0.93446718  0.43065228  1
  H+  H61  1  0.15060414  0.31626133  0.17094561  1
  H+  H62  1  0.61612400  0.73549047  -0.01007333  1
  H+  H63  1  0.61593778  0.53905143  0.16601214  1
  H+  H64  1  0.45842775  0.11444163  0.17109021  1
  H+  H65  1  0.38846651  0.10303097  0.99404887  1
  H+  H66  1  0.36919159  0.25185349  0.99315503  1
  H+  H67  1  0.37743196  0.12161371  0.67971739  1
  H+  H68  1  0.14093037  -0.08363083  -0.00497671  1
  H+  H69  1  0.64408220  0.79083867  0.67420273  1
  H+  H70  1  0.45912637  0.33520140  0.99890588  1
  H+  H71  1  0.62904874  0.09564022  0.98611619  1
  H+  H72  1  0.62879539  0.77735475  0.33291345  1
  H+  H73  1  0.92188153  0.04840233  0.50864268  1
  H+  H74  1  0.35598252  0.38133102  0.00773938  1
  H+  H75  1  0.64056712  0.76875600  0.49841348  1
  H+  H76  1  0.34363262  0.22014597  0.15916296  1
  H+  H77  1  0.69000250  0.42652721  0.16995332  1
  H+  H78  1  0.09659399  0.10371297  0.69086850  1
  H+  H79  1  0.84513997  0.83533305  0.63489085  1
  H+  H80  1  0.23493359  0.35794929  0.84369210  1
  H+  H81  1  0.13530165  0.44123839  0.16789850  1
  H+  H82  1  0.12780984  0.76255244  0.31796264  1
  H+  H83  1  0.38024491  0.38583396  0.83450428  1
  H+  H84  1  0.71827713  -0.03930467  0.20699369  1
  H+  H85  1  0.87732005  0.47311178  0.33191332  1
  H+  H86  1  0.00052259  0.85786107  0.48133550  1
  H+  H87  1  0.27116861  0.35537501  0.68442715  1
  H+  H88  1  0.75217926  0.34387747  0.21741458  1
  H+  H89  1  0.88436133  0.50839949  0.17212265  1
  H+  H90  1  0.49091098  0.36266601  0.66643973  1
  H+  H91  1  0.85980287  0.21936145  0.48643702  1
  H+  H92  1  0.59155736  0.96276917  0.13564565  1
  H+  H93  1  0.72123232  0.61471419  0.83086569  1
  H+  H94  1  0.11250402  0.74164183  1.00266588  1
  H+  H95  1  0.72736101  0.36394191  0.65527244  1
  H+  H96  1  0.65427053  0.87648722  0.70150900  1
  H+  H97  1  0.85566622  0.42427648  0.71786682  1
  H+  H98  1  0.12921647  0.00703556  0.16161222  1
  H+  H99  1  0.65485839  0.11182619  0.31050270  1
  H+  H100  1  0.43905015  0.85959005  0.64623985  1
  H+  H101  1  0.66051107  0.37916487  0.35915276  1
  H+  H102  1  0.63862092  0.54200045  0.98643393  1
  H+  H103  1  1.02990488  0.90766579  0.82749910  1
  H+  H104  1  0.85774393  0.73643657  0.02762410  1
  H+  H105  1  0.57625945  0.66667631  0.72671069  1
  H+  H106  1  0.17639032  0.52383689  0.58947941  1
  H+  H107  1  0.60719903  0.96556939  -0.01145316  1
  H+  H108  1  0.10801116  0.51573997  0.70741289  1
  H+  H109  1  0.76564843  0.11758998  0.34212454  1
  H+  H110  1  0.91363463  1.04598457  0.89506228  1
  H+  H111  1  0.21944253  0.10330647  0.16787843  1
  H+  H112  1  0.63457518  0.86487979  0.97169740  1
  H+  H113  1  0.13677753  0.51623884  0.31890924  1
  H+  H114  1  0.86323699  0.00616313  0.31577743  1
  H+  H115  1  0.60042707  0.72143944  0.81943408  1
  H+  H116  1  0.65176858  0.41178526  0.19079566  1
  H+  H117  1  0.58962484  0.44698791  0.49954994  1
  H+  H118  1  0.90441912  0.29860906  0.99968113  1
  H+  H119  1  0.60524617  0.98136539  0.49225686  1
  H+  H120  1  0.38950617  0.01420462  0.99469522  1
  H+  H121  1  0.88013650  0.14157994  0.49115942  1
  H+  H122  1  0.74910158  0.37429307  0.49964519  1
  H+  H123  1  0.83662878  0.14917327  0.40284558  1
  H+  H124  1  0.66143494  0.83139307  0.87535507  1
  H+  H125  1  0.37933847  0.77169053  0.32644097  1
  H+  H126  1  0.79478973  0.90236516  -0.04669468  1
  H+  H127  1  0.26854176  0.10839765  0.00893104  1
  H+  H128  1  0.46862658  0.85232004  0.16821096  1
  H+  H129  1  0.62412924  0.52458308  0.65139694  1
  H+  H130  1  0.89967801  0.97033652  0.13559404  1
  H+  H131  1  0.40192192  0.52188985  0.49351856  1
  H+  H132  1  0.87914905  0.38448112  0.33946181  1
  H+  H133  1  0.46421283  0.84880674  0.48681508  1
  H+  H134  1  0.87821809  0.26716510  0.65415669  1
  H+  H135  1  0.10680432  0.44266245  0.50458902  1
  H+  H136  1  0.22682907  0.62311836  0.83086486  1
  H+  H137  1  0.34769140  0.77513632  0.65463576  1
  H+  H138  1  0.86723518  0.75458271  0.47900539  1
  H+  H139  1  0.32436729  0.42500239  0.50469203  1
  H+  H140  1  0.84634625  0.37266073  0.50125411  1
  H+  H141  1  0.62772688  0.86599884  0.33242087  1
  H+  H142  1  0.91431165  0.83220657  0.26330585  1
  H+  H143  1  0.85424002  0.88324600  0.33411324  1
  H+  H144  1  0.16419570  1.04056229  0.66162819  1
  H+  H145  1  0.60385324  0.64455046  0.34758770  1
  H+  H146  1  0.07266947  0.38683481  0.71846784  1
  H+  H147  1  0.96401330  0.13924553  0.92284165  1
  H+  H148  1  0.56109774  0.48441908  0.34586342  1
  H+  H149  1  0.79126023  0.90678844  0.67907966  1
  H+  H150  1  0.02456693  0.64981558  0.00061847  1
  H+  H151  1  0.35920054  0.00175259  0.32416104  1
  H+  H152  1  0.65038834  0.13525649  0.64869030  1
  H+  H153  1  0.88167309  0.87818899  0.15305145  1
  H+  H154  1  0.60669457  0.63303622  0.82193140  1
  H+  H155  1  0.13236804  0.60303793  0.31508283  1
  H+  H156  1  0.03604887  0.13733770  0.84642671  1
  H+  H157  1  0.27894733  0.42411054  0.15766229  1
  H+  H158  1  0.81546657  0.65065209  0.25504444  1
  H+  H159  1  0.26354632  0.39012751  0.33071509  1
  H+  H160  1  0.91097891  0.89946612  0.89266829  1
  H+  H161  1  0.74604184  0.34417614  0.85128152  1
  H+  H162  1  0.63449502  0.33915782  0.99993275  1
  H+  H163  1  0.85926699  0.59783119  0.49278792  1
  H+  H164  1  0.96380734  0.85278031  0.32576101  1
  H+  H165  1  0.12520584  0.84966309  0.50372589  1
  H+  H166  1  1.01745585  0.34399072  0.66186636  1
  H+  H167  1  0.14232784  0.10087323  0.31613028  1
  H+  H168  1  0.92194270  0.57426136  0.25919845  1
  H+  H169  1  1.00056483  0.13177853  0.66768441  1
  H+  H170  1  0.63030589  0.39341846  0.82686638  1
  H+  H171  1  0.89046949  0.61384439  0.83432758  1
  H+  H172  1  0.85145414  0.72164553  0.81268808  1
  H+  H173  1  0.37577110  0.12696822  0.83556407  1
  H+  H174  1  0.80827278  0.11115932  0.15968250  1
  H+  H175  1  0.46493456  0.11360631  0.50053177  1
  H+  H176  1  0.61865691  0.90089964  0.49686900  1
  H+  H177  1  0.64322623  0.67904361  0.50135966  1
  H+  H178  1  0.09517913  0.92632466  0.08840727  1
  H+  H179  1  0.60003439  0.88148191  0.15339264  1
  H+  H180  1  0.41547024  0.44103151  0.36025570  1
  H+  H181  1  0.15655328  0.04152578  0.94784806  1
  H+  H182  1  0.06173752  0.34569811  0.48272227  1
  H+  H183  1  0.09300168  0.45525795  0.06721889  1
  H+  H184  1  0.37890946  0.85508265  0.48295429  1
  H+  H185  1  0.08601852  0.26349470  0.99892251  1
  H+  H186  1  0.18423566  0.32285549  0.51501673  1
  H+  H187  1  0.62432064  0.35125106  0.49585482  1
  H+  H188  1  0.63551789  0.01637954  0.33350306  1
  H+  H189  1  0.10319012  0.62177864  0.14852494  1
  H+  H190  1  0.75014512  0.61922076  0.66664596  1
  H+  H191  1  1.01607954  0.73195827  0.70838864  1
  H+  H192  1  0.91898005  0.50183757  0.80580108  1
  H+  H193  1  -0.00881476  0.35494159  0.32782718  1
  H+  H194  1  0.88410149  0.35910861  0.64854920  1
  H+  H195  1  0.43771095  0.09551403  0.33451230  1
  H+  H196  1  0.61779386  0.98144260  0.80584465  1
  H+  H197  1  -0.03402385  0.79788682  0.74182451  1
  H+  H198  1  0.88122449  0.86631083  1.06065685  1
  H+  H199  1  0.39277933  0.34921606  0.67340776  1
  H+  H200  1  0.35178856  0.89121152  0.66562295  1
  H+  H201  1  0.12461874  0.22255484  0.83385328  1
  H+  H202  1  0.53450950  0.67021505  0.14335143  1
  H+  H203  1  0.99905118  0.65356606  0.66830020  1
  H+  H204  1  1.02188426  0.62972048  0.33182501  1
  H+  H205  1  0.12205032  0.99102027  0.83092327  1
  H+  H206  1  0.44301609  0.36529686  0.16826691  1
  H+  H207  1  0.66232150  0.33368685  0.59805245  1
  H+  H208  1  0.50714990  0.47161312  0.09868006  1
  H+  H209  1  0.22374602  0.38144741  -0.00622254  1
  H+  H210  1  0.71471232  0.61284547  0.17302088  1
  H+  H211  1  0.42089819  0.02842076  0.83725583  1
  H+  H212  1  0.14493565  0.32569203  0.67271212  1
  H+  H213  1  0.49141643  0.38353269  0.34078792  1
  H+  H214  1  0.67063220  0.10133761  0.55468964  1
  H+  H215  1  0.10031075  0.87031765  0.33044215  1
  H+  H216  1  0.85634936  0.48124762  1.01067384  1
  H+  H217  1  0.85652089  0.11014752  0.33162089  1
  H+  H218  1  0.16059348  0.17553670  0.49536826  1
  H+  H219  1  0.37957893  0.84953461  0.17288200  1
  H+  H220  1  0.74749787  0.62924254  0.49179193  1
  H+  H221  1  0.20567093  0.41692962  0.54181185  1
  H+  H222  1  0.72133574  0.11054881  0.49332512  1
  H+  H223  1  0.32659592  0.11690283  0.34875724  1
  H+  H224  1  0.21484626  0.85271992  0.31827278  1
  H+  H225  1  0.53669932  0.14534986  0.82746461  1
  H+  H226  1  0.39112341  0.57402574  0.63809551  1
  H+  H227  1  0.35285879  0.87799998  0.33398722  1
  H+  H228  1  0.84845428  0.71749171  0.30806791  1
  H+  H229  1  0.14374209  0.63413648  -0.01286283  1
  H+  H230  1  0.85010387  0.15372502  0.00121710  1
  H+  H231  1  0.76437128  0.88365761  0.33821996  1
  H+  H232  1  0.55930190  0.28276152  0.09970590  1
  H+  H233  1  0.77522307  0.64659215  0.01110670  1
  H+  H234  1  -0.01605977  0.85019726  0.16729468  1
  H+  H235  1  0.22714367  0.55089468  0.52176182  1
  H+  H236  1  0.86914979  0.89422408  0.48239134  1
  H+  H237  1  0.36188065  0.62831482  -0.00043872  1
  H+  H238  1  0.88612727  0.62166941  0.99430263  1
  H+  H239  1  0.62017147  0.39234795  0.67092540  1
  H+  H240  1  0.39439587  0.50945043  0.83760138  1
  H+  H241  1  0.97139680  0.60104583  0.16589363  1
  H+  H242  1  0.11207320  0.51931112  0.78045161  1
  H+  H243  1  0.12995694  0.76379881  0.16335394  1
  H+  H244  1  0.38475864  0.24408536  0.32467323  1
  H+  H245  1  0.88938473  0.26169425  0.17676219  1
  H+  H246  1  0.69966838  0.60188856  0.31620313  1
  H+  H247  1  0.78302083  0.04156428  -0.05409448  1
  H+  H248  1  0.12572742  0.18838860  0.39850138  1
  H+  H249  1  0.60541357  0.88738073  0.80394341  1
  H+  H250  1  0.38072938  0.62583660  0.34089296  1
  H+  H251  1  0.38069557  0.76321996  0.99603718  1
  H+  H252  1  0.05911511  0.20287788  0.05581855  1
  H+  H253  1  0.23285356  0.66668725  0.46863685  1
  H+  H254  1  0.48776140  0.61139609  0.83358556  1
  H+  H255  1  0.61160477  0.13733960  0.47972995  1
  H+  H256  1  0.85335812  0.61725242  0.16206225  1
  H+  H257  1  0.60755479  0.64398466  0.66478822  1
  H+  H258  1  0.11831366  0.50563017  0.00372474  1
  H+  H259  1  0.98248291  0.39270450  0.99325307  1
  H+  H260  1  0.37819258  0.88773383  0.82558423  1
  H+  H261  1  0.71089393  0.82871082  0.81565389  1
  H+  H262  1  0.95242133  0.60359893  0.49382468  1
  H+  H263  1  0.57404559  0.91566675  0.40368285  1
  H+  H264  1  0.61643139  0.21298358  0.00135413  1
  H+  H265  1  0.39411700  0.53444176  0.34792769  1
  H+  H266  1  0.61073606  0.23005602  0.67027230  1
  H+  H267  1  0.26497587  0.63017404  0.32803158  1
  H+  H268  1  0.85006650  0.22830626  0.83391262  1
  H+  H269  1  0.35396721  0.66417597  0.66645102  1
  H+  H270  1  0.26749046  0.87711776  0.15755370  1
  H+  H271  1  0.88380075  0.15539141  0.67378262  1
  H+  H272  1  0.34520413  0.12993560  0.50678459  1
  H+  H273  1  0.18015829  0.29737251  0.32566498  1
  H+  H274  1  0.62819170  0.26551600  0.49934641  1
  H+  H275  1  0.73084626  0.11099164  0.83235636  1
  H+  H276  1  0.06159176  0.12058142  0.75203498  1
  H+  H277  1  0.77634152  0.75393561  0.59821324  1
  H+  H278  1  0.61783155  0.66029447  0.15226648  1
  H+  H279  1  0.73948351  0.13484632  0.64767082  1
  H+  H280  1  0.33195561  0.71474575  0.47970395  1
  H+  H281  1  0.48244882  0.11447956  0.65810003  1
  H+  H282  1  0.98614339  0.63025691  0.84128393  1
  H+  H283  1  1.06776938  0.16681858  0.49377904  1
  H+  H284  1  0.58234291  0.90874350  0.64361997  1
  H+  H285  1  0.60640001  0.21655040  0.15449090  1
  H+  H286  1  0.11867562  0.88464245  0.14619496  1
  H+  H287  1  0.36002610  0.63974540  0.81286644  1
  H+  H288  1  0.56080284  0.92151959  0.71186963  1
  H+  H289  1  0.10020931  0.71957994  0.49443021  1
  H+  H290  1  0.39953181  0.07577308  0.23188588  1
  H+  H291  1  0.17084847  0.84940437  0.93096194  1
  H+  H292  1  0.16413333  0.83104933  0.56381605  1
  H+  H293  1  0.08094401  0.94954710  0.48661910  1
  H+  H294  1  0.94723825  0.07789723  0.21833082  1
  H+  H295  1  0.13895024  0.88029637  0.84188896  1
  H+  H296  1  0.34886958  0.13198484  0.16238191  1
  H+  H297  1  0.16481848  0.59270550  0.88862829  1
  H+  H298  1  0.87464234  0.33544448  0.90196521  1
  H+  H299  1  0.32240593  0.66975616  0.75621363  1
  H+  H300  1  0.57823462  0.89942684  0.04543065  1
  H+  H301  1  0.82984083  0.04380476  0.26233773  1
  H+  H302  1  0.33657164  0.42699506  0.06433062  1
  H+  H303  1  0.39837838  0.31745962  0.22987171  1
  H+  H304  1  0.54690774  0.40970590  0.10540074  1
  H+  H305  1  0.33342317  0.91212437  0.06651925  1
  H+  H306  1  0.46846144  0.85128389  -0.01609283  1
  H+  H307  1  0.23027458  0.87543595  0.65988258  1
  H+  H308  1  0.46820883  0.26999540  0.28513209  1
  H+  H309  1  0.42383930  0.57777392  0.89880486  1
  H+  H310  1  0.30607055  0.65859519  0.39489163  1
  H+  H311  1  0.31891425  0.90715934  0.39277850  1
  H+  H312  1  0.89651865  0.31969034  0.56133432  1
  H+  H313  1  0.32741253  0.15519389  0.06572179  1
  H+  H314  1  0.90128033  0.57975511  0.58863035  1
  H+  H315  1  0.54061202  0.41042010  0.43698421  1
  H+  H316  1  0.64464306  0.11662326  0.82873580  1
  H+  H317  1  0.34105233  0.65314046  0.06405930  1
  H+  H318  1  0.41325171  0.82917866  0.26634840  1
  H+  H319  1  1.01073595  0.21857193  0.64337205  1
  H+  H320  1  0.86371431  0.16790995  0.10099855  1
  H+  H321  1  0.82592078  0.40548370  0.10815440  1
  H+  H322  1  0.20976341  0.11168387  0.60713876  1
  H+  H323  1  0.39001432  0.02305173  0.65911033  1
  H+  H324  1  0.41574573  0.08439550  0.56457682  1
  H+  H325  1  0.39497300  0.52099317  0.98707708  1
  H+  H326  1  0.69279758  0.87505583  0.57362314  1
  H+  H327  1  0.20405304  0.06612387  0.50346036  1
  H+  H328  1  0.92667492  -0.02439462  0.95804912  1
  H+  H329  1  0.82410098  0.65557002  0.10697113  1
  H+  H330  1  0.43001295  0.07786591  0.90128466  1
  H+  H331  1  0.87827148  0.36848846  0.83392784  1
  H+  H332  1  0.13946489  0.59198074  0.62888673  1
  H+  H333  1  0.36426914  0.81242359  0.90513219  1
  H+  H334  1  0.97615573  0.46931102  0.76941502  1
  H+  H335  1  0.07238702  0.90056822  0.39099930  1
  H+  H336  1  0.77046963  0.36223971  0.28787703  1
  H+  H337  1  0.35098168  0.93371997  0.72977218  1
  H+  H338  1  0.07860016  0.66304761  0.09282832  1
  H+  H339  1  0.59210913  0.42101219  0.73220346  1
  H+  H340  1  0.09066870  0.41602674  0.39676403  1
  H+  H341  1  0.63377616  0.58250764  0.26487693  1
  H+  H342  1  0.91315841  0.58853085  0.93438753  1
  H+  H343  1  0.74970491  0.40500069  0.38415063  1
  H+  H344  1  0.65739908  0.58946042  0.59140818  1
  H+  H345  1  0.79481418  0.63253829  0.42557783  1
  H+  H346  1  0.88698643  0.80777941  0.53970082  1
  H+  H347  1  0.87611725  0.15473082  0.84041683  1
  H+  H348  1  0.91437704  0.32241431  0.23484502  1
  H+  H349  1  0.94851409  0.20486996  0.02236494  1
  H+  H350  1  0.65779385  0.07056572  0.92371871  1
  H+  H351  1  0.26279603  0.88228095  0.48844492  1
  H+  H352  1  0.82079515  0.65625133  0.75784346  1
  H+  H353  1  0.84280684  0.17078468  0.73418096  1
  H+  H354  1  0.63729252  0.37447814  0.09500707  1
  H+  H355  1  0.08220363  0.68652729  0.76901321  1
  H+  H356  1  0.42179097  0.32379404  0.90033190  1
  H+  H357  1  0.15062772  0.55642634  0.21885846  1
  H+  H358  1  0.59410921  0.68925739  0.40988518  1
  H+  H359  1  0.87428294  0.85629055  0.98972728  1
  H+  H360  1  0.16887328  0.33871090  0.89660375  1
  H+  H361  1  0.18719233  0.36909932  0.23294880  1
  H+  H362  1  0.15162594  0.06284913  0.23111737  1
  H+  H363  1  0.31822410  0.16437455  0.40718372  1
  H+  H364  1  0.38914091  0.56356641  0.15441905  1
  H+  H365  1  0.33845534  0.75835715  0.84354651  1
  H+  H366  1  0.08030851  0.65973029  0.39131923  1
  H+  H367  1  0.95662615  0.11926804  0.56321433  1
  H+  H368  1  0.71041584  0.03224217  0.24670351  1
  H+  H369  1  0.64761242  0.83390532  0.23823735  1
  H+  H370  1  0.43704448  0.63296575  0.55095153  1
  H+  H371  1  0.41835234  0.32346477  0.60111858  1
  H+  H372  1  0.66591231  0.59203963  0.89206624  1
  H+  H373  1  0.36509712  0.45312187  0.41559290  1
  H+  H374  1  0.34526900  0.40997506  0.77474700  1
  H+  H375  1  0.19718059  0.32725707  0.61395520  1
  H+  H376  1  0.58668514  0.17321332  0.42122789  1
  H+  H377  1  0.10006250  0.94333998  0.72959652  1
  H+  H378  1  0.59434944  0.68712002  0.05493490  1
  H+  H379  1  0.61910287  0.47667445  0.82746288  1
  H+  H380  1  0.46432144  0.94590297  0.78914264  1
  H+  H381  1  0.34338954  0.14647383  0.74963042  1
  H+  H382  1  0.81850349  0.85117866  0.75605242  1
  H+  H383  1  0.15600169  0.82332954  0.22269746  1
  O2-  O384  1  0.10699837  0.21346839  0.13558231  1
  O2-  O385  1  0.12762820  0.20105518  0.47807134  1
  O2-  O386  1  0.09271590  0.15844926  0.82583933  1
  O2-  O387  1  0.10207201  0.46882889  0.15330104  1
  O2-  O388  1  0.05887836  0.39801106  0.47642718  1
  O2-  O389  1  0.07524068  0.48562310  0.74590147  1
  O2-  O390  1  0.07576428  0.65662650  0.13837467  1
  O2-  O391  1  0.06477650  0.65991052  0.47629155  1
  O2-  O392  1  0.08806591  0.68567044  0.81368455  1
  O2-  O393  1  0.08980169  0.91805855  0.13383862  1
  O2-  O394  1  0.06464513  0.89251024  0.47126734  1
  O2-  O395  1  0.08864465  0.93420785  0.80971628  1
  O2-  O396  1  0.31609832  0.15890836  0.14488375  1
  O2-  O397  1  0.31725828  0.16473149  0.49263519  1
  O2-  O398  1  0.34235627  0.15448431  0.81924604  1
  O2-  O399  1  0.33938597  0.44703098  0.14195594  1
  O2-  O400  1  0.37731904  0.45958219  0.48063554  1
  O2-  O401  1  0.35287627  0.41987518  0.82004639  1
  O2-  O402  1  0.36308993  0.65521774  0.14133034  1
  O2-  O403  1  0.28078329  0.65583784  0.46928920  1
  O2-  O404  1  0.32770428  0.66841475  0.80261437  1
  O2-  O405  1  0.32968903  0.90805988  0.14571759  1
  O2-  O406  1  0.32114470  0.91477193  0.46979179  1
  O2-  O407  1  0.40945375  0.94233731  0.79892694  1
  O2-  O408  1  0.55401726  0.19290845  0.13011139  1
  O2-  O409  1  0.57968169  0.16750169  0.46554800  1
  O2-  O410  1  0.59475183  0.17487134  0.80764965  1
  O2-  O411  1  0.53069233  0.44806158  0.12806071  1
  O2-  O412  1  0.54891118  0.39367860  0.47925936  1
  O2-  O413  1  0.59268777  0.41582390  0.81287032  1
  O2-  O414  1  0.59604734  0.69554296  0.13197505  1
  O2-  O415  1  0.61340881  0.70912256  0.48222452  1
  O2-  O416  1  0.56966419  0.65731748  0.80761292  1
  O2-  O417  1  0.56578681  0.90120225  0.12822426  1
  O2-  O418  1  0.58026842  0.92013245  0.47906719  1
  O2-  O419  1  0.58464829  0.92396172  0.78567238  1
  O2-  O420  1  0.86442855  0.15805811  0.14588896  1
  O2-  O421  1  0.84065332  0.15951160  0.47191297  1
  O2-  O422  1  0.84101906  0.17278255  0.81662590  1
  O2-  O423  1  0.83116358  0.40534384  0.15316247  1
  O2-  O424  1  0.81451559  0.40552007  0.48920114  1
  O2-  O425  1  0.91627659  0.45260950  0.78292567  1
  O2-  O426  1  0.82331057  0.65058782  0.15291295  1
  O2-  O427  1  0.80856975  0.64699698  0.46846572  1
  O2-  O428  1  0.82471627  0.66009482  0.80352863  1
  O2-  O429  1  0.86377737  0.90928907  0.12472140  1
  O2-  O430  1  0.84937039  0.93652522  0.47564184  1
  O2-  O431  1  0.79033628  0.81485135  0.79199674  1
  O2-  O432  1  0.15632028  0.06812209  0.18107738  1
  O2-  O433  1  0.23030375  0.12435973  0.52084096  1
  O2-  O434  1  0.17604691  0.08199696  0.87253742  1
  O2-  O435  1  0.18070182  0.37545635  0.18856747  1
  O2-  O436  1  0.22147808  0.37031538  0.54250259  1
  O2-  O437  1  0.17328267  0.32578842  0.85326225  1
  O2-  O438  1  0.15374542  0.55926546  0.17321712  1
  O2-  O439  1  0.18594321  0.49991499  0.54518253  1
  O2-  O440  1  0.16523205  0.59652106  0.84342446  1
  O2-  O441  1  0.15956439  0.82522124  0.17717434  1
  O2-  O442  1  0.15762359  0.82154339  0.51835821  1
  O2-  O443  1  0.17026363  0.85307318  0.86008318  1
  O2-  O444  1  0.39884963  0.07833767  0.18641399  1
  O2-  O445  1  0.40706897  0.08454543  0.51934445  1
  O2-  O446  1  0.43507927  0.08532185  0.85599963  1
  O2-  O447  1  0.38634183  0.32462346  0.18650384  1
  O2-  O448  1  0.40339236  0.32008867  0.54480152  1
  O2-  O449  1  0.42515288  0.32635954  0.85498722  1
  O2-  O450  1  0.42288605  0.62682378  0.16241536  1
  O2-  O451  1  0.44252823  0.62215377  0.50759049  1
  O2-  O452  1  0.42314323  0.57490908  0.85144372  1
  O2-  O453  1  0.41131224  0.82087939  0.18834612  1
  O2-  O454  1  0.40132997  0.81491089  0.48159946  1
  O2-  O455  1  0.33621991  0.80566861  0.86495903  1
  O2-  O456  1  0.74755590  0.02275090  0.21796034  1
  O2-  O457  1  0.66260447  0.08995388  0.50859369  1
  O2-  O458  1  0.66829620  0.07958411  0.84262961  1
  O2-  O459  1  0.72390543  0.32767198  0.25762502  1
  O2-  O460  1  0.65510427  0.32540270  0.51664240  1
  O2-  O461  1  0.68838248  0.33771437  0.85597502  1
  O2-  O462  1  0.65450667  0.59550722  0.18528048  1
  O2-  O463  1  0.67214063  0.61138193  0.52191296  1
  O2-  O464  1  0.66072376  0.58519126  0.84683318  1
  O2-  O465  1  0.65414614  0.84850192  0.19383502  1
  O2-  O466  1  0.69096095  0.87198312  0.52895010  1
  O2-  O467  1  0.65416682  0.82147739  0.83044163  1
  O2-  O468  1  0.95785984  0.08551210  0.17425419  1
  O2-  O469  1  0.95223262  0.11092378  0.51787282  1
  O2-  O470  1  0.93983997  0.10951521  0.88430050  1
  O2-  O471  1  0.90707954  0.32075564  0.19019656  1
  O2-  O472  1  0.89228470  0.32264876  0.51465213  1
  O2-  O473  1  0.84469960  0.31900677  0.86212270  1
  O2-  O474  1  0.91253516  0.57108555  0.18440895  1
  O2-  O475  1  0.89229844  0.56978520  0.50922000  1
  O2-  O476  1  0.92431416  0.58942835  0.85214486  1
  O2-  O477  1  0.92709897  0.82053054  0.18789357  1
  O2-  O478  1  0.90092146  0.81515846  0.49522168  1
  O2-  O479  1  0.92586209  0.85600290  0.86606822  1
  O2-  O480  1  0.14976194  0.05781229  0.29289130  1
  O2-  O481  1  0.20209519  0.10543048  0.65165597  1
  O2-  O482  1  0.16423394  0.03954311  0.99299712  1
  O2-  O483  1  0.20418486  0.35848343  0.31379129  1
  O2-  O484  1  0.18735558  0.30924690  0.65766227  1
  O2-  O485  1  0.16589969  0.36057259  0.97620824  1
  O2-  O486  1  0.16334442  0.57400239  0.29885027  1
  O2-  O487  1  0.16553898  0.55880537  0.64305344  1
  O2-  O488  1  0.17034972  0.60058928  0.97110180  1
  O2-  O489  1  0.15458663  0.82305584  0.30239733  1
  O2-  O490  1  0.17226834  0.84854171  0.63983524  1
  O2-  O491  1  0.17009886  0.84891849  0.97786012  1
  O2-  O492  1  0.38484937  0.06468441  0.31098696  1
  O2-  O493  1  0.42093809  0.08549347  0.64324130  1
  O2-  O494  1  0.42139461  0.07547427  0.97915968  1
  O2-  O495  1  0.43045613  0.29168418  0.29771797  1
  O2-  O496  1  0.42803361  0.32611801  0.65341229  1
  O2-  O497  1  0.40285249  0.31427005  0.98031148  1
  O2-  O498  1  0.41999163  0.60019142  0.33175760  1
  O2-  O499  1  0.42773718  0.63581495  0.63329545  1
  O2-  O500  1  0.42395690  0.57991778  0.96807440  1
  O2-  O501  1  0.41145406  0.83249944  0.31198667  1
  O2-  O502  1  0.37706876  0.83322103  0.63546932  1
  O2-  O503  1  0.40477778  0.82253833  0.97935403  1
  O2-  O504  1  0.67980406  0.07262970  0.31411891  1
  O2-  O505  1  0.68901530  0.12373072  0.62306782  1
  O2-  O506  1  0.65459716  0.06269912  0.96872761  1
  O2-  O507  1  0.69713652  0.40690093  0.39424176  1
  O2-  O508  1  0.66524167  0.33685134  0.64327091  1
  O2-  O509  1  0.67180038  0.32188757  0.97899000  1
  O2-  O510  1  0.63752575  0.58085351  0.31020354  1
  O2-  O511  1  0.65343433  0.58578277  0.63841064  1
  O2-  O512  1  0.67147641  0.60073793  0.97135224  1
  O2-  O513  1  0.65906646  0.83718643  0.31574339  1
  O2-  O514  1  0.67637888  0.85498972  0.66924999  1
  O2-  O515  1  0.66261792  0.83223489  0.95289349  1
  O2-  O516  1  0.87717355  0.06199016  0.29382013  1
  O2-  O517  1  0.97319827  0.15628297  0.63887783  1
  O2-  O518  1  0.88609562  -0.04988384  0.92449285  1
  O2-  O519  1  0.92880715  0.32631904  0.31693048  1
  O2-  O520  1  0.90821721  0.32360556  0.63186381  1
  O2-  O521  1  0.92066900  0.35579789  0.98179797  1
  O2-  O522  1  0.92219442  0.57844983  0.30521760  1
  O2-  O523  1  0.90368827  0.57963527  0.63399491  1
  O2-  O524  1  0.91421420  0.58897030  0.97982210  1
  O2-  O525  1  0.90443032  0.82798740  0.30846978  1
  O2-  O526  1  0.83703448  0.78528236  0.60947710  1
  O2-  O527  1  0.89387179  0.83845395  1.02548172  1
  O2-  O528  1  0.03793879  0.20807104  0.01537800  1
  O2-  O529  1  0.12305138  0.18459831  0.35285516  1
  O2-  O530  1  0.04331422  0.09363402  0.71072407  1
  O2-  O531  1  0.08870726  0.44630560  0.02248072  1
  O2-  O532  1  0.09615007  0.41615192  0.35169969  1
  O2-  O533  1  0.05978652  0.34045684  0.68850655  1
  O2-  O534  1  0.08500383  0.68006206  0.01590050  1
  O2-  O535  1  0.08334948  0.65956500  0.34633728  1
  O2-  O536  1  0.04484580  0.70164569  0.69308308  1
  O2-  O537  1  0.11112195  0.94918574  0.01091395  1
  O2-  O538  1  0.07001597  0.90112742  0.34573048  1
  O2-  O539  1  0.10690757  0.94900823  0.68442367  1
  O2-  O540  1  0.32915428  0.15157425  0.02041065  1
  O2-  O541  1  0.31697619  0.16386396  0.36229501  1
  O2-  O542  1  0.34444532  0.14809484  0.70251550  1
  O2-  O543  1  0.33604109  0.42201506  0.01878793  1
  O2-  O544  1  0.36652252  0.45158893  0.36693979  1
  O2-  O545  1  0.33650830  0.39013717  0.70048753  1
  O2-  O546  1  0.33274641  0.65642602  0.01934762  1
  O2-  O547  1  0.32139975  0.66272850  0.35031657  1
  O2-  O548  1  0.30957327  0.67351931  0.68573994  1
  O2-  O549  1  0.33471250  0.91463193  0.02100501  1
  O2-  O550  1  0.31850548  0.90576294  0.34697426  1
  O2-  O551  1  0.33308909  0.93169730  0.68656095  1
  O2-  O552  1  0.58229661  0.15522846  0.02066922  1
  O2-  O553  1  0.62088881  0.18385667  0.31118909  1
  O2-  O554  1  0.58232436  0.16902275  0.68402783  1
  O2-  O555  1  0.57842199  0.34017401  0.07975895  1
  O2-  O556  1  0.51324377  0.43496022  0.36773111  1
  O2-  O557  1  0.58776144  0.42076778  0.68678463  1
  O2-  O558  1  0.58823442  0.67724547  0.00962925  1
  O2-  O559  1  0.57957687  0.67947287  0.36490412  1
  O2-  O560  1  0.58263156  0.67872331  0.68214209  1
  O2-  O561  1  0.57864141  0.90170950  0.00031007  1
  O2-  O562  1  0.57520342  0.91741041  0.35765196  1
  O2-  O563  1  0.54399089  0.91991653  0.66820175  1
  O2-  O564  1  0.88977631  0.20074976  0.02761095  1
  O2-  O565  1  0.83077216  0.14642380  0.35561865  1
  O2-  O566  1  0.84064205  0.17049259  0.68887083  1
  O2-  O567  1  0.82697201  0.42040437  0.02521494  1
  O2-  O568  1  0.84296394  0.41172402  0.34441755  1
  O2-  O569  1  0.83436747  0.41447006  0.67469460  1
  O2-  O570  1  0.83202590  0.67145858  0.03117531  1
  O2-  O571  1  0.81669142  0.65379781  0.29965509  1
  O2-  O572  1  0.81228611  0.64825313  0.68025388  1
  O2-  O573  1  0.74517763  0.86980674  -0.01508730  1
  O2-  O574  1  0.82688662  0.91652236  0.34978675  1
  O2-  O575  1  0.84730763  0.90873655  0.68405844  1
