# generated using pymatgen
data_H2O
_symmetry_space_group_name_H-M   'P 1'
_cell_length_a   17.99450353
_cell_length_b   17.99545498
_cell_length_c   21.99508972
_cell_angle_alpha   89.97822822
_cell_angle_beta   90.00062170
_cell_angle_gamma   120.00785699
_symmetry_Int_Tables_number   1
_chemical_formula_structural   H2O
_chemical_formula_sum   'H384 O192'
_cell_volume   6167.71986259
_cell_formula_units_Z   192
loop_
 _symmetry_equiv_pos_site_id
 _symmetry_equiv_pos_as_xyz
  1  'x, y, z'
loop_
 _atom_type_symbol
 _atom_type_oxidation_number
  H+  1.0
  O2-  -2.0
loop_
 _atom_site_type_symbol
 _atom_site_label
 _atom_site_symmetry_multiplicity
 _atom_site_fract_x
 _atom_site_fract_y
 _atom_site_fract_z
 _atom_site_occupancy
  H+  H0  1  0.63427720  0.49262600  0.14698523  1
  H+  H1  1  0.23403998  0.62208252  0.65467198  1
  H+  H2  1  0.62887414  0.50329710  0.82401074  1
  H+  H3  1  0.64714837  0.93065980  0.70116518  1
  H+  H4  1  0.41532954  0.05067663  0.89746711  1
  H+  H5  1  0.36890720  0.84560741  0.50133090  1
  H+  H6  1  0.86048993  0.97254239  0.82406747  1
  H+  H7  1  0.72175979  0.86411037  0.17575065  1
  H+  H8  1  0.26780597  0.37320779  0.33936544  1
  H+  H9  1  0.84706270  0.83910519  0.49780295  1
  H+  H10  1  0.63333644  0.35638971  0.51490369  1
  H+  H11  1  0.63346544  0.86335096  0.16458058  1
  H+  H12  1  0.61769492  0.47712846  0.32013407  1
  H+  H13  1  0.83975835  0.17317211  0.90338035  1
  H+  H14  1  0.33921109  0.46462466  0.32562994  1
  H+  H15  1  0.07695774  0.16423724  0.77742145  1
  H+  H16  1  0.58333517  0.08591267  0.30872638  1
  H+  H17  1  0.37128990  0.48838500  0.48801506  1
  H+  H18  1  0.88883262  0.10860988  0.98407203  1
  H+  H19  1  0.83456091  0.91650159  0.22632084  1
  H+  H20  1  0.68878457  0.10478355  0.49577640  1
  H+  H21  1  0.88637885  0.27510319  0.65521756  1
  H+  H22  1  0.91830771  -0.00118855  0.51121160  1
  H+  H23  1  0.35782691  -0.03339357  0.15519112  1
  H+  H24  1  0.40012649  0.15523251  0.30131496  1
  H+  H25  1  0.35692286  0.87286375  0.15723917  1
  H+  H26  1  0.52088064  0.37456094  0.50037904  1
  H+  H27  1  0.61543848  0.85526619  0.83201045  1
  H+  H28  1  0.38427715  0.92656717  -0.00101801  1
  H+  H29  1  0.28005952  0.15911246  0.99441526  1
  H+  H30  1  0.40398101  0.84331539  0.30679862  1
  H+  H31  1  0.98481783  0.83500669  1.00517003  1
  H+  H32  1  0.98422038  0.60646949  0.35663222  1
  H+  H33  1  0.62912655  0.35169619  0.66139744  1
  H+  H34  1  0.11460012  -0.02360524  0.16692582  1
  H+  H35  1  0.61457298  0.76959178  0.52424646  1
  H+  H36  1  0.12608067  0.10399715  0.32551307  1
  H+  H37  1  0.70982460  0.60607208  0.50066141  1
  H+  H38  1  0.39274021  1.01245108  0.34018336  1
  H+  H39  1  0.38635106  0.77402221  0.15084844  1
  H+  H40  1  0.88539131  0.15634416  0.14840261  1
  H+  H41  1  0.61254289  0.65220862  0.84652617  1
  H+  H42  1  0.52804670  0.26654229  0.79704692  1
  H+  H43  1  0.87448897  0.72145909  0.33147792  1
  H+  H44  1  0.51185002  0.64588328  0.00705574  1
  H+  H45  1  1.01687676  0.88078330  0.83500161  1
  H+  H46  1  0.36924046  0.61375594  1.00244725  1
  H+  H47  1  0.96447646  0.85063235  0.66579886  1
  H+  H48  1  0.97706042  0.11177061  0.84000498  1
  H+  H49  1  0.50380323  0.63020900  0.50819300  1
  H+  H50  1  0.52831421  0.16946477  0.31289726  1
  H+  H51  1  0.87989451  0.85831960  0.83418758  1
  H+  H52  1  0.85881383  0.72508325  0.82537453  1
  H+  H53  1  0.62140492  0.59874294  0.51763347  1
  H+  H54  1  0.91343523  0.29262957  0.16616697  1
  H+  H55  1  0.59972276  0.13313928  0.66728501  1
  H+  H56  1  0.10490087  0.74115052  0.32629723  1
  H+  H57  1  0.60166935  0.88210828  0.49697060  1
  H+  H58  1  0.27638274  0.12260437  0.83713206  1
  H+  H59  1  0.46340526  0.59652918  0.33096620  1
  H+  H60  1  0.63719955  0.02813034  0.15973263  1
  H+  H61  1  0.36119975  0.23699590  0.33785363  1
  H+  H62  1  0.38091814  0.02184143  0.37087136  1
  H+  H63  1  0.85896090  0.72460383  0.49358690  1
  H+  H64  1  0.72229216  0.35767982  0.51185404  1
  H+  H65  1  0.13909944  0.49210080  0.15757094  1
  H+  H66  1  0.38517761  0.62826342  0.84166485  1
  H+  H67  1  0.39708179  0.62080210  0.66289934  1
  H+  H68  1  0.85442513  0.38180335  0.67527210  1
  H+  H69  1  0.87161718  0.60553209  0.83481532  1
  H+  H70  1  0.89998395  0.28946785  0.84783565  1
  H+  H71  1  0.60222897  0.34741855  0.83103538  1
  H+  H72  1  0.35540414  0.22740630  0.49420178  1
  H+  H73  1  0.14780537  0.65648559  0.45107732  1
  H+  H74  1  0.85366954  0.47126484  0.48192638  1
  H+  H75  1  0.27292970  0.83235524  0.34561911  1
  H+  H76  1  0.96024082  0.60540203  0.84318264  1
  H+  H77  1  0.11153690  -0.02627390  0.49397742  1
  H+  H78  1  0.33075288  0.16929082  0.43305981  1
  H+  H79  1  0.59956029  0.73390080  1.00115510  1
  H+  H80  1  0.13180912  0.39795888  0.15763452  1
  H+  H81  1  0.48165163  0.63239626  0.30765680  1
  H+  H82  1  0.14632461  0.53154498  0.31853141  1
  H+  H83  1  0.77957200  0.14699437  -0.00727644  1
  H+  H84  1  0.46420461  0.33823785  0.83714415  1
  H+  H85  1  0.46805848  0.86987382  1.00045997  1
  H+  H86  1  0.08255440  0.91225443  0.39865620  1
  H+  H87  1  0.75321355  0.11865427  0.32031444  1
  H+  H88  1  0.50979495  0.87693849  0.49115613  1
  H+  H89  1  0.72678467  0.87720454  0.66809635  1
  H+  H90  1  0.62616908  0.59744169  0.68257125  1
  H+  H91  1  -0.00120889  0.80735031  0.02154218  1
  H+  H92  1  0.20181477  0.67710249  0.14131609  1
  H+  H93  1  0.61234124  -0.01708510  0.99650822  1
  H+  H94  1  1.02006910  0.13177238  1.00395369  1
  H+  H95  1  0.26824403  0.88711679  0.68024726  1
  H+  H96  1  0.09679718  0.87288486  0.33675569  1
  H+  H97  1  0.31876733  0.13678398  0.07443375  1
  H+  H98  1  0.34019079  0.53760805  0.55051184  1
  H+  H99  1  0.25449816  0.63902907  0.01709338  1
  H+  H100  1  0.81760889  0.72743449  0.98231185  1
  H+  H101  1  0.18716513  0.34960899  0.55953525  1
  H+  H102  1  0.36322367  -0.01750144  0.67992956  1
  H+  H103  1  0.22320045  1.00824965  0.06471809  1
  H+  H104  1  0.65798721  0.82428665  0.26425803  1
  H+  H105  1  0.51676061  0.37755085  0.67614373  1
  H+  H106  1  0.61448099  0.13223046  0.16492053  1
  H+  H107  1  0.09930189  0.22937010  0.83267931  1
  H+  H108  1  0.40810668  0.82762972  0.59628448  1
  H+  H109  1  1.00060693  0.38162835  0.17284720  1
  H+  H110  1  0.83136850  0.40797876  0.39462621  1
  H+  H111  1  0.63477950  0.73308266  0.35136138  1
  H+  H112  1  0.87327752  0.39225086  1.00621587  1
  H+  H113  1  0.04177436  0.74586975  0.28052307  1
  H+  H114  1  0.60637227  0.89087010  0.99224066  1
  H+  H115  1  0.72958384  0.37603053  0.84947154  1
  H+  H116  1  0.03232954  0.40173846  0.82292074  1
  H+  H117  1  0.51755543  0.63938342  0.83592066  1
  H+  H118  1  0.31774479  0.73371321  0.36761896  1
  H+  H119  1  0.58422476  0.93408533  0.74968809  1
  H+  H120  1  0.10650881  0.12632772  0.68713469  1
  H+  H121  1  0.11934608  0.23107767  0.15658430  1
  H+  H122  1  0.52750421  0.62376527  0.68029074  1
  H+  H123  1  0.51210370  0.11791889  0.82189973  1
  H+  H124  1  0.89822871  0.52355567  0.33689581  1
  H+  H125  1  0.34269581  0.85329355  0.81654620  1
  H+  H126  1  0.12946462  0.64776826  0.67864612  1
  H+  H127  1  0.10873429  0.88316764  0.68515971  1
  H+  H128  1  0.77242110  0.14734889  0.66160429  1
  H+  H129  1  0.06279001  0.65734288  0.90368025  1
  H+  H130  1  0.37663457  0.76014801  0.50207737  1
  H+  H131  1  0.13464092  0.11392330  0.99448748  1
  H+  H132  1  0.60989810  0.00951394  0.49913898  1
  H+  H133  1  0.64074686  0.26654616  -0.00319421  1
  H+  H134  1  0.13959101  0.35391306  0.99681960  1
  H+  H135  1  0.18027053  0.84366231  0.94606011  1
  H+  H136  1  0.18151407  0.59505272  0.25799762  1
  H+  H137  1  0.64121499  0.03856487  0.66947893  1
  H+  H138  1  0.52709096  0.86763312  0.33353820  1
  H+  H139  1  0.75029306  0.15057332  0.34084980  1
  H+  H140  1  0.63299284  0.40388047  0.14202043  1
  H+  H141  1  0.88236853  0.02034339  0.66457028  1
  H+  H142  1  0.24631859  0.38209556  0.49818795  1
  H+  H143  1  0.57580895  0.90302545  0.39791421  1
  H+  H144  1  0.14224112  0.52967721  0.83977144  1
  H+  H145  1  0.09065244  0.18101013  0.40088418  1
  H+  H146  1  0.85992614  0.38539671  0.48958812  1
  H+  H147  1  0.77478026  0.76739240  0.46322654  1
  H+  H148  1  0.13540915  0.77450478  0.85763127  1
  H+  H149  1  0.61640738  0.72755934  0.15412291  1
  H+  H150  1  0.36329478  0.47956464  0.82886360  1
  H+  H151  1  0.91921272  0.63344474  0.14611690  1
  H+  H152  1  0.10181054  0.54108826  0.99521743  1
  H+  H153  1  0.01430333  0.19021755  0.37037833  1
  H+  H154  1  0.85739117  0.14032928  0.67058651  1
  H+  H155  1  0.37161538  0.48310649  0.67342921  1
  H+  H156  1  0.52998319  0.88952516  0.14379277  1
  H+  H157  1  0.36114061  -0.04498896  0.82713606  1
  H+  H158  1  0.86822552  0.72611892  0.15039359  1
  H+  H159  1  0.97717165  0.86247499  0.32379977  1
  H+  H160  1  0.36373794  0.39008763  0.82767748  1
  H+  H161  1  0.89307032  0.86192398  0.17234075  1
  H+  H162  1  0.48927371  0.62516852  0.16330184  1
  H+  H163  1  0.38469181  0.36214657  0.66274796  1
  H+  H164  1  0.62475853  0.48421252  0.85502545  1
  H+  H165  1  0.94365764  0.67205878  0.61857655  1
  H+  H166  1  0.87781572  0.63398323  0.34300537  1
  H+  H167  1  0.35811690  0.13496188  0.68070062  1
  H+  H168  1  0.18192826  0.88916464  0.00939825  1
  H+  H169  1  0.38416699  0.36437068  0.50648082  1
  H+  H170  1  0.37925553  0.08761081  0.84396413  1
  H+  H171  1  0.39098495  0.36916344  0.32622494  1
  H+  H172  1  0.99055691  0.37189542  0.99126785  1
  H+  H173  1  0.46140232  0.09194564  0.15070585  1
  H+  H174  1  0.36584587  0.08020578  0.14268053  1
  H+  H175  1  0.22601948  0.10453254  0.51179080  1
  H+  H176  1  0.63169355  0.50349246  0.68153303  1
  H+  H177  1  0.39957510  0.75623006  0.30560428  1
  H+  H178  1  0.89266562  0.14026266  0.34519644  1
  H+  H179  1  0.22957578  0.35757162  0.99357613  1
  H+  H180  1  0.34582566  -0.01809701  0.49565294  1
  H+  H181  1  0.13458244  0.63665974  0.34464387  1
  H+  H182  1  0.92904255  0.55185497  0.15070842  1
  H+  H183  1  0.15189927  0.47305165  0.01082748  1
  H+  H184  1  0.20436673  0.83989876  0.51627706  1
  H+  H185  1  0.65972664  0.59745839  0.92143844  1
  H+  H186  1  0.91982374  0.28277720  0.32529342  1
  H+  H187  1  0.12703404  0.27044130  0.32258702  1
  H+  H188  1  0.26931862  0.13397723  0.68243212  1
  H+  H189  1  0.64127469  0.11703292  0.99183913  1
  H+  H190  1  0.46625110  0.83281100  0.82282854  1
  H+  H191  1  0.76840696  0.88704378  0.82036529  1
  H+  H192  1  0.50292555  0.41399286  0.17553243  1
  H+  H193  1  0.22297371  0.86050975  0.84359187  1
  H+  H194  1  0.80289855  0.40903679  0.15643477  1
  H+  H195  1  0.09438941  0.42917220  0.56197860  1
  H+  H196  1  0.53890094  0.92007610  0.85192673  1
  H+  H197  1  0.87225841  0.23696801  0.99167852  1
  H+  H198  1  0.59917239  0.22226691  0.66870669  1
  H+  H199  1  0.66371510  0.62284825  0.32774428  1
  H+  H200  1  1.02815210  0.88385738  0.16094199  1
  H+  H201  1  0.17060078  0.83722356  0.61732074  1
  H+  H202  1  0.86968719  0.38550431  0.33590646  1
  H+  H203  1  0.85588218  0.46753333  0.82391009  1
  H+  H204  1  0.23433610  0.62467792  0.49979536  1
  H+  H205  1  0.60507425  0.44681000  0.05157441  1
  H+  H206  1  0.16179299  0.25444438  0.48406086  1
  H+  H207  1  0.14175489  0.54094555  0.50448316  1
  H+  H208  1  -0.01483121  0.11795339  0.16945229  1
  H+  H209  1  0.67410180  0.35255509  0.91175404  1
  H+  H210  1  0.89019594  0.40529227  0.16089678  1
  H+  H211  1  0.56594382  0.17955068  0.19280008  1
  H+  H212  1  0.37494990  0.79050101  1.01347410  1
  H+  H213  1  0.38686020  0.85953431  0.65773559  1
  H+  H214  1  0.58822570  -0.00073590  0.31661852  1
  H+  H215  1  0.36564868  0.72915411  0.66662316  1
  H+  H216  1  0.96509641  0.08238163  0.32426815  1
  H+  H217  1  -0.02239282  0.36802563  0.51271412  1
  H+  H218  1  0.60736125  0.46354761  0.49928795  1
  H+  H219  1  0.81747768  0.81792535  -0.02126825  1
  H+  H220  1  0.27363560  0.14493714  0.33747817  1
  H+  H221  1  0.87538510  -0.00426704  0.32718089  1
  H+  H222  1  0.76364329  0.86585212  0.33756872  1
  H+  H223  1  0.05056074  0.66091520  0.11519744  1
  H+  H224  1  0.08990197  0.42741316  0.72650609  1
  H+  H225  1  0.14117970  0.36528816  0.31959717  1
  H+  H226  1  0.78052003  0.63696889  0.15499339  1
  H+  H227  1  0.11693478  0.48811455  0.66829432  1
  H+  H228  1  0.86001980  0.88003415  0.66905759  1
  H+  H229  1  0.90472799  1.01331505  0.48337748  1
  H+  H230  1  0.65073070  0.28387998  0.30678571  1
  H+  H231  1  0.88460754  0.10606784  0.84644497  1
  H+  H232  1  0.23538250  0.36975763  0.16858615  1
  H+  H233  1  0.97129586  0.84114335  0.51562694  1
  H+  H234  1  0.13313138  0.01584853  0.67031456  1
  H+  H235  1  0.85397235  0.59548537  0.48196216  1
  H+  H236  1  0.63395897  0.12216083  0.82678104  1
  H+  H237  1  1.10973642  0.88493208  0.49709533  1
  H+  H238  1  0.85632019  0.97394589  -0.00308155  1
  H+  H239  1  0.66449563  0.29450753  0.15544662  1
  H+  H240  1  0.10660091  0.88110799  0.83589561  1
  H+  H241  1  0.76255107  0.37330572  0.67825336  1
  H+  H242  1  0.03244069  0.39583398  0.33092096  1
  H+  H243  1  0.22654356  0.36934573  0.83901164  1
  H+  H244  1  0.96345714  0.17838395  0.53110928  1
  H+  H245  1  0.33093277  0.58034100  0.29961638  1
  H+  H246  1  0.97563411  0.36708753  0.65726565  1
  H+  H247  1  0.36925593  0.39939182  0.00245436  1
  H+  H248  1  0.76913182  0.64257317  0.83605892  1
  H+  H249  1  0.37314205  0.26265220  0.84695288  1
  H+  H250  1  0.14569515  0.86879700  0.17483676  1
  H+  H251  1  0.37493362  0.52818189  0.99542765  1
  H+  H252  1  0.11050543  0.22106014  0.00392218  1
  H+  H253  1  0.39641733  0.26783509  0.11034361  1
  H+  H254  1  0.13276049  0.01941836  0.32655789  1
  H+  H255  1  0.38061826  0.27074495  0.66470694  1
  H+  H256  1  0.37070207  0.11457132  0.51358782  1
  H+  H257  1  0.13845287  0.11542775  0.16980694  1
  H+  H258  1  0.48862729  0.39018130  0.98495232  1
  H+  H259  1  0.63669976  0.85728183  0.32652695  1
  H+  H260  1  0.74518821  0.61330966  0.31870121  1
  H+  H261  1  0.46947482  0.10788137  0.66468783  1
  H+  H262  1  0.84800004  0.71655054  0.67451225  1
  H+  H263  1  0.62733731  0.77398845  0.83244956  1
  H+  H264  1  0.16052497  0.81967506  0.23070958  1
  H+  H265  1  0.39956616  0.29246780  0.13875863  1
  H+  H266  1  0.92666713  0.61036373  0.52612695  1
  H+  H267  1  0.72730284  0.60234284  0.67648160  1
  H+  H268  1  0.70715691  0.84514746  0.51381402  1
  H+  H269  1  0.13537411  0.75884262  1.01904858  1
  H+  H270  1  0.36104592  0.49270264  0.14977076  1
  H+  H271  1  0.72925026  0.35500619  1.00122003  1
  H+  H272  1  1.01824892  0.12678218  0.69038294  1
  H+  H273  1  0.14892591  0.77786334  0.67737311  1
  H+  H274  1  0.14789490  0.37964133  0.65104087  1
  H+  H275  1  0.25812724  0.87225208  0.16774875  1
  H+  H276  1  0.23522518  0.37710439  0.65307577  1
  H+  H277  1  0.26506337  0.64322628  0.33748650  1
  H+  H278  1  0.61731653  0.38944830  0.31522084  1
  H+  H279  1  0.83629005  0.61396321  0.00047313  1
  H+  H280  1  0.14259923  1.01854317  0.84371850  1
  H+  H281  1  0.16079372  0.04023862  1.00078633  1
  H+  H282  1  0.25922730  0.10165305  0.13643660  1
  H+  H283  1  0.82977917  0.13612083  0.50697898  1
  H+  H284  1  0.10878336  0.76751241  0.53546938  1
  H+  H285  1  0.49790065  0.08204313  0.43196879  1
  H+  H286  1  0.38067861  0.41876772  0.16058444  1
  H+  H287  1  0.36198019  0.62731704  0.49852558  1
  H+  H288  1  0.66431587  0.09015299  0.92786734  1
  H+  H289  1  0.86036519  0.18694598  0.08815112  1
  H+  H290  1  0.40923423  0.64003819  0.15887511  1
  H+  H291  1  0.88484092  0.81174140  0.89365759  1
  H+  H292  1  0.57547887  0.11525754  0.47690654  1
  H+  H293  1  0.68759050  0.34947197  0.21624968  1
  H+  H294  1  0.65470479  0.83620085  0.92030158  1
  H+  H295  1  0.64604926  0.07334785  0.60006642  1
  H+  H296  1  0.07401302  0.91060982  0.74217371  1
  H+  H297  1  0.92081554  0.08627756  0.22674759  1
  H+  H298  1  0.92206727  0.82658107  0.22739809  1
  H+  H299  1  0.85040003  0.42410806  0.06768506  1
  H+  H300  1  0.16888255  0.34023900  0.89902863  1
  H+  H301  1  0.82546886  0.40340657  0.76670794  1
  H+  H302  1  0.87103431  0.51663370  -0.00740461  1
  H+  H303  1  0.83493195  0.91251303  0.72944210  1
  H+  H304  1  0.77803980  0.15098607  0.84756304  1
  H+  H305  1  0.65964671  0.05200248  0.80908350  1
  H+  H306  1  0.40459113  0.32800010  0.56788310  1
  H+  H307  1  0.08415268  0.16785961  0.09854912  1
  H+  H308  1  0.12017204  0.39964295  0.82453837  1
  H+  H309  1  0.91319107  0.33569068  0.56869045  1
  H+  H310  1  0.42721170  0.59317338  0.60336281  1
  H+  H311  1  0.89643121  0.18566836  0.40894968  1
  H+  H312  1  0.16945687  0.58723346  0.90145829  1
  H+  H313  1  0.42282825  0.82131391  0.21395642  1
  H+  H314  1  0.14441595  0.11209999  0.51124320  1
  H+  H315  1  0.44253422  0.38188837  0.23461260  1
  H+  H316  1  0.93510462  0.35328746  0.92991393  1
  H+  H317  1  0.28957169  0.65083844  0.08321576  1
  H+  H318  1  0.74000339  0.37154391  0.31236523  1
  H+  H319  1  0.65651614  0.85401805  0.61785159  1
  H+  H320  1  0.27647481  0.93878286  0.44521870  1
  H+  H321  1  0.40177057  0.07520378  0.60878658  1
  H+  H322  1  0.59076975  0.92050896  0.08596731  1
  H+  H323  1  0.13166845  0.63878503  1.00016561  1
  H+  H324  1  0.62954599  0.06068457  0.22462671  1
  H+  H325  1  0.66252774  0.32459927  0.60132912  1
  H+  H326  1  0.40415679  0.59307553  0.90285903  1
  H+  H327  1  0.16376304  0.07515310  0.61095672  1
  H+  H328  1  1.03989644  0.21709185  0.57816623  1
  H+  H329  1  0.91154904  0.81579171  0.60233093  1
  H+  H330  1  0.27457214  0.65947132  0.82806728  1
  H+  H331  1  0.10943773  0.63395525  0.85367117  1
  H+  H332  1  0.81708747  0.65153175  0.06193519  1
  H+  H333  1  0.12733899  0.39648642  0.50885611  1
  H+  H334  1  0.09337121  0.42899559  0.38916126  1
  H+  H335  1  0.88713617  0.24021452  0.50228510  1
  H+  H336  1  0.57688300  0.66779474  0.45706886  1
  H+  H337  1  0.10437941  0.67218638  0.74183069  1
  H+  H338  1  0.56767946  0.37954151  0.73669567  1
  H+  H339  1  0.95064287  0.73319757  0.56471121  1
  H+  H340  1  0.91818494  0.07285180  0.92785188  1
  H+  H341  1  0.17386588  0.08152407  0.90087216  1
  H+  H342  1  0.56754389  0.15669377  0.76116289  1
  H+  H343  1  0.33514913  0.66285422  0.43536604  1
  H+  H344  1  0.42133185  0.34649708  0.93074322  1
  H+  H345  1  0.67709451  0.59143390  0.22568346  1
  H+  H346  1  0.71277416  0.86655275  0.98070779  1
  H+  H347  1  0.69877646  0.57297343  1.00855939  1
  H+  H348  1  0.33433750  0.67523598  0.72786367  1
  H+  H349  1  0.56180723  0.63854881  0.36071629  1
  H+  H350  1  0.58000226  0.64912628  0.74363666  1
  H+  H351  1  0.33530726  0.42315247  0.06331792  1
  H+  H352  1  0.33627190  0.42242153  0.73206193  1
  H+  H353  1  0.12915809  0.93871628  0.07870479  1
  H+  H354  1  0.88268533  0.85025370  0.32200916  1
  H+  H355  1  0.16862562  0.08670416  0.22956397  1
  H+  H356  1  0.42036789  0.11542274  0.24211428  1
  H+  H357  1  0.17267395  0.60235653  0.59638921  1
  H+  H358  1  0.86927526  0.98329685  0.17408989  1
  H+  H359  1  0.37057393  0.24563942  1.00390288  1
  H+  H360  1  0.36679940  0.55618611  0.24327300  1
  H+  H361  1  0.72765605  0.69481228  0.91322489  1
  H+  H362  1  0.21368159  0.22170249  0.44586140  1
  H+  H363  1  0.81788469  0.87622701  0.39804619  1
  H+  H364  1  0.82413642  0.65899325  0.73452485  1
  H+  H365  1  0.17300514  0.33499909  0.22704619  1
  H+  H366  1  0.58420441  0.67087064  0.09306882  1
  H+  H367  1  0.93464389  0.33869220  0.26350278  1
  H+  H368  1  0.45563626  0.10949572  0.51035289  1
  H+  H369  1  0.82622656  0.67520450  0.42590835  1
  H+  H370  1  0.64578744  0.61955028  0.16551285  1
  H+  H371  1  0.93567055  0.10026827  0.61807054  1
  H+  H372  1  0.57796405  0.18063226  0.37616866  1
  H+  H373  1  0.10177144  0.42507316  0.07150695  1
  H+  H374  1  0.89341611  0.37457860  0.83709020  1
  H+  H375  1  0.47962371  0.36571361  0.32064419  1
  H+  H376  1  0.33718185  0.15934842  0.77865641  1
  H+  H377  1  0.33373578  0.87196412  0.40127070  1
  H+  H378  1  0.57978417  0.15828641  0.06849274  1
  H+  H379  1  0.34349941  0.42698439  0.42738558  1
  H+  H380  1  0.88736462  0.56897190  0.93072785  1
  H+  H381  1  0.33148208  0.91184620  0.74573347  1
  H+  H382  1  0.52523413  0.11500314  0.00753110  1
  H+  H383  1  0.81868820  0.91238176  0.05465212  1
  O2-  O384  1  0.08682090  0.16913326  0.14426174  1
  O2-  O385  1  0.15603012  0.20277828  0.46119887  1
  O2-  O386  1  0.06839377  0.16778917  0.82252599  1
  O2-  O387  1  0.10458653  0.43088809  0.14127527  1
  O2-  O388  1  0.09260719  0.42558036  0.51758460  1
  O2-  O389  1  0.09312862  0.43244915  0.80754499  1
  O2-  O390  1  0.11196586  0.68952567  0.09808134  1
  O2-  O391  1  0.15657080  0.70448307  0.42309366  1
  O2-  O392  1  0.07473960  0.66360144  0.86005775  1
  O2-  O393  1  0.09116908  0.91602048  0.15226574  1
  O2-  O394  1  0.08482813  0.91538431  0.47520886  1
  O2-  O395  1  0.07659975  0.91025286  0.81859769  1
  O2-  O396  1  0.29765718  0.09256324  0.10912306  1
  O2-  O397  1  0.32585455  0.16620962  0.47854360  1
  O2-  O398  1  0.33977021  0.15522780  0.82355438  1
  O2-  O399  1  0.33684843  0.43079308  0.14032681  1
  O2-  O400  1  0.34474641  0.42669072  0.47293725  1
  O2-  O401  1  0.33390985  0.42048985  0.81196683  1
  O2-  O402  1  0.24381301  0.66207783  0.15800807  1
  O2-  O403  1  0.33488573  0.66475602  0.48042922  1
  O2-  O404  1  0.33322158  0.68972419  0.80931331  1
  O2-  O405  1  0.32233756  0.90121530  0.14663436  1
  O2-  O406  1  0.31089495  0.92578971  0.47294398  1
  O2-  O407  1  0.32510230  0.89745158  0.80545967  1
  O2-  O408  1  0.58416833  0.16776232  0.15395651  1
  O2-  O409  1  0.53645552  0.13198543  0.45636366  1
  O2-  O410  1  0.57079356  0.15815710  0.80647698  1
  O2-  O411  1  0.60291971  0.43445208  0.12771230  1
  O2-  O412  1  0.58136550  0.40161791  0.48803376  1
  O2-  O413  1  0.54770447  0.32734394  0.80345718  1
  O2-  O414  1  0.58731872  0.66717474  0.13925029  1
  O2-  O415  1  0.56651559  0.66526339  0.50131363  1
  O2-  O416  1  0.57746953  0.66808193  0.81991283  1
  O2-  O417  1  0.59117535  0.91805473  0.13190754  1
  O2-  O418  1  0.57094211  0.90975638  0.47713203  1
  O2-  O419  1  0.53132067  0.87845356  0.82073796  1
  O2-  O420  1  0.87080273  0.19852156  0.13183997  1
  O2-  O421  1  0.87928190  0.18275136  0.48685154  1
  O2-  O422  1  0.84020954  0.17716891  0.85882730  1
  O2-  O423  1  0.86393166  0.43769269  0.14284225  1
  O2-  O424  1  0.82595825  0.40852791  0.47041538  1
  O2-  O425  1  0.83084361  0.40579107  0.81311559  1
  O2-  O426  1  0.83892287  0.66586031  0.13568420  1
  O2-  O427  1  0.80993818  0.67448673  0.46924408  1
  O2-  O428  1  0.82392632  0.66253674  0.81400656  1
  O2-  O429  1  0.83540669  0.91897585  0.18193214  1
  O2-  O430  1  0.79734936  0.82898602  0.47160077  1
  O2-  O431  1  0.82961660  0.91196055  0.80841346  1
  O2-  O432  1  0.16667145  0.08287941  0.18451920  1
  O2-  O433  1  0.16578497  0.07509531  0.52764386  1
  O2-  O434  1  0.18212277  0.07835306  0.85647713  1
  O2-  O435  1  0.17356372  0.33671004  0.18162348  1
  O2-  O436  1  0.18475883  0.34756442  0.51309388  1
  O2-  O437  1  0.16653316  0.34511236  0.85399644  1
  O2-  O438  1  0.18593753  0.58261723  0.19262781  1
  O2-  O439  1  0.17187331  0.60401574  0.50974409  1
  O2-  O440  1  0.17093881  0.59034418  0.85636820  1
  O2-  O441  1  0.17778270  0.83916324  0.18827666  1
  O2-  O442  1  0.15312545  0.82797788  0.53996413  1
  O2-  O443  1  0.16692213  0.83772304  0.86442095  1
  O2-  O444  1  0.40243574  0.06173867  0.16727956  1
  O2-  O445  1  0.39755970  0.08086548  0.52951994  1
  O2-  O446  1  0.40720096  0.05216799  0.85205439  1
  O2-  O447  1  0.45794374  0.41865938  0.19776746  1
  O2-  O448  1  0.40270676  0.32438224  0.52250387  1
  O2-  O449  1  0.40772267  0.32610010  0.85434301  1
  O2-  O450  1  0.42657158  0.60093889  0.17541520  1
  O2-  O451  1  0.39053433  0.57464151  0.52596259  1
  O2-  O452  1  0.40880920  0.59277697  0.85747210  1
  O2-  O453  1  0.41816206  0.83091694  0.16921528  1
  O2-  O454  1  0.40513919  0.82317636  0.51575092  1
  O2-  O455  1  0.36806537  0.77958910  0.83069110  1
  O2-  O456  1  0.65564831  0.08147331  0.18325697  1
  O2-  O457  1  0.63135081  0.07095647  0.51275395  1
  O2-  O458  1  0.66917875  0.09482642  0.84025621  1
  O2-  O459  1  0.69194772  0.35407131  0.17040202  1
  O2-  O460  1  0.66521137  0.32763780  0.53143887  1
  O2-  O461  1  0.67884032  0.37385947  0.86883634  1
  O2-  O462  1  0.67846616  0.59159311  0.18017108  1
  O2-  O463  1  0.65364671  0.56811117  0.52033533  1
  O2-  O464  1  0.68610680  0.64283761  0.89000802  1
  O2-  O465  1  0.65937067  0.83108241  0.18471299  1
  O2-  O466  1  0.65117114  0.83319601  0.53031274  1
  O2-  O467  1  0.65668468  0.83630914  0.84428480  1
  O2-  O468  1  0.92277129  0.08763495  0.18172684  1
  O2-  O469  1  0.99980060  0.16451906  0.55698333  1
  O2-  O470  1  0.91358714  0.07254842  0.85447817  1
  O2-  O471  1  0.94029782  0.34955981  0.18803247  1
  O2-  O472  1  0.91541333  0.33378942  0.52212574  1
  O2-  O473  1  0.93239349  0.35287060  0.85369256  1
  O2-  O474  1  0.96230666  0.61547805  0.15314688  1
  O2-  O475  1  0.89367509  0.57415016  0.49094579  1
  O2-  O476  1  0.89769135  0.57109030  0.84984623  1
  O2-  O477  1  0.92305850  0.82968225  0.18178738  1
  O2-  O478  1  0.91773678  0.79879154  0.53516355  1
  O2-  O479  1  0.90799612  0.82669412  0.85127309  1
  O2-  O480  1  0.16122466  0.08008311  0.31133011  1
  O2-  O481  1  0.16633681  0.07681581  0.65599507  1
  O2-  O482  1  0.17216200  0.09275722  0.97779896  1
  O2-  O483  1  0.16537383  0.32895533  0.30592064  1
  O2-  O484  1  0.18019030  0.35541484  0.63058666  1
  O2-  O485  1  0.16861434  0.32474994  0.97840591  1
  O2-  O486  1  0.17518686  0.59323426  0.30635853  1
  O2-  O487  1  0.17232974  0.59484218  0.64111327  1
  O2-  O488  1  0.14808843  0.59658911  0.98110207  1
  O2-  O489  1  0.09846826  0.78204428  0.29845411  1
  O2-  O490  1  0.17713041  0.83999175  0.66248649  1
  O2-  O491  1  0.18563146  0.84029350  0.99071718  1
  O2-  O492  1  0.44634976  0.15700779  0.27569555  1
  O2-  O493  1  0.40515558  0.07283674  0.65402719  1
  O2-  O494  1  0.44140909  0.04314225  0.96886301  1
  O2-  O495  1  0.41632857  0.33537038  0.30944690  1
  O2-  O496  1  0.41268514  0.32994243  0.64703907  1
  O2-  O497  1  0.42631647  0.35565743  0.97589699  1
  O2-  O498  1  0.32609423  0.53119762  0.27765828  1
  O2-  O499  1  0.42753190  0.59021897  0.64879688  1
  O2-  O500  1  0.40093796  0.58926977  0.98151544  1
  O2-  O501  1  0.43368403  0.81530213  0.28815623  1
  O2-  O502  1  0.41165448  0.82612254  0.64124831  1
  O2-  O503  1  0.40566152  0.84703052  0.99401675  1
  O2-  O504  1  0.57365823  0.03258712  0.28834531  1
  O2-  O505  1  0.65835779  0.09058401  0.64300741  1
  O2-  O506  1  0.67271657  0.08987318  0.97225835  1
  O2-  O507  1  0.68295319  0.34408601  0.29134750  1
  O2-  O508  1  0.65743620  0.31912309  0.64812223  1
  O2-  O509  1  0.67024005  0.32738695  0.98449060  1
  O2-  O510  1  0.68488883  0.59111528  0.30345990  1
  O2-  O511  1  0.66082796  0.56605345  0.66819126  1
  O2-  O512  1  0.63526155  0.54420719  0.99734958  1
  O2-  O513  1  0.66432051  0.82490639  0.30951049  1
  O2-  O514  1  0.66603655  0.86236957  0.66195807  1
  O2-  O515  1  0.65249656  0.83713562  0.96610897  1
  O2-  O516  1  0.90642582  0.05358214  0.30727936  1
  O2-  O517  1  0.91206122  0.08427310  0.65988591  1
  O2-  O518  1  0.91628528  0.07382135  0.97425125  1
  O2-  O519  1  0.93545745  0.34046270  0.30947419  1
  O2-  O520  1  0.91658832  0.33742087  0.64034480  1
  O2-  O521  1  0.93130491  0.34458121  0.97542518  1
  O2-  O522  1  0.93338835  0.58698749  0.33079025  1
  O2-  O523  1  0.97333007  0.69500847  0.58000912  1
  O2-  O524  1  0.89028606  0.57503461  0.97559465  1
  O2-  O525  1  0.91931826  0.82814774  0.30457178  1
  O2-  O526  1  0.90533113  0.82050058  0.64911066  1
  O2-  O527  1  0.81725879  0.77180407  0.95427011  1
  O2-  O528  1  0.07900892  0.16200024  0.02189319  1
  O2-  O529  1  0.05981498  0.17506349  0.36146722  1
  O2-  O530  1  0.07884524  0.15724813  0.70417150  1
  O2-  O531  1  0.10049923  0.42123388  0.02447493  1
  O2-  O532  1  0.09511438  0.42709415  0.34493434  1
  O2-  O533  1  0.08758615  0.42666721  0.68102780  1
  O2-  O534  1  0.09763610  0.69276969  0.03273049  1
  O2-  O535  1  0.10387105  0.66258462  0.36922276  1
  O2-  O536  1  0.10512175  0.68124200  0.69807514  1
  O2-  O537  1  0.16946710  0.96481635  0.04376194  1
  O2-  O538  1  0.08052925  0.91428950  0.35286482  1
  O2-  O539  1  0.07513946  0.91099424  0.69639744  1
  O2-  O540  1  0.33841218  0.18333627  0.01246915  1
  O2-  O541  1  0.33307998  0.17569780  0.35338317  1
  O2-  O542  1  0.33084825  0.16759289  0.69594789  1
  O2-  O543  1  0.33201315  0.42253769  0.01768630  1
  O2-  O544  1  0.32866167  0.41366170  0.35082197  1
  O2-  O545  1  0.33825619  0.42179614  0.68669290  1
  O2-  O546  1  0.30855722  0.65990683  0.04026634  1
  O2-  O547  1  0.32336095  0.68328814  0.35702475  1
  O2-  O548  1  0.33492978  0.66819689  0.68312445  1
  O2-  O549  1  0.37739675  0.97904300  0.00332810  1
  O2-  O550  1  0.32648731  0.84083607  0.36294148  1
  O2-  O551  1  0.33228454  0.91911386  0.69525986  1
  O2-  O552  1  0.58436091  0.15596207  0.02413638  1
  O2-  O553  1  0.58458124  0.18056551  0.33172857  1
  O2-  O554  1  0.56568197  0.15966269  0.68275986  1
  O2-  O555  1  0.60340389  0.45254144  0.00569158  1
  O2-  O556  1  0.58266180  0.41506759  0.32882729  1
  O2-  O557  1  0.57569543  0.40267958  0.69397639  1
  O2-  O558  1  0.57214280  0.67694526  0.02123809  1
  O2-  O559  1  0.61955844  0.67965657  0.37498370  1
  O2-  O560  1  0.58447097  0.64181918  0.69906453  1
  O2-  O561  1  0.58005613  0.92272089  0.01193031  1
  O2-  O562  1  0.58397201  0.90466198  0.35288978  1
  O2-  O563  1  0.63323966  0.97142699  0.72331176  1
  O2-  O564  1  0.84310656  0.17332858  -0.00182127  1
  O2-  O565  1  0.92054364  0.19591114  0.36696474  1
  O2-  O566  1  0.83279824  0.17879020  0.67551367  1
  O2-  O567  1  0.83942466  0.41740766  0.02269208  1
  O2-  O568  1  0.83713170  0.41380669  0.34889678  1
  O2-  O569  1  0.82173582  0.40579036  0.69518108  1
  O2-  O570  1  0.80084218  0.63964057  0.01774642  1
  O2-  O571  1  0.84266085  0.66314023  0.34953832  1
  O2-  O572  1  0.81991587  0.65554835  0.68935449  1
  O2-  O573  1  0.81752047  0.91228807  0.01043547  1
  O2-  O574  1  0.82382511  0.89210082  0.35388748  1
  O2-  O575  1  0.83409766  0.91476404  0.68413378  1
