# generated using pymatgen
data_H2O
_symmetry_space_group_name_H-M   'P 1'
_cell_length_a   17.99491932
_cell_length_b   17.98929025
_cell_length_c   22.00333742
_cell_angle_alpha   90.00922338
_cell_angle_beta   89.96103921
_cell_angle_gamma   120.00474401
_symmetry_Int_Tables_number   1
_chemical_formula_structural   H2O
_chemical_formula_sum   'H384 O192'
_cell_volume   6168.25402190
_cell_formula_units_Z   192
loop_
 _symmetry_equiv_pos_site_id
 _symmetry_equiv_pos_as_xyz
  1  'x, y, z'
loop_
 _atom_type_symbol
 _atom_type_oxidation_number
  H+  1.0
  O2-  -2.0
loop_
 _atom_site_type_symbol
 _atom_site_label
 _atom_site_symmetry_multiplicity
 _atom_site_fract_x
 _atom_site_fract_y
 _atom_site_fract_z
 _atom_site_occupancy
  H+  H0  1  1.00864387  0.39052017  0.82910248  1
  H+  H1  1  0.82902916  0.21029735  0.67354645  1
  H+  H2  1  0.88816168  0.36430309  0.33611952  1
  H+  H3  1  0.78573534  0.92888942  -0.01332228  1
  H+  H4  1  0.37139477  0.37436885  -0.00221274  1
  H+  H5  1  0.52549637  0.89171504  0.34134260  1
  H+  H6  1  0.82631857  0.69429338  0.16395745  1
  H+  H7  1  0.45498100  0.09643818  0.67147049  1
  H+  H8  1  0.88096120  0.77300453  0.66153891  1
  H+  H9  1  0.34389835  0.62934124  0.82545272  1
  H+  H10  1  0.36259633  0.64129437  0.48795087  1
  H+  H11  1  0.73605672  0.37042414  0.65605235  1
  H+  H12  1  0.65072449  0.12682991  0.17444201  1
  H+  H13  1  0.86421544  0.71398217  0.86535893  1
  H+  H14  1  0.92037536  0.09719688  0.23975960  1
  H+  H15  1  0.61440048  0.47704554  0.66599202  1
  H+  H16  1  0.38863361  0.11269790  0.50868110  1
  H+  H17  1  0.16914670  0.58102386  1.09529441  1
  H+  H18  1  0.17958587  0.08549121  0.56144891  1
  H+  H19  1  0.14582282  0.26207647  0.35802091  1
  H+  H20  1  0.62670543  0.86089290  0.32379412  1
  H+  H21  1  0.85080336  0.37718397  0.66345567  1
  H+  H22  1  0.85831646  0.37940992  0.49721672  1
  H+  H23  1  0.59500209  0.91353358  0.77805201  1
  H+  H24  1  0.38295807  0.77076443  0.84190054  1
  H+  H25  1  0.24603510  0.59096786  0.16733751  1
  H+  H26  1  0.87589157  0.56803761  1.01620712  1
  H+  H27  1  0.70643533  0.08458011  0.66471865  1
  H+  H28  1  0.40044426  0.34677055  0.85003412  1
  H+  H29  1  0.38771835  -0.00540255  0.16965558  1
  H+  H30  1  0.48170083  0.62238787  0.49833244  1
  H+  H31  1  0.87138129  1.00267753  0.48416797  1
  H+  H32  1  0.62748973  0.94302795  0.67434536  1
  H+  H33  1  0.63424563  0.35974817  0.50640994  1
  H+  H34  1  0.29564767  0.20646852  0.16549514  1
  H+  H35  1  0.39161405  0.25449551  0.84103774  1
  H+  H36  1  0.87477534  -0.01180810  0.18633545  1
  H+  H37  1  0.15203586  0.14131621  0.17154155  1
  H+  H38  1  0.72556315  0.36123778  0.50851833  1
  H+  H39  1  0.59451465  0.05406530  0.92678750  1
  H+  H40  1  0.13347635  0.98321106  0.80998464  1
  H+  H41  1  0.17081793  0.88734241  0.17407300  1
  H+  H42  1  0.64164972  0.88922535  0.01069138  1
  H+  H43  1  0.18075701  1.07087069  0.16729406  1
  H+  H44  1  0.45416848  0.07752230  0.96623410  1
  H+  H45  1  0.12342865  0.60253498  0.65617386  1
  H+  H46  1  0.61127883  0.21691359  0.50109956  1
  H+  H47  1  0.59671276  0.18202135  0.67121455  1
  H+  H48  1  0.56720268  -0.00220539  0.86811048  1
  H+  H49  1  0.35875462  0.12569392  0.82147957  1
  H+  H50  1  0.18586272  0.09254253  0.93864592  1
  H+  H51  1  0.48374592  0.12037354  0.33574300  1
  H+  H52  1  0.48352508  0.60461974  0.17853886  1
  H+  H53  1  0.26917895  0.63333150  0.49145998  1
  H+  H54  1  0.11218007  0.23312957  0.65164032  1
  H+  H55  1  0.38219064  0.23139694  0.00212075  1
  H+  H56  1  0.86964881  0.93981190  0.01509532  1
  H+  H57  1  0.17345376  0.34364649  0.92903260  1
  H+  H58  1  -0.00599783  0.11564637  0.43745465  1
  H+  H59  1  0.86661541  0.02172593  0.32418427  1
  H+  H60  1  0.96495617  0.37160232  0.17872027  1
  H+  H61  1  1.03116246  0.89384891  0.34206820  1
  H+  H62  1  0.09788723  0.48063973  0.82690544  1
  H+  H63  1  0.63977909  0.86906425  0.17141106  1
  H+  H64  1  -0.01825470  0.12714363  0.17939777  1
  H+  H65  1  0.60911211  0.46862302  0.49038431  1
  H+  H66  1  0.35399444  0.88502112  0.49736372  1
  H+  H67  1  0.83786330  0.64030482  0.25867184  1
  H+  H68  1  0.10373107  0.12715921  0.35992580  1
  H+  H69  1  0.82584327  0.16356802  0.43145731  1
  H+  H70  1  0.37828231  0.34510085  0.32379005  1
  H+  H71  1  0.83861926  0.94148818  0.72524904  1
  H+  H72  1  0.87486719  0.68142109  1.02339593  1
  H+  H73  1  0.87629342  0.49209256  0.15963648  1
  H+  H74  1  0.61713253  0.72513937  0.16346731  1
  H+  H75  1  0.13975288  0.83704324  0.99503362  1
  H+  H76  1  0.28098271  0.63425776  0.02615187  1
  H+  H77  1  0.90364384  0.15252161  0.99423754  1
  H+  H78  1  0.80339368  0.89346721  0.42258112  1
  H+  H79  1  0.49870751  0.13441539  0.17764189  1
  H+  H80  1  0.63642983  0.60685396  0.49882199  1
  H+  H81  1  0.84619038  0.14740294  0.82767407  1
  H+  H82  1  0.08457404  0.67729222  1.00442941  1
  H+  H83  1  0.91843800  0.60655416  0.31311690  1
  H+  H84  1  0.11649478  0.45717255  0.16043274  1
  H+  H85  1  0.49094311  0.60796699  0.83741098  1
  H+  H86  1  0.89219367  0.81420154  1.01735053  1
  H+  H87  1  0.13072901  0.74693579  0.15600052  1
  H+  H88  1  0.85841847  0.23300998  0.33874846  1
  H+  H89  1  0.62958845  0.99895594  0.00744387  1
  H+  H90  1  0.10664990  0.17777623  0.79934227  1
  H+  H91  1  0.07819475  0.39714121  0.06975323  1
  H+  H92  1  0.37954839  0.59694511  -0.01019377  1
  H+  H93  1  0.25354425  0.87909223  0.17984443  1
  H+  H94  1  0.10098113  0.46935289  0.67040881  1
  H+  H95  1  0.02649673  0.89023753  0.49224789  1
  H+  H96  1  0.23372146  0.87207341  0.33089367  1
  H+  H97  1  0.86620476  0.13543956  0.16525215  1
  H+  H98  1  0.00229122  0.61642266  0.17358235  1
  H+  H99  1  0.74156188  0.60320353  0.16229698  1
  H+  H100  1  0.38832842  0.37087615  0.65527790  1
  H+  H101  1  0.99859034  0.90295085  0.82531571  1
  H+  H102  1  0.31933246  0.37380635  0.79759393  1
  H+  H103  1  0.92307357  0.64851291  0.89023958  1
  H+  H104  1  0.14462609  0.51886841  1.03863490  1
  H+  H105  1  0.83341372  0.71682468  0.88776773  1
  H+  H106  1  0.68780160  0.83996902  1.03965909  1
  H+  H107  1  0.36350957  0.22655106  0.49130965  1
  H+  H108  1  0.27686078  0.87380167  0.02986207  1
  H+  H109  1  0.15035871  0.10204357  0.84959240  1
  H+  H110  1  0.17393117  0.57656274  0.21456830  1
  H+  H111  1  0.85070710  0.91978095  0.13446854  1
  H+  H112  1  0.79374018  0.92246795  0.84422287  1
  H+  H113  1  0.13225014  0.36802055  0.65447372  1
  H+  H114  1  0.26823951  0.88833030  0.49235671  1
  H+  H115  1  0.36021594  0.63388139  0.33749464  1
  H+  H116  1  0.02837735  0.63371766  0.49071310  1
  H+  H117  1  0.11264068  0.97761302  0.66081721  1
  H+  H118  1  0.23536586  0.38129051  0.50077182  1
  H+  H119  1  0.59241910  0.77094461  0.76876144  1
  H+  H120  1  0.62098769  0.34939418  0.84884632  1
  H+  H121  1  0.37708894  0.62332740  0.64955374  1
  H+  H122  1  0.75486755  0.88051954  0.33193670  1
  H+  H123  1  0.88577184  0.26549857  0.50381143  1
  H+  H124  1  0.33802711  0.41595389  0.43373588  1
  H+  H125  1  0.61311115  0.37796354  0.16269152  1
  H+  H126  1  0.62173001  0.98615416  0.16432685  1
  H+  H127  1  0.33572048  0.72533883  0.67543275  1
  H+  H128  1  0.83495378  0.56933258  0.81348298  1
  H+  H129  1  0.91562720  0.34195864  0.27272345  1
  H+  H130  1  0.13651741  0.61020020  0.50275120  1
  H+  H131  1  0.11930604  0.24123800  0.16816127  1
  H+  H132  1  0.63195092  0.09784301  0.51298286  1
  H+  H133  1  0.71238217  0.10238073  0.94542558  1
  H+  H134  1  0.58127152  0.17217391  0.00336416  1
  H+  H135  1  0.23276615  0.62252931  0.30698844  1
  H+  H136  1  0.39054039  0.86515181  0.33096734  1
  H+  H137  1  0.65914225  0.15314360  0.00754830  1
  H+  H138  1  0.97852642  0.14368083  0.83328740  1
  H+  H139  1  0.77307579  0.12956471  0.49391922  1
  H+  H140  1  0.91936227  0.06050067  0.57469991  1
  H+  H141  1  1.03300123  0.87168478  0.99020767  1
  H+  H142  1  0.12687622  0.61846865  0.83884425  1
  H+  H143  1  0.21333570  0.60459286  0.65813550  1
  H+  H144  1  0.87919888  0.09530206  0.48798491  1
  H+  H145  1  0.63489312  0.61358743  0.64851696  1
  H+  H146  1  0.47494035  0.36574212  0.65723329  1
  H+  H147  1  0.11450106  0.47689503  0.49315664  1
  H+  H148  1  0.74297708  0.55739080  0.81529447  1
  H+  H149  1  0.33507575  0.88686939  0.71829487  1
  H+  H150  1  0.77391397  0.39654642  0.82113786  1
  H+  H151  1  0.89431779  0.80104291  0.36322732  1
  H+  H152  1  0.58874895  0.72325621  1.00862647  1
  H+  H153  1  0.35911790  0.22795144  0.67526822  1
  H+  H154  1  0.15100814  1.03637912  -0.00247945  1
  H+  H155  1  0.86953771  0.84648655  0.20018647  1
  H+  H156  1  0.69814112  0.88443655  0.48484737  1
  H+  H157  1  0.97390774  0.35537754  0.50628373  1
  H+  H158  1  0.59284961  0.62939810  0.33490954  1
  H+  H159  1  0.11614075  0.72440178  0.49119149  1
  H+  H160  1  0.12167452  0.89603254  0.33780365  1
  H+  H161  1  0.88110240  0.37886303  0.17901183  1
  H+  H162  1  0.61746070  0.21809260  0.82593686  1
  H+  H163  1  0.44780077  0.84730560  0.53597369  1
  H+  H164  1  0.60910833  0.06088199  0.66414318  1
  H+  H165  1  0.07832061  0.93369305  0.13705148  1
  H+  H166  1  0.91779579  0.84132891  0.56718957  1
  H+  H167  1  0.13672592  0.11572794  0.65300727  1
  H+  H168  1  0.27940922  0.87967009  0.80611342  1
  H+  H169  1  0.71875771  0.88310434  0.67273122  1
  H+  H170  1  0.96042175  0.35316522  0.65992968  1
  H+  H171  1  0.93916174  0.81773682  0.19623157  1
  H+  H172  1  0.65573207  0.32810241  0.90996187  1
  H+  H173  1  0.36580025  0.82880921  0.61291198  1
  H+  H174  1  0.63514808  0.72992267  0.48364830  1
  H+  H175  1  0.97674335  0.10030089  0.63380184  1
  H+  H176  1  0.38455346  1.02231887  0.51055239  1
  H+  H177  1  0.63348094  0.24054042  0.16317420  1
  H+  H178  1  0.59941349  0.72238232  0.33611205  1
  H+  H179  1  0.24665784  0.35761904  0.20367400  1
  H+  H180  1  0.12118303  0.38780237  1.00812788  1
  H+  H181  1  0.64792785  0.56102274  0.90989607  1
  H+  H182  1  0.39118449  0.77567899  0.32918441  1
  H+  H183  1  0.12000682  0.15001897  0.00865017  1
  H+  H184  1  0.22500142  0.11510018  0.66127699  1
  H+  H185  1  0.91015769  0.55865587  0.90680934  1
  H+  H186  1  0.36225067  0.46432406  0.34054996  1
  H+  H187  1  0.86666617  0.72200518  0.51870499  1
  H+  H188  1  0.68775750  0.59246201  0.32140228  1
  H+  H189  1  0.84423312  0.23305213  0.82887338  1
  H+  H190  1  0.13476056  0.38462118  0.49848720  1
  H+  H191  1  0.28403273  0.13919979  0.00495507  1
  H+  H192  1  0.13361873  0.85981413  0.50121221  1
  H+  H193  1  0.76884913  0.13409935  0.16617083  1
  H+  H194  1  0.64012897  0.98011471  0.49354381  1
  H+  H195  1  0.14895549  0.28116938  0.98872926  1
  H+  H196  1  0.86192748  0.97718584  0.65706440  1
  H+  H197  1  0.46618286  0.34356104  0.32623578  1
  H+  H198  1  0.33688361  0.92003474  0.40193799  1
  H+  H199  1  0.46784547  0.62585815  0.64424869  1
  H+  H200  1  0.66168787  0.80704641  0.85562941  1
  H+  H201  1  0.35819654  0.13698888  0.67644289  1
  H+  H202  1  0.52510019  0.37222688  0.81937331  1
  H+  H203  1  0.10360350  0.26119435  0.81531234  1
  H+  H204  1  0.36807346  0.88172276  0.81868687  1
  H+  H205  1  0.88096891  0.85609904  0.50527130  1
  H+  H206  1  0.62366478  0.90367486  0.84388546  1
  H+  H207  1  0.10386668  0.92143521  -0.05845332  1
  H+  H208  1  0.37203759  0.12902626  -0.00082195  1
  H+  H209  1  0.27401460  0.37444386  -0.00717076  1
  H+  H210  1  0.77810031  0.63173365  0.51487714  1
  H+  H211  1  0.72438275  0.12091710  0.32671606  1
  H+  H212  1  0.10695930  0.72518033  0.81601763  1
  H+  H213  1  0.82554401  0.64473122  0.32944452  1
  H+  H214  1  0.39510767  0.60291988  0.17597153  1
  H+  H215  1  0.88150473  0.37247291  0.84006157  1
  H+  H216  1  0.12466877  0.73534608  0.34036437  1
  H+  H217  1  0.65850477  0.57336763  0.55955246  1
  H+  H218  1  0.53565892  0.90663635  1.00668684  1
  H+  H219  1  0.95208382  0.10862123  0.33987828  1
  H+  H220  1  0.40544186  0.27590257  0.23186648  1
  H+  H221  1  0.18040164  0.38833847  0.21726887  1
  H+  H222  1  0.37625876  0.47030410  0.82216304  1
  H+  H223  1  0.09800021  0.71307135  0.66744148  1
  H+  H224  1  0.85008720  0.89058913  0.33730766  1
  H+  H225  1  0.37268461  0.13504120  0.34664682  1
  H+  H226  1  0.87961216  0.86168462  0.66262360  1
  H+  H227  1  0.13268560  0.85520370  0.65404980  1
  H+  H228  1  0.72880752  0.86984146  0.18277973  1
  H+  H229  1  0.10630609  0.36800546  0.35457858  1
  H+  H230  1  0.09976943  0.60005836  0.02085356  1
  H+  H231  1  0.60513043  0.73567249  0.65808214  1
  H+  H232  1  0.73732950  0.37959245  0.17206546  1
  H+  H233  1  0.37847480  0.72555280  0.16518345  1
  H+  H234  1  0.66142361  0.61563341  0.84857142  1
  H+  H235  1  0.61603088  0.59372253  0.17135827  1
  H+  H236  1  0.98107629  0.37070248  0.99460896  1
  H+  H237  1  0.36859263  0.48235713  0.48966420  1
  H+  H238  1  0.32973006  0.66755500  0.39422924  1
  H+  H239  1  0.61376770  0.13993062  0.34355083  1
  H+  H240  1  0.51946004  0.37966157  0.49361208  1
  H+  H241  1  0.64215311  0.27668213  0.32990854  1
  H+  H242  1  0.27394707  0.13287509  0.49187701  1
  H+  H243  1  0.63806325  0.37028260  0.65648368  1
  H+  H244  1  0.87294665  0.47445115  0.34666884  1
  H+  H245  1  0.86678087  0.24530869  1.01779277  1
  H+  H246  1  0.14732088  0.62559821  0.30780607  1
  H+  H247  1  0.36535797  0.76145480  0.51342687  1
  H+  H248  1  0.85468677  0.63001367  0.66113482  1
  H+  H249  1  0.51960308  0.54821678  0.86683641  1
  H+  H250  1  0.95159956  0.57177132  0.23522435  1
  H+  H251  1  0.90104470  1.06360696  -0.01888795  1
  H+  H252  1  0.42461213  0.83624376  0.23741117  1
  H+  H253  1  0.75509490  0.39450029  0.99599403  1
  H+  H254  1  0.38476761  0.36264572  0.50513906  1
  H+  H255  1  0.11234239  0.02206158  0.31945804  1
  H+  H256  1  0.37694345  0.01267601  0.82229831  1
  H+  H257  1  0.88702362  0.03158105  0.84082188  1
  H+  H258  1  0.27516440  0.37439349  0.34959865  1
  H+  H259  1  0.01944406  0.63740966  0.82939623  1
  H+  H260  1  0.96416960  0.59942785  0.65901063  1
  H+  H261  1  0.36402426  0.22370152  0.34326880  1
  H+  H262  1  0.85193893  0.14044366  0.33667216  1
  H+  H263  1  0.14944910  0.02481174  0.50325644  1
  H+  H264  1  0.08178119  0.35530748  0.16540238  1
  H+  H265  1  0.12322036  0.38063765  0.84040062  1
  H+  H266  1  0.48544777  0.86792298  0.17847098  1
  H+  H267  1  0.10010807  0.67225594  0.39831993  1
  H+  H268  1  0.51141179  0.62885719  1.01285635  1
  H+  H269  1  0.61952647  0.38025910  0.01165472  1
  H+  H270  1  0.63613131  0.36135960  0.32789209  1
  H+  H271  1  0.33172741  0.16827219  0.76538085  1
  H+  H272  1  0.13882674  0.86825749  0.81049964  1
  H+  H273  1  0.88834812  0.93045688  0.83245803  1
  H+  H274  1  0.37008178  0.98084062  0.34332305  1
  H+  H275  1  0.24407953  0.11389909  0.84140731  1
  H+  H276  1  0.72377848  0.61213197  0.65285422  1
  H+  H277  1  0.63834535  0.50394252  0.99563015  1
  H+  H278  1  0.67842692  0.29789126  1.00291049  1
  H+  H279  1  0.21533988  0.38647975  0.83453702  1
  H+  H280  1  0.39299484  0.86003681  1.00058468  1
  H+  H281  1  0.63684716  0.02929291  0.32442671  1
  H+  H282  1  0.36853637  0.46884879  0.99843941  1
  H+  H283  1  0.37605501  0.45770054  0.18494757  1
  H+  H284  1  0.37073718  1.00359912  -0.00256783  1
  H+  H285  1  0.89100828  0.51991825  0.50560216  1
  H+  H286  1  0.16187166  0.57720662  0.56287487  1
  H+  H287  1  0.00323161  0.60573282  0.33104865  1
  H+  H288  1  0.90616233  0.32400803  0.59868745  1
  H+  H289  1  0.42858223  0.09554711  0.27436974  1
  H+  H290  1  0.38375034  0.05526616  0.88675490  1
  H+  H291  1  0.61059192  0.18165271  0.10387732  1
  H+  H292  1  0.42366324  0.56877317  0.93515735  1
  H+  H293  1  0.91155065  0.34356095  0.90101146  1
  H+  H294  1  0.41270735  0.33059180  0.56406195  1
  H+  H295  1  0.35944679  0.67030511  0.10426032  1
  H+  H296  1  0.82549473  0.62297403  0.08147833  1
  H+  H297  1  0.57059804  0.40172461  0.39938445  1
  H+  H298  1  0.22533692  0.37459689  0.65043022  1
  H+  H299  1  0.82767372  0.41518822  0.76111060  1
  H+  H300  1  0.51448192  0.34992613  0.16117535  1
  H+  H301  1  0.68752749  0.85589972  0.91924793  1
  H+  H302  1  0.18632893  0.79257106  0.96297101  1
  H+  H303  1  0.46348412  0.60423263  0.33103582  1
  H+  H304  1  0.52127651  0.12966012  0.50068690  1
  H+  H305  1  0.60218732  0.46672988  0.82344769  1
  H+  H306  1  0.02019691  0.37480848  0.34883841  1
  H+  H307  1  0.58178436  0.66726487  0.10344900  1
  H+  H308  1  0.38645818  0.90298668  0.17111232  1
  H+  H309  1  0.06813234  0.17973629  0.70996404  1
  H+  H310  1  0.17146829  0.34998901  0.56164931  1
  H+  H311  1  0.42111058  0.15091682  0.18721312  1
  H+  H312  1  0.90783561  0.82491567  0.84132734  1
  H+  H313  1  0.40945965  0.57026927  0.27018015  1
  H+  H314  1  0.67954221  0.34310808  0.23346748  1
  H+  H315  1  0.35686159  0.36032010  0.16888976  1
  H+  H316  1  0.41985211  0.83376800  0.93837681  1
  H+  H317  1  0.92942076  0.11946770  0.90083019  1
  H+  H318  1  0.85742723  0.85151790  0.07391311  1
  H+  H319  1  0.48620112  0.35384363  0.99928150  1
  H+  H320  1  0.82922220  0.41214270  0.43924566  1
  H+  H321  1  0.58664244  0.41576054  0.72528396  1
  H+  H322  1  0.60646393  0.49777843  0.17244710  1
  H+  H323  1  0.14809861  0.09587782  0.26886950  1
  H+  H324  1  0.59734154  0.92423887  0.39487531  1
  H+  H325  1  0.65807871  0.06076194  0.57127317  1
  H+  H326  1  0.16038491  0.82610097  0.56013378  1
  H+  H327  1  0.59023220  0.93075405  0.10359244  1
  H+  H328  1  0.90008108  0.38578845  0.99552553  1
  H+  H329  1  0.07051611  0.65508122  0.72772446  1
  H+  H330  1  0.58500837  0.66708368  0.42935586  1
  H+  H331  1  0.14672663  0.95374918  0.08738572  1
  H+  H332  1  0.36943247  0.71974442  0.00656384  1
  H+  H333  1  0.16666616  0.31046988  0.29297573  1
  H+  H334  1  0.66101237  0.74401277  0.77413245  1
  H+  H335  1  0.57743228  0.39987006  0.07022707  1
  H+  H336  1  0.34975376  0.92360785  0.07997831  1
  H+  H337  1  0.58882931  0.12071764  0.83485773  1
  H+  H338  1  0.42955417  0.32047082  0.93670011  1
  H+  H339  1  0.83703566  0.17265634  0.10211639  1
  H+  H340  1  0.81561527  0.63601887  0.72285986  1
  H+  H341  1  0.78111569  0.14919782  0.01635365  1
  H+  H342  1  0.77944529  0.68406531  0.40184894  1
  H+  H343  1  0.47429432  0.85688197  0.84276740  1
  H+  H344  1  0.82160370  0.71643130  0.41623303  1
  H+  H345  1  0.15183989  0.58837730  0.89993121  1
  H+  H346  1  0.79899893  0.16138100  0.73662089  1
  H+  H347  1  0.80860695  0.82806475  0.07056060  1
  H+  H348  1  0.58943539  0.45803623  0.33879226  1
  H+  H349  1  0.09137308  0.92623616  0.74758706  1
  H+  H350  1  0.57724601  0.87879164  0.49189465  1
  H+  H351  1  0.41619455  0.59300363  0.55451803  1
  H+  H352  1  0.58557371  0.16661445  0.40569058  1
  H+  H353  1  0.36119014  0.49042178  0.65476610  1
  H+  H354  1  0.03530870  0.15947706  0.00450296  1
  H+  H355  1  0.73275844  0.58309746  -0.00968101  1
  H+  H356  1  0.31869727  0.66111379  0.72968721  1
  H+  H357  1  0.91359960  0.57199448  0.59628801  1
  H+  H358  1  0.25973420  0.63605469  0.82881465  1
  H+  H359  1  0.56858687  0.66543539  0.70841060  1
  H+  H360  1  0.21350129  0.83910721  0.65316560  1
  H+  H361  1  0.65297867  0.82703246  0.26421235  1
  H+  H362  1  0.66677948  0.33727586  0.59275978  1
  H+  H363  1  0.07189100  0.41207632  0.73068204  1
  H+  H364  1  0.84276778  0.43864850  0.09672665  1
  H+  H365  1  0.08735028  0.92022855  0.43291945  1
  H+  H366  1  0.57927378  0.14248416  0.73750008  1
  H+  H367  1  0.17302858  0.84758421  0.86989948  1
  H+  H368  1  -0.02930236  0.56451322  0.00124953  1
  H+  H369  1  0.89296560  0.61027893  0.51609442  1
  H+  H370  1  0.40424756  0.08105100  0.60995859  1
  H+  H371  1  0.67473859  0.09299170  0.23540334  1
  H+  H372  1  0.89999521  0.81301658  0.29187099  1
  H+  H373  1  0.08968592  0.18853651  0.10503158  1
  H+  H374  1  0.63132430  0.55906240  0.26127650  1
  H+  H375  1  0.77699848  0.39117804  0.34451124  1
  H+  H376  1  0.08197814  0.40988720  0.43284211  1
  H+  H377  1  0.89691342  0.78437727  0.95133068  1
  H+  H378  1  0.17861629  0.84395069  0.27006135  1
  H+  H379  1  0.02191007  0.88816059  0.66513408  1
  H+  H380  1  0.33200425  0.43795308  0.71626270  1
  H+  H381  1  0.06173418  0.71277540  0.10552192  1
  H+  H382  1  0.85391665  0.47025070  0.66287486  1
  H+  H383  1  0.33885915  0.16598516  0.41250295  1
  O2-  O384  1  0.08625831  0.18280257  0.15001100  1
  O2-  O385  1  0.01805382  0.14964506  0.39908005  1
  O2-  O386  1  0.06907763  0.20202770  0.79607453  1
  O2-  O387  1  0.07110080  0.39782253  0.14599179  1
  O2-  O388  1  0.08677215  0.41431424  0.48125578  1
  O2-  O389  1  0.07004825  0.42011097  0.81289362  1
  O2-  O390  1  0.09355906  0.69477095  0.13156621  1
  O2-  O391  1  0.08938114  0.66382592  0.47605412  1
  O2-  O392  1  0.07603973  0.66197249  0.80860084  1
  O2-  O393  1  0.14015726  0.96012908  0.13083517  1
  O2-  O394  1  0.08726706  0.91709343  0.47831739  1
  O2-  O395  1  0.09373695  0.92488855  0.79439905  1
  O2-  O396  1  0.35137948  0.25618484  0.15036663  1
  O2-  O397  1  0.33696456  0.16649028  0.47515981  1
  O2-  O398  1  0.33347088  0.16497672  0.81174028  1
  O2-  O399  1  0.34232714  0.39568844  0.19508564  1
  O2-  O400  1  0.33486952  0.41973892  0.47940429  1
  O2-  O401  1  0.32187613  0.42912411  0.80084087  1
  O2-  O402  1  0.35531541  0.66612310  0.14925316  1
  O2-  O403  1  0.32969688  0.67066973  0.47676768  1
  O2-  O404  1  0.31919941  0.66356901  0.81119650  1
  O2-  O405  1  0.35727822  0.93435662  0.15480438  1
  O2-  O406  1  0.33025261  0.91947827  0.47942840  1
  O2-  O407  1  0.34086289  0.90924401  0.79480191  1
  O2-  O408  1  0.60301615  0.17901032  0.14893664  1
  O2-  O409  1  0.58207309  0.15730755  0.48524792  1
  O2-  O410  1  0.61130733  0.16705421  0.80426827  1
  O2-  O411  1  0.57147228  0.39572644  0.14681874  1
  O2-  O412  1  0.57943523  0.40662072  0.47736434  1
  O2-  O413  1  0.58349097  0.41096345  0.80295247  1
  O2-  O414  1  0.58644661  0.66470681  0.14883655  1
  O2-  O415  1  0.59160127  0.66960332  0.47483134  1
  O2-  O416  1  0.60487562  0.73048145  0.79022003  1
  O2-  O417  1  0.59146978  0.92591691  0.14879977  1
  O2-  O418  1  0.62776723  0.92460361  0.47194982  1
  O2-  O419  1  0.58193492  0.91382708  0.82172357  1
  O2-  O420  1  0.83158516  0.16195291  0.14878979  1
  O2-  O421  1  0.83188227  0.15979436  0.47663576  1
  O2-  O422  1  0.81095891  0.17227887  0.81569366  1
  O2-  O423  1  0.83479622  0.43346860  0.14186585  1
  O2-  O424  1  0.82755352  0.41043551  0.48509973  1
  O2-  O425  1  0.83281202  0.42222637  0.80587016  1
  O2-  O426  1  0.80384009  0.63430849  0.15137036  1
  O2-  O427  1  0.84006500  0.65915644  0.52411803  1
  O2-  O428  1  0.79089498  0.57064564  0.78797615  1
  O2-  O429  1  0.84338175  0.92422471  0.17806618  1
  O2-  O430  1  0.80925357  0.89044164  0.46863027  1
  O2-  O431  1  0.85147961  0.95794194  0.82390688  1
  O2-  O432  1  0.19512788  0.12591346  0.18644223  1
  O2-  O433  1  0.18469523  0.08563068  0.51654165  1
  O2-  O434  1  0.18488916  0.07694441  0.86229074  1
  O2-  O435  1  0.18182924  0.33519534  0.21216285  1
  O2-  O436  1  0.17342264  0.35354320  0.51550819  1
  O2-  O437  1  0.15766441  0.35152337  0.85278998  1
  O2-  O438  1  0.18261287  0.55890484  0.17238880  1
  O2-  O439  1  0.16551083  0.57788130  0.51742840  1
  O2-  O440  1  0.15734539  0.58815132  0.85578265  1
  O2-  O441  1  0.19113693  0.84993610  0.19091386  1
  O2-  O442  1  0.16471199  0.82930930  0.51487004  1
  O2-  O443  1  0.16704779  0.83530493  0.82651292  1
  O2-  O444  1  0.43894866  0.10777444  0.19430780  1
  O2-  O445  1  0.41754414  0.08265963  0.52601144  1
  O2-  O446  1  0.39132832  0.06752204  0.84307941  1
  O2-  O447  1  0.41580543  0.25576884  0.19174335  1
  O2-  O448  1  0.41365836  0.33022908  0.51860652  1
  O2-  O449  1  0.42848149  0.31428533  0.86072360  1
  O2-  O450  1  0.42257069  0.57058480  0.19221787  1
  O2-  O451  1  0.41953783  0.59091121  0.50920480  1
  O2-  O452  1  0.46771570  0.55430407  0.86050358  1
  O2-  O453  1  0.42421708  0.83692805  0.19173089  1
  O2-  O454  1  0.38543293  0.81839505  0.53514244  1
  O2-  O455  1  0.41392287  0.83032940  0.85779320  1
  O2-  O456  1  0.67923100  0.09384993  0.18935624  1
  O2-  O457  1  0.66426201  0.06879967  0.52576969  1
  O2-  O458  1  0.55318460  0.03465803  0.89304952  1
  O2-  O459  1  0.67695509  0.34297033  0.18811416  1
  O2-  O460  1  0.66488056  0.33132959  0.52502871  1
  O2-  O461  1  0.63417830  0.30803920  0.86820601  1
  O2-  O462  1  0.63861994  0.55756189  0.18934035  1
  O2-  O463  1  0.66161163  0.57203783  0.51427042  1
  O2-  O464  1  0.62418016  0.55919363  0.86638980  1
  O2-  O465  1  0.66553870  0.83451181  0.18719259  1
  O2-  O466  1  0.72109165  0.84477963  0.49262368  1
  O2-  O467  1  0.69504749  0.86417002  0.87468626  1
  O2-  O468  1  0.92066177  0.09471924  0.19354104  1
  O2-  O469  1  0.91196874  0.06421760  0.49264783  1
  O2-  O470  1  0.92212149  0.10711851  0.85507284  1
  O2-  O471  1  0.90864788  0.34880809  0.19849769  1
  O2-  O472  1  0.91326288  0.32552420  0.52007335  1
  O2-  O473  1  0.91213350  0.34249951  0.85565544  1
  O2-  O474  1  0.94466425  0.57943331  0.19132132  1
  O2-  O475  1  0.92702860  0.57958344  0.52112180  1
  O2-  O476  1  0.92461499  0.59938429  0.87283685  1
  O2-  O477  1  0.88092456  0.79891860  0.20998655  1
  O2-  O478  1  0.92007648  0.83761658  0.52205328  1
  O2-  O479  1  0.94433726  0.88655241  0.84860105  1
  O2-  O480  1  0.10890197  0.07218086  0.30380349  1
  O2-  O481  1  0.16634647  0.08309535  0.64282837  1
  O2-  O482  1  0.18486668  0.09674771  0.98434396  1
  O2-  O483  1  0.16987357  0.31956930  0.33750572  1
  O2-  O484  1  0.16500958  0.34244308  0.63497323  1
  O2-  O485  1  0.18407685  0.34231371  0.97378060  1
  O2-  O486  1  0.17723173  0.60017325  0.28581137  1
  O2-  O487  1  0.15364191  0.57172154  0.64166556  1
  O2-  O488  1  0.17103223  0.58120234  1.04986206  1
  O2-  O489  1  0.17334160  0.84307785  0.31521939  1
  O2-  O490  1  0.15313629  0.81611561  0.63938006  1
  O2-  O491  1  0.16616390  0.80073701  1.00223473  1
  O2-  O492  1  0.42295110  0.09090238  0.31960748  1
  O2-  O493  1  0.39806075  0.08202713  0.65462564  1
  O2-  O494  1  0.39393099  0.05940171  0.97361166  1
  O2-  O495  1  0.40544035  0.31042285  0.31072657  1
  O2-  O496  1  0.41405313  0.33527488  0.64346146  1
  O2-  O497  1  0.42410645  0.32271787  0.98219086  1
  O2-  O498  1  0.40344947  0.56972043  0.31547230  1
  O2-  O499  1  0.40639734  0.59344087  0.63173217  1
  O2-  O500  1  0.40816260  0.56256877  0.97880255  1
  O2-  O501  1  0.42326466  0.83745479  0.31565048  1
  O2-  O502  1  0.36773812  0.82863713  0.65823722  1
  O2-  O503  1  0.42443513  0.83245606  0.98362310  1
  O2-  O504  1  0.66402660  0.08997406  0.30967003  1
  O2-  O505  1  0.64745493  0.04065359  0.64762081  1
  O2-  O506  1  0.68949676  0.09375031  0.98662978  1
  O2-  O507  1  0.67191221  0.33660915  0.31379117  1
  O2-  O508  1  0.66944085  0.33969547  0.64034136  1
  O2-  O509  1  0.69185011  0.35515030  0.98681885  1
  O2-  O510  1  0.62845579  0.56132560  0.30764976  1
  O2-  O511  1  0.66221696  0.57911969  0.63853003  1
  O2-  O512  1  0.67393940  0.56030976  0.97493555  1
  O2-  O513  1  0.65318863  0.82596725  0.30973148  1
  O2-  O514  1  0.65484610  0.84845805  0.66432012  1
  O2-  O515  1  0.67584045  0.85802993  1.00076709  1
  O2-  O516  1  0.90125841  0.08328933  0.31173909  1
  O2-  O517  1  0.91816879  0.05924360  0.61972723  1
  O2-  O518  1  0.93601613  0.12713381  0.97341897  1
  O2-  O519  1  0.91697600  0.33418186  0.31824863  1
  O2-  O520  1  0.90089164  0.32630061  0.64383887  1
  O2-  O521  1  0.92008858  0.34480689  0.98174319  1
  O2-  O522  1  0.94323077  0.56833958  0.31483190  1
  O2-  O523  1  0.90464588  0.56930618  0.64178958  1
  O2-  O524  1  0.90199649  0.53410180  0.99368894  1
  O2-  O525  1  0.91538145  0.84454337  0.33111949  1
  O2-  O526  1  0.91246110  0.83405027  0.64806995  1
  O2-  O527  1  0.92403051  0.79473052  0.99160662  1
  O2-  O528  1  0.09503201  0.18557181  0.02148915  1
  O2-  O529  1  0.10656673  0.16709088  0.39421813  1
  O2-  O530  1  0.08167819  0.17312337  0.66774829  1
  O2-  O531  1  0.08661440  0.41161833  0.02525583  1
  O2-  O532  1  0.07807847  0.40054551  0.36803049  1
  O2-  O533  1  0.07255934  0.40852860  0.68558261  1
  O2-  O534  1  0.06130799  0.61568789  -0.00333175  1
  O2-  O535  1  0.10065356  0.67429955  0.35286336  1
  O2-  O536  1  0.06897636  0.65235351  0.68261648  1
  O2-  O537  1  0.09647609  0.91029690  -0.01467447  1
  O2-  O538  1  0.09230933  0.92693262  0.35408919  1
  O2-  O539  1  0.08390926  0.91712135  0.67705195  1
  O2-  O540  1  0.34783205  0.16634068  0.01528054  1
  O2-  O541  1  0.33945815  0.16356863  0.36288576  1
  O2-  O542  1  0.32777552  0.16889559  0.69233472  1
  O2-  O543  1  0.33759721  0.40397957  0.00921319  1
  O2-  O544  1  0.33883546  0.40509165  0.35771649  1
  O2-  O545  1  0.33292828  0.43044785  0.67192832  1
  O2-  O546  1  0.34447587  0.65976548  0.02202724  1
  O2-  O547  1  0.33559329  0.67084411  0.34924694  1
  O2-  O548  1  0.31822838  0.66403733  0.68466342  1
  O2-  O549  1  0.33907190  0.91402031  0.03471224  1
  O2-  O550  1  0.33870172  0.91958334  0.35628266  1
  O2-  O551  1  0.31771042  0.86978201  0.67480668  1
  O2-  O552  1  0.63467187  0.19111075  0.02525829  1
  O2-  O553  1  0.58486075  0.17085407  0.36030107  1
  O2-  O554  1  0.56323174  0.12755275  0.69245752  1
  O2-  O555  1  0.57903530  0.40115871  0.02445474  1
  O2-  O556  1  0.56700046  0.39835893  0.35376642  1
  O2-  O557  1  0.58645114  0.41546817  0.67966661  1
  O2-  O558  1  0.57033847  0.66768260  0.02775872  1
  O2-  O559  1  0.56880618  0.66305485  0.35391142  1
  O2-  O560  1  0.57550566  0.67191357  0.66420110  1
  O2-  O561  1  0.59437932  0.93707290  0.02451716  1
  O2-  O562  1  0.58891091  0.92364234  0.35017725  1
  O2-  O563  1  0.61523089  0.89043288  0.69932753  1
  O2-  O564  1  0.84302333  0.18482474  0.03310523  1
  O2-  O565  1  0.82320312  0.17133121  0.35314744  1
  O2-  O566  1  0.79651547  0.15271433  0.69170660  1
  O2-  O567  1  0.85766714  0.44544783  0.01826441  1
  O2-  O568  1  0.83463784  0.41547529  0.36386862  1
  O2-  O569  1  0.81932831  0.40809672  0.67736096  1
  O2-  O570  1  0.83912730  0.62121070  0.03648241  1
  O2-  O571  1  0.86776612  0.66662495  0.29676253  1
  O2-  O572  1  0.82486718  0.65834771  0.68045782  1
  O2-  O573  1  0.84892820  0.95751734  -0.01986204  1
  O2-  O574  1  0.81427862  0.91602174  0.34967508  1
  O2-  O575  1  0.82620093  0.92254901  0.68293590  1
