# generated using pymatgen
data_H2O
_symmetry_space_group_name_H-M   'P 1'
_cell_length_a   17.99401282
_cell_length_b   17.99961672
_cell_length_c   21.99678892
_cell_angle_alpha   90.00689446
_cell_angle_beta   89.98593727
_cell_angle_gamma   119.99586051
_symmetry_Int_Tables_number   1
_chemical_formula_structural   H2O
_chemical_formula_sum   'H384 O192'
_cell_volume   6170.20087025
_cell_formula_units_Z   192
loop_
 _symmetry_equiv_pos_site_id
 _symmetry_equiv_pos_as_xyz
  1  'x, y, z'
loop_
 _atom_type_symbol
 _atom_type_oxidation_number
  H+  1.0
  O2-  -2.0
loop_
 _atom_site_type_symbol
 _atom_site_label
 _atom_site_symmetry_multiplicity
 _atom_site_fract_x
 _atom_site_fract_y
 _atom_site_fract_z
 _atom_site_occupancy
  H+  H0  1  0.57538482  0.16272857  0.89663223  1
  H+  H1  1  1.02123527  0.39075807  0.33093806  1
  H+  H2  1  0.19183979  0.33720937  0.31850189  1
  H+  H3  1  0.12499705  0.73241819  0.48930052  1
  H+  H4  1  0.14519979  0.87621178  0.17040383  1
  H+  H5  1  0.01689883  0.37599990  0.67247643  1
  H+  H6  1  0.36528475  0.48163251  0.67166988  1
  H+  H7  1  0.60871922  0.14030194  0.32973814  1
  H+  H8  1  0.02906412  0.88817614  0.68355072  1
  H+  H9  1  0.76491525  0.06624707  0.45565765  1
  H+  H10  1  0.81249781  0.64901827  0.16756286  1
  H+  H11  1  0.16284665  0.86995551  -0.00411286  1
  H+  H12  1  0.85374105  0.21526525  0.66124633  1
  H+  H13  1  0.17078096  0.58269419  0.56370910  1
  H+  H14  1  0.61379829  0.02508560  0.50442291  1
  H+  H15  1  0.60634572  0.70928581  0.48494659  1
  H+  H16  1  0.88622747  0.34967971  0.65241118  1
  H+  H17  1  0.38859831  0.86512469  0.49759110  1
  H+  H18  1  0.37962371  0.10446638  0.83211124  1
  H+  H19  1  0.97300370  0.12044246  0.83276696  1
  H+  H20  1  0.62922675  0.11272193  0.16155196  1
  H+  H21  1  0.73981272  0.10268081  0.98788304  1
  H+  H22  1  0.61141857  0.72741365  0.82594016  1
  H+  H23  1  0.37967691  0.39997721  0.50112627  1
  H+  H24  1  0.66679590  0.36759191  0.83395472  1
  H+  H25  1  0.14484501  0.41721364  0.16164723  1
  H+  H26  1  0.38657195  0.37043859  0.16762550  1
  H+  H27  1  0.90490340  0.53805636  1.00689169  1
  H+  H28  1  0.39945476  0.01475017  0.70298865  1
  H+  H29  1  0.48293369  0.61925492  0.67149122  1
  H+  H30  1  0.87840042  0.76834369  0.84036845  1
  H+  H31  1  0.95007063  0.34227947  0.14869893  1
  H+  H32  1  0.52303676  0.89202924  0.83159526  1
  H+  H33  1  0.10961163  0.21551000  0.49747439  1
  H+  H34  1  0.89281647  0.77203852  0.99857263  1
  H+  H35  1  0.38710031  0.62520857  0.49951970  1
  H+  H36  1  0.85866598  0.14261900  0.34070200  1
  H+  H37  1  0.34547160  0.84686648  0.67679528  1
  H+  H38  1  0.64696097  1.02917485  0.83735017  1
  H+  H39  1  0.40143172  0.52976422  0.32006304  1
  H+  H40  1  0.63827233  0.03979639  0.32239270  1
  H+  H41  1  0.55374118  0.35970831  0.75859593  1
  H+  H42  1  0.13611399  0.02070930  0.50457930  1
  H+  H43  1  0.21185274  0.61309153  0.65900151  1
  H+  H44  1  0.46940734  0.86459730  0.65580424  1
  H+  H45  1  0.35154578  0.22822140  -0.00296262  1
  H+  H46  1  0.41255200  0.09361563  0.22706286  1
  H+  H47  1  0.13723731  0.02453230  0.32408640  1
  H+  H48  1  0.87935813  0.10267070  0.50401271  1
  H+  H49  1  0.59967780  0.88116541  0.00146941  1
  H+  H50  1  0.70950891  0.92935700  0.61606444  1
  H+  H51  1  0.62475033  0.14181842  -0.00100513  1
  H+  H52  1  0.35501625  0.14111768  0.00256399  1
  H+  H53  1  0.36388752  1.00288483  0.68044023  1
  H+  H54  1  0.21861369  0.36171621  0.66723194  1
  H+  H55  1  0.70534849  0.11752121  0.50903755  1
  H+  H56  1  0.85773255  0.12284863  0.66307053  1
  H+  H57  1  0.48091200  0.61698598  0.49541431  1
  H+  H58  1  0.66268056  0.66079398  0.29410650  1
  H+  H59  1  0.03251208  0.38822991  0.48590093  1
  H+  H60  1  0.12769092  0.10467936  0.50622388  1
  H+  H61  1  0.10233705  0.52467510  0.98393402  1
  H+  H62  1  0.97280413  0.11534838  0.66238840  1
  H+  H63  1  0.38016060  0.27323793  0.32113098  1
  H+  H64  1  0.60847437  0.20558772  0.67426386  1
  H+  H65  1  0.46899717  0.11418101  0.98791831  1
  H+  H66  1  0.37505134  0.35913583  0.98429152  1
  H+  H67  1  0.19166375  0.57618693  0.16108644  1
  H+  H68  1  0.89139374  0.36746526  0.31592161  1
  H+  H69  1  0.08621004  0.40798566  0.76787052  1
  H+  H70  1  0.31053566  0.40962608  0.34968844  1
  H+  H71  1  0.53749155  0.80270404  0.29406335  1
  H+  H72  1  0.27764484  0.89746527  0.15665066  1
  H+  H73  1  0.62385439  0.39444028  0.00486777  1
  H+  H74  1  0.34593387  0.21797161  0.81901851  1
  H+  H75  1  0.90415382  0.53298370  0.31977387  1
  H+  H76  1  0.77484542  0.37813668  0.49281719  1
  H+  H77  1  0.17157617  0.83684137  0.56243940  1
  H+  H78  1  0.13076977  0.76979862  0.65572736  1
  H+  H79  1  0.85364358  0.38598975  0.15564687  1
  H+  H80  1  0.84995844  0.12754986  0.14647414  1
  H+  H81  1  0.86404086  0.85685101  0.51121547  1
  H+  H82  1  0.74445391  0.88257710  0.65660504  1
  H+  H83  1  0.50147769  0.88820408  0.15192363  1
  H+  H84  1  0.59943028  0.21936624  0.15116226  1
  H+  H85  1  0.36527961  -0.01428544  0.15545212  1
  H+  H86  1  0.87454306  0.64171227  0.01548725  1
  H+  H87  1  0.07647601  0.90698831  0.89931090  1
  H+  H88  1  0.76907012  0.64056901  0.47022158  1
  H+  H89  1  0.03334876  0.39363792  0.01973703  1
  H+  H90  1  0.48850650  0.89636031  0.32487878  1
  H+  H91  1  0.13924786  0.52064462  0.83219114  1
  H+  H92  1  0.60655636  0.49283249  0.71417141  1
  H+  H93  1  0.64140415  0.52132815  0.34859733  1
  H+  H94  1  0.03814849  0.64317453  0.48496428  1
  H+  H95  1  0.88385501  0.34217503  0.50038571  1
  H+  H96  1  0.22068091  0.11887693  0.99250509  1
  H+  H97  1  0.78422737  0.40120869  0.00675384  1
  H+  H98  1  0.88060131  0.03211985  0.83489210  1
  H+  H99  1  0.48204385  0.62175398  0.31251014  1
  H+  H100  1  0.27284821  0.14738166  0.15489892  1
  H+  H101  1  0.51457655  0.13172877  0.14767914  1
  H+  H102  1  1.02523059  0.88334988  0.48677960  1
  H+  H103  1  0.87600372  0.64661688  0.31977764  1
  H+  H104  1  0.39287017  0.87528238  0.32241015  1
  H+  H105  1  0.03923606  0.64238669  0.33190004  1
  H+  H106  1  0.78050219  0.65942507  0.66879675  1
  H+  H107  1  0.94984133  0.12990541  1.00684185  1
  H+  H108  1  0.24928662  0.84640128  0.67984060  1
  H+  H109  1  0.60878344  0.87099095  0.16284571  1
  H+  H110  1  0.59346362  0.97737292  0.15131278  1
  H+  H111  1  0.70875390  0.85022835  0.98959194  1
  H+  H112  1  0.92028908  0.86046034  0.16484885  1
  H+  H113  1  0.09613696  0.21510210  0.34172504  1
  H+  H114  1  0.46669470  0.10159430  0.83873109  1
  H+  H115  1  0.83734678  0.67372700  0.37496619  1
  H+  H116  1  0.07966432  0.16976079  0.05599767  1
  H+  H117  1  0.11396513  0.35435591  0.32154597  1
  H+  H118  1  0.60773105  0.90956907  0.34597459  1
  H+  H119  1  0.89554204  0.78373708  0.66912740  1
  H+  H120  1  0.08423001  0.91435011  0.42742082  1
  H+  H121  1  0.11711514  0.97987657  0.00170265  1
  H+  H122  1  0.64157414  0.36877816  0.50544249  1
  H+  H123  1  0.52655197  0.38826800  0.50342978  1
  H+  H124  1  0.03729430  0.88860657  0.16115468  1
  H+  H125  1  0.38379295  0.12467152  0.16744685  1
  H+  H126  1  0.83878874  0.43026863  0.71261131  1
  H+  H127  1  0.81428864  0.87221558  0.15536982  1
  H+  H128  1  0.35663261  0.47406880  0.00503470  1
  H+  H129  1  0.48211220  0.87629949  0.50103517  1
  H+  H130  1  0.27448191  0.89400740  0.48705562  1
  H+  H131  1  0.89371449  0.54356717  0.64445120  1
  H+  H132  1  0.14700538  0.66781933  0.13100037  1
  H+  H133  1  0.88640770  0.63718292  0.48934883  1
  H+  H134  1  0.10471878  0.22231810  0.67681628  1
  H+  H135  1  0.97094417  0.10738990  0.50704455  1
  H+  H136  1  0.37905022  0.87360999  0.16852754  1
  H+  H137  1  0.78353754  0.39211107  0.33248240  1
  H+  H138  1  0.56901424  0.48086469  0.69309352  1
  H+  H139  1  0.46489714  0.61278267  0.16413228  1
  H+  H140  1  0.26599066  0.89406121  0.33214601  1
  H+  H141  1  0.87396644  0.45300801  0.49330058  1
  H+  H142  1  0.87485108  0.48264237  0.15694794  1
  H+  H143  1  0.13073675  0.38729959  0.82394514  1
  H+  H144  1  0.34454170  0.72194023  0.66745750  1
  H+  H145  1  0.85067615  0.54369880  0.50632127  1
  H+  H146  1  0.13010551  0.02059923  0.66273904  1
  H+  H147  1  0.15225856  0.61790342  0.50249398  1
  H+  H148  1  0.36009427  0.14524091  0.48601835  1
  H+  H149  1  0.61399626  0.47883126  0.15255644  1
  H+  H150  1  0.11609884  0.72438419  0.82661023  1
  H+  H151  1  0.35872585  0.43003164  0.43778459  1
  H+  H152  1  0.33351519  0.73510340  0.16579980  1
  H+  H153  1  0.27362371  0.39208388  0.15527294  1
  H+  H154  1  0.80194633  0.38906105  0.85653303  1
  H+  H155  1  0.94146191  0.59122308  0.26008455  1
  H+  H156  1  0.60192267  0.14081631  0.49003539  1
  H+  H157  1  0.66659613  0.33689561  0.26958449  1
  H+  H158  1  0.22633187  0.27568815  0.54763702  1
  H+  H159  1  0.11092960  0.13452116  0.82982073  1
  H+  H160  1  0.60968873  0.78153946  0.16694803  1
  H+  H161  1  0.51803509  0.39420934  0.15197526  1
  H+  H162  1  0.24396490  0.35181420  0.84282893  1
  H+  H163  1  0.67961480  0.52386596  0.36439742  1
  H+  H164  1  0.22445163  0.10850827  0.83839554  1
  H+  H165  1  0.61013091  0.32249123  0.66915751  1
  H+  H166  1  0.90195062  0.74349283  0.16600158  1
  H+  H167  1  0.38488451  0.27832825  0.51098067  1
  H+  H168  1  0.90463517  0.78878324  0.31378203  1
  H+  H169  1  0.11918513  0.47823939  0.48462333  1
  H+  H170  1  0.76739049  0.88475737  0.48477607  1
  H+  H171  1  0.63626973  0.52120755  0.49707772  1
  H+  H172  1  0.99651720  0.35119434  0.85004507  1
  H+  H173  1  0.38428717  0.36096467  0.66728961  1
  H+  H174  1  0.72605218  0.12793227  0.31598788  1
  H+  H175  1  0.59342015  0.65052272  0.17093355  1
  H+  H176  1  0.07892032  0.44982320  0.17182680  1
  H+  H177  1  0.84812506  0.87024125  1.00052023  1
  H+  H178  1  0.96635436  0.85811033  0.84503371  1
  H+  H179  1  0.14201527  0.86419930  0.66164693  1
  H+  H180  1  0.72647318  0.61185253  0.84516628  1
  H+  H181  1  0.60618774  0.35188768  0.17477120  1
  H+  H182  1  0.35614572  -0.03336326  0.81973097  1
  H+  H183  1  0.85755704  0.97286833  0.49241483  1
  H+  H184  1  0.76009138  0.12725923  0.14653258  1
  H+  H185  1  0.37407682  0.50965884  0.16308272  1
  H+  H186  1  0.88241584  0.89837236  0.32916336  1
  H+  H187  1  0.24245018  0.35520487  0.51031839  1
  H+  H188  1  0.91649378  0.35918579  0.87219512  1
  H+  H189  1  0.10873506  0.38528418  0.67275027  1
  H+  H190  1  0.90289874  0.53785048  0.86712113  1
  H+  H191  1  0.86749548  0.25595414  0.16257709  1
  H+  H192  1  0.60908014  0.23226193  0.48411224  1
  H+  H193  1  0.31791523  0.66683979  0.72872802  1
  H+  H194  1  0.38731125  0.52647290  0.50239847  1
  H+  H195  1  0.60511313  0.97109745  0.67112504  1
  H+  H196  1  0.60219463  0.88250290  0.67524562  1
  H+  H197  1  0.04286667  0.64919153  0.04164886  1
  H+  H198  1  0.63493941  0.10067127  0.66119956  1
  H+  H199  1  0.38222918  0.11941469  0.32834661  1
  H+  H200  1  0.13921953  0.86370163  0.50273090  1
  H+  H201  1  0.14498074  0.78730500  0.16412623  1
  H+  H202  1  0.85249345  0.73277222  0.47395293  1
  H+  H203  1  0.65132691  0.65028632  0.64953157  1
  H+  H204  1  0.14375291  0.85795599  0.85321601  1
  H+  H205  1  0.86725067  0.97990787  0.67956755  1
  H+  H206  1  0.12712897  0.57706777  0.92451756  1
  H+  H207  1  0.62273706  0.64306270  0.01941841  1
  H+  H208  1  0.38711138  0.85932286  0.83854916  1
  H+  H209  1  0.86553082  0.63645863  0.83220811  1
  H+  H210  1  0.46056837  0.33909128  0.67587136  1
  H+  H211  1  0.99947913  0.61608889  0.16327488  1
  H+  H212  1  0.38985868  0.39581814  0.33945777  1
  H+  H213  1  0.26948925  0.87532607  0.83161085  1
  H+  H214  1  0.63338048  0.52776452  0.84923220  1
  H+  H215  1  0.54720056  0.38282640  0.86348475  1
  H+  H216  1  0.14041396  0.03104670  0.16812644  1
  H+  H217  1  0.47164151  0.11697710  0.32619075  1
  H+  H218  1  0.28302440  0.64001554  0.49811074  1
  H+  H219  1  0.73615362  0.88738053  0.15108692  1
  H+  H220  1  0.47041036  0.12036291  0.48821103  1
  H+  H221  1  0.65409874  0.27471270  0.84905670  1
  H+  H222  1  0.37334358  0.73184831  0.49316098  1
  H+  H223  1  0.66677595  0.82102348  0.56280063  1
  H+  H224  1  0.32700974  0.92828185  0.40034846  1
  H+  H225  1  0.61059650  0.72587315  0.01373719  1
  H+  H226  1  0.87964872  0.24032749  0.83893209  1
  H+  H227  1  0.31790703  0.86616179  -0.00878664  1
  H+  H228  1  0.89659405  0.37233292  0.01313870  1
  H+  H229  1  0.35751346  0.62627798  0.33600703  1
  H+  H230  1  0.68174081  0.08287349  0.89983400  1
  H+  H231  1  0.86529961  0.23520103  0.33462765  1
  H+  H232  1  0.68887800  0.62246154  0.13295272  1
  H+  H233  1  0.26835598  0.13968612  0.33662677  1
  H+  H234  1  0.64374264  0.02122176  0.98915982  1
  H+  H235  1  0.70571924  0.34497999  0.65988207  1
  H+  H236  1  0.60144300  0.61943325  0.47885237  1
  H+  H237  1  0.78061979  0.14878848  0.83172954  1
  H+  H238  1  0.61223670  0.82342640  0.50832915  1
  H+  H239  1  0.64311001  0.81917908  0.93453519  1
  H+  H240  1  0.86935361  0.89202890  0.68111043  1
  H+  H241  1  0.41613730  0.33591106  0.26221733  1
  H+  H242  1  0.15247387  0.77944313  0.31983642  1
  H+  H243  1  1.02498361  0.13970612  0.14481689  1
  H+  H244  1  0.75819251  0.11943947  0.65943941  1
  H+  H245  1  0.64630354  0.27489492  0.32535257  1
  H+  H246  1  0.88339327  0.01788686  0.33527819  1
  H+  H247  1  0.51290143  0.35493767  0.34821806  1
  H+  H248  1  0.13532084  0.27938078  0.16131229  1
  H+  H249  1  0.39305066  0.14126330  0.64255387  1
  H+  H250  1  0.71751846  0.86207899  0.84403222  1
  H+  H251  1  0.38335782  0.60756474  0.83531830  1
  H+  H252  1  0.39798904  0.56634840  0.93154037  1
  H+  H253  1  0.14043716  0.36819885  0.99298099  1
  H+  H254  1  0.12450817  0.52120472  0.65689484  1
  H+  H255  1  0.36273490  0.72925293  0.01261631  1
  H+  H256  1  0.66314793  0.32672754  0.56146459  1
  H+  H257  1  0.11511437  0.14335035  0.15325259  1
  H+  H258  1  0.34548348  0.21966224  0.67410762  1
  H+  H259  1  0.63414917  0.49665604  1.00595050  1
  H+  H260  1  0.89472904  0.26009741  0.50082075  1
  H+  H261  1  0.37685727  0.60000933  -0.00671565  1
  H+  H262  1  0.13460682  0.60752023  0.82778939  1
  H+  H263  1  0.61013122  0.74192088  0.68134640  1
  H+  H264  1  0.62297529  0.93150212  0.48958820  1
  H+  H265  1  0.36250406  -0.01403544  0.48420232  1
  H+  H266  1  0.33084857  0.17637209  0.09443215  1
  H+  H267  1  0.13496181  0.51763394  0.32755105  1
  H+  H268  1  0.10575538  0.63557345  0.66610835  1
  H+  H269  1  0.60281292  0.35670938  0.35228286  1
  H+  H270  1  0.23666812  0.60899672  0.33342843  1
  H+  H271  1  0.59695825  0.73249698  0.32791155  1
  H+  H272  1  0.36302237  0.72281427  0.82371373  1
  H+  H273  1  0.37850182  0.32388056  0.91936516  1
  H+  H274  1  0.75407676  0.66548630  0.29085560  1
  H+  H275  1  0.10420654  0.22712122  0.99717750  1
  H+  H276  1  0.61664871  0.64112800  0.82726837  1
  H+  H277  1  0.27283611  0.63527438  0.82215059  1
  H+  H278  1  0.86487386  0.65084225  0.66844499  1
  H+  H279  1  0.73984894  0.61668191  1.00222984  1
  H+  H280  1  0.33184130  0.41794847  0.61878896  1
  H+  H281  1  0.85500752  0.88805254  0.83562420  1
  H+  H282  1  0.14323954  0.61594385  0.32746930  1
  H+  H283  1  0.13175017  0.11025491  0.32708051  1
  H+  H284  1  0.98454832  0.62473484  0.84701456  1
  H+  H285  1  0.36072023  0.99545535  0.33669986  1
  H+  H286  1  0.87174607  0.01665144  0.13973500  1
  H+  H287  1  0.56965715  0.91727832  0.05766590  1
  H+  H288  1  0.15988005  0.78251541  1.00795935  1
  H+  H289  1  0.46964354  0.86958961  0.99019882  1
  H+  H290  1  0.38550122  0.28079982  0.16570342  1
  H+  H291  1  1.02954549  0.89057355  0.33205843  1
  H+  H292  1  0.91214355  0.30296478  0.98014851  1
  H+  H293  1  0.01288788  0.12525597  0.35097634  1
  H+  H294  1  0.84323645  0.41642545  0.39067402  1
  H+  H295  1  0.49915853  0.26540713  0.73458641  1
  H+  H296  1  0.16372172  0.32590129  0.60824911  1
  H+  H297  1  0.15521509  0.07596603  0.60075484  1
  H+  H298  1  0.58416754  0.16652724  0.05393403  1
  H+  H299  1  0.67730671  0.58939642  0.94233727  1
  H+  H300  1  0.62161588  0.83414937  0.25642870  1
  H+  H301  1  0.91720698  0.33121981  0.25722631  1
  H+  H302  1  0.32830603  0.67037227  0.07062984  1
  H+  H303  1  0.67274200  0.34312589  0.93704892  1
  H+  H304  1  0.08000355  0.67082163  0.76433252  1
  H+  H305  1  0.12848716  0.11453163  0.98856560  1
  H+  H306  1  0.90779549  0.05653747  0.20106941  1
  H+  H307  1  0.15629076  0.32916326  0.22411449  1
  H+  H308  1  0.32275630  0.15528083  0.76232097  1
  H+  H309  1  0.46985356  0.60645856  0.83939412  1
  H+  H310  1  0.14949312  0.27278009  0.83949125  1
  H+  H311  1  0.17742209  0.84014421  0.25996440  1
  H+  H312  1  0.66085885  0.08592160  0.22153916  1
  H+  H313  1  0.50365044  0.41146390  0.81461814  1
  H+  H314  1  0.03142114  0.88725017  0.00434333  1
  H+  H315  1  0.67120856  0.59587143  0.54839996  1
  H+  H316  1  0.91301674  0.31509584  0.59383056  1
  H+  H317  1  0.84686463  0.16241539  0.05387994  1
  H+  H318  1  0.57563519  0.67107879  0.10158994  1
  H+  H319  1  0.81819606  0.15392400  0.42380484  1
  H+  H320  1  0.92782335  0.84666938  0.61182959  1
  H+  H321  1  0.58491088  0.94749759  0.40675940  1
  H+  H322  1  0.16571681  0.09002468  0.22748942  1
  H+  H323  1  0.25963074  0.12822501  0.67096463  1
  H+  H324  1  0.31204625  0.87339227  0.74625321  1
  H+  H325  1  0.82412195  0.77524819  0.55300417  1
  H+  H326  1  0.33271993  0.42154081  0.09291570  1
  H+  H327  1  0.32777319  0.17472954  0.39646292  1
  H+  H328  1  0.11260942  0.44314672  0.06427135  1
  H+  H329  1  0.57246030  0.14399696  0.73177250  1
  H+  H330  1  0.40750202  0.57588924  0.22759598  1
  H+  H331  1  0.59373829  0.67693678  0.73645122  1
  H+  H332  1  0.57477173  0.39768495  0.44066743  1
  H+  H333  1  0.07579985  0.15987161  0.43634519  1
  H+  H334  1  0.91686575  0.60709632  0.58805214  1
  H+  H335  1  0.11642358  0.97860854  0.85014847  1
  H+  H336  1  0.68861379  0.61461890  0.20721944  1
  H+  H337  1  0.26946884  0.38193458  0.01075208  1
  H+  H338  1  0.84796059  0.67463904  0.07358249  1
  H+  H339  1  0.41493643  0.84647556  0.22775042  1
  H+  H340  1  0.41325326  0.84073106  0.59360620  1
  H+  H341  1  0.62236191  0.13515016  0.84969365  1
  H+  H342  1  0.41633723  0.60118095  0.61899602  1
  H+  H343  1  0.57782856  0.91866358  0.77046646  1
  H+  H344  1  0.08237776  0.16531581  0.77061808  1
  H+  H345  1  0.41731489  0.10258053  0.54884707  1
  H+  H346  1  0.57964044  0.16889450  0.39096696  1
  H+  H347  1  0.17735973  0.82311323  0.90702059  1
  H+  H348  1  0.91402706  0.08041359  0.60109698  1
  H+  H349  1  0.41508828  0.33173856  0.57394257  1
  H+  H350  1  0.88110336  0.42718815  0.81249665  1
  H+  H351  1  0.62843715  0.86143079  0.83983425  1
  H+  H352  1  0.94764075  0.60813572  0.95535444  1
  H+  H353  1  0.87134328  0.14211308  0.82438650  1
  H+  H354  1  0.63923769  0.27969233  0.99400320  1
  H+  H355  1  0.11921505  0.89070688  0.33541288  1
  H+  H356  1  0.58824055  0.42468843  0.06613783  1
  H+  H357  1  0.33061002  0.65508057  0.39832932  1
  H+  H358  1  1.02181271  0.64626292  0.66421428  1
  H+  H359  1  0.17319598  0.33811571  0.93456407  1
  H+  H360  1  0.09696824  0.92405954  0.09978074  1
  H+  H361  1  0.64978628  0.56362896  0.64667265  1
  H+  H362  1  0.41501872  0.83161840  0.89875824  1
  H+  H363  1  0.91630472  0.62457126  0.16957311  1
  H+  H364  1  0.82648392  0.91594407  0.77583055  1
  H+  H365  1  0.83323066  0.66249903  0.77109019  1
  H+  H366  1  0.94180572  0.84670246  0.25391067  1
  H+  H367  1  0.65711984  0.07756854  0.59537806  1
  H+  H368  1  0.54999949  0.27425380  0.21676961  1
  H+  H369  1  0.09423618  0.91852920  0.73929891  1
  H+  H370  1  0.47390877  0.12804841  0.64309554  1
  H+  H371  1  0.58310932  0.66678489  0.38244445  1
  H+  H372  1  0.91392956  0.82653587  0.93716075  1
  H+  H373  1  0.40303569  0.07730961  0.93374726  1
  H+  H374  1  0.91963274  0.09549479  0.28633815  1
  H+  H375  1  0.10231417  0.13174940  0.67317175  1
  H+  H376  1  0.80981269  0.90131769  0.05296117  1
  H+  H377  1  0.27052013  0.14282107  0.49262903  1
  H+  H378  1  0.16849506  0.08887670  0.90036192  1
  H+  H379  1  0.84363280  0.91431097  0.39044905  1
  H+  H380  1  0.09938977  0.67370671  0.39175993  1
  H+  H381  1  0.83867647  0.42807003  0.06816969  1
  H+  H382  1  0.93785202  0.47402265  0.70686427  1
  H+  H383  1  0.08083729  0.41797669  0.39279514  1
  O2-  O384  1  0.08723287  0.17546203  0.13655648  1
  O2-  O385  1  0.07246819  0.15633645  0.48213251  1
  O2-  O386  1  0.08337674  0.16795760  0.81580569  1
  O2-  O387  1  0.13113157  0.46298119  0.14993940  1
  O2-  O388  1  0.08829827  0.42079806  0.46519284  1
  O2-  O389  1  0.09149983  0.40942834  0.81297015  1
  O2-  O390  1  0.10194722  0.68417225  0.12229196  1
  O2-  O391  1  0.09836700  0.67282606  0.47190478  1
  O2-  O392  1  0.08036504  0.66556057  0.80925436  1
  O2-  O393  1  0.09974817  0.92805747  0.14477761  1
  O2-  O394  1  0.08505701  0.91412000  0.47365496  1
  O2-  O395  1  0.08385004  0.91331582  0.85503722  1
  O2-  O396  1  0.33371945  0.17855914  0.14035053  1
  O2-  O397  1  0.32972084  0.17801036  0.47605987  1
  O2-  O398  1  0.32709735  0.15736420  0.80799604  1
  O2-  O399  1  0.33448617  0.42482928  0.14092245  1
  O2-  O400  1  0.35045568  0.43059389  0.48283668  1
  O2-  O401  1  0.35619318  0.32264697  0.83322990  1
  O2-  O402  1  0.30325622  0.67353047  0.15091049  1
  O2-  O403  1  0.34397833  0.66905203  0.48147864  1
  O2-  O404  1  0.33255978  0.66493210  0.80503383  1
  O2-  O405  1  0.33790046  0.92524857  0.14221678  1
  O2-  O406  1  0.33277285  0.92511203  0.46774876  1
  O2-  O407  1  0.32669908  0.90370283  0.80963239  1
  O2-  O408  1  0.57511814  0.16178233  0.13219145  1
  O2-  O409  1  0.57669305  0.17237611  0.46856292  1
  O2-  O410  1  0.58892035  0.16711808  0.85314196  1
  O2-  O411  1  0.57881206  0.41867673  0.13679712  1
  O2-  O412  1  0.58509741  0.41654421  0.48530585  1
  O2-  O413  1  0.56247402  0.41605349  0.82580808  1
  O2-  O414  1  0.56144066  0.67225841  0.14842191  1
  O2-  O415  1  0.57038257  0.65118960  0.46684064  1
  O2-  O416  1  0.58723375  0.66887701  0.80720644  1
  O2-  O417  1  0.56230435  0.91735271  0.13533297  1
  O2-  O418  1  0.57847977  0.94437524  0.47814493  1
  O2-  O419  1  0.58368044  0.92394411  0.81534183  1
  O2-  O420  1  0.82144669  0.15954988  0.13243610  1
  O2-  O421  1  0.80525077  0.12624727  0.46568000  1
  O2-  O422  1  0.84165970  0.18120262  0.81576690  1
  O2-  O423  1  0.83413148  0.42485675  0.14044922  1
  O2-  O424  1  0.83411976  0.39712868  0.47592467  1
  O2-  O425  1  0.86587962  0.42265544  0.85531118  1
  O2-  O426  1  0.86978129  0.67950902  0.14911493  1
  O2-  O427  1  0.82981919  0.67507575  0.45567084  1
  O2-  O428  1  0.83064422  0.66165620  0.81612200  1
  O2-  O429  1  0.79667188  0.90925288  0.13542728  1
  O2-  O430  1  0.82936477  0.91310459  0.47550923  1
  O2-  O431  1  0.82542298  0.91907025  0.82077380  1
  O2-  O432  1  0.16700406  0.09242400  0.18226169  1
  O2-  O433  1  0.16256150  0.07960588  0.52194162  1
  O2-  O434  1  0.16447761  0.08135375  0.85459825  1
  O2-  O435  1  0.16711292  0.33840279  0.17980375  1
  O2-  O436  1  0.19738176  0.30655044  0.53430019  1
  O2-  O437  1  0.18413557  0.33439147  0.85221740  1
  O2-  O438  1  0.21314800  0.63831007  0.16857030  1
  O2-  O439  1  0.18088201  0.58684695  0.51840656  1
  O2-  O440  1  0.16864224  0.58227801  0.84382033  1
  O2-  O441  1  0.17247139  0.84241639  0.18653466  1
  O2-  O442  1  0.17198857  0.83563868  0.51702527  1
  O2-  O443  1  0.17337748  0.82479720  0.86113923  1
  O2-  O444  1  0.41621147  0.09618491  0.18223089  1
  O2-  O445  1  0.40989758  0.08903676  0.50383808  1
  O2-  O446  1  0.40441649  0.06850225  0.84619809  1
  O2-  O447  1  0.41799075  0.34119538  0.18238226  1
  O2-  O448  1  0.41593373  0.33776049  0.52862875  1
  O2-  O449  1  0.41151472  0.38621478  0.79830872  1
  O2-  O450  1  0.40413907  0.57393032  0.18124443  1
  O2-  O451  1  0.41956483  0.59092114  0.51360665  1
  O2-  O452  1  0.40998979  0.57596802  0.85343325  1
  O2-  O453  1  0.40575591  0.83790585  0.18291495  1
  O2-  O454  1  0.41978368  0.83746467  0.51458018  1
  O2-  O455  1  0.42041857  0.83244774  0.85334268  1
  O2-  O456  1  0.65887074  0.08153214  0.17617209  1
  O2-  O457  1  0.64683379  0.08913974  0.52593046  1
  O2-  O458  1  0.67990698  0.08924197  0.85396825  1
  O2-  O459  1  0.60731324  0.30523727  0.19893021  1
  O2-  O460  1  0.67266814  0.33718606  0.51724561  1
  O2-  O461  1  0.69039680  0.33814016  0.85751807  1
  O2-  O462  1  0.68232713  0.58392762  0.16620868  1
  O2-  O463  1  0.66643918  0.58571108  0.50379271  1
  O2-  O464  1  0.66825812  0.58776452  0.86391127  1
  O2-  O465  1  0.64044971  0.84228378  0.18129316  1
  O2-  O466  1  0.65670688  0.80920919  0.51810875  1
  O2-  O467  1  0.65525603  0.82780212  0.85456805  1
  O2-  O468  1  0.90936494  0.07398374  0.15904650  1
  O2-  O469  1  0.91016441  0.07551323  0.52289999  1
  O2-  O470  1  0.91018527  0.09563014  0.83944778  1
  O2-  O471  1  0.90265962  0.31722745  0.17760581  1
  O2-  O472  1  0.91873499  0.31783101  0.51771343  1
  O2-  O473  1  0.93875921  0.31891717  0.87041075  1
  O2-  O474  1  0.94294860  0.58954670  0.18361651  1
  O2-  O475  1  0.90425489  0.59830898  0.51006646  1
  O2-  O476  1  0.92768417  0.60073818  0.86818174  1
  O2-  O477  1  0.94773719  0.83355532  0.18643279  1
  O2-  O478  1  0.87763241  0.81476923  0.53227266  1
  O2-  O479  1  0.90475516  0.82843974  0.85611986  1
  O2-  O480  1  0.16549432  0.08533082  0.30945381  1
  O2-  O481  1  0.15457010  0.07974147  0.64618885  1
  O2-  O482  1  0.16094449  0.08553255  0.97514297  1
  O2-  O483  1  0.13311420  0.31387522  0.30451847  1
  O2-  O484  1  0.15769047  0.32890061  0.65285306  1
  O2-  O485  1  0.16680614  0.33303741  0.97944914  1
  O2-  O486  1  0.17189488  0.58092228  0.31564359  1
  O2-  O487  1  0.15151309  0.58045885  0.64022561  1
  O2-  O488  1  0.09173041  0.56554440  0.96120112  1
  O2-  O489  1  0.18058105  0.84070739  0.30636798  1
  O2-  O490  1  0.16819368  0.83201046  0.64311496  1
  O2-  O491  1  0.18878113  0.83514115  0.98273119  1
  O2-  O492  1  0.40920905  0.08530213  0.31362155  1
  O2-  O493  1  0.44071851  0.14521887  0.61726338  1
  O2-  O494  1  0.40837662  0.09138035  0.97734341  1
  O2-  O495  1  0.41542233  0.33469307  0.30774499  1
  O2-  O496  1  0.40797624  0.32443775  0.65252534  1
  O2-  O497  1  0.39508908  0.32416097  0.96208222  1
  O2-  O498  1  0.41944994  0.58628836  0.30055509  1
  O2-  O499  1  0.42153341  0.58433691  0.66012055  1
  O2-  O500  1  0.39540651  0.56068024  0.97681379  1
  O2-  O501  1  0.43211795  0.85807921  0.30513190  1
  O2-  O502  1  0.40996766  0.83794148  0.63913803  1
  O2-  O503  1  0.40771549  0.83773327  0.97558878  1
  O2-  O504  1  0.66604389  0.09687897  0.30066414  1
  O2-  O505  1  0.66559376  0.07312306  0.64139422  1
  O2-  O506  1  0.67992085  0.08171525  0.97388686  1
  O2-  O507  1  0.67910321  0.33709461  0.31353598  1
  O2-  O508  1  0.64795512  0.30792233  0.64438319  1
  O2-  O509  1  0.66695942  0.34192780  0.98197648  1
  O2-  O510  1  0.70758729  0.66498768  0.26603046  1
  O2-  O511  1  0.68166576  0.62187503  0.62981627  1
  O2-  O512  1  0.67789063  0.58446369  0.98785784  1
  O2-  O513  1  0.59814398  0.82051638  0.29932632  1
  O2-  O514  1  0.69181795  0.87222088  0.63217611  1
  O2-  O515  1  0.64521200  0.82203164  0.97976924  1
  O2-  O516  1  0.91027849  0.08464630  0.32973099  1
  O2-  O517  1  0.91137131  0.08282291  0.64666611  1
  O2-  O518  1  0.88644255  0.09378214  1.01238243  1
  O2-  O519  1  0.92115833  0.33549425  0.30252938  1
  O2-  O520  1  0.90780272  0.31129968  0.63956328  1
  O2-  O521  1  0.92663988  0.33855365  1.01652481  1
  O2-  O522  1  0.93795473  0.59360735  0.30577514  1
  O2-  O523  1  0.91820213  0.60451190  0.63347865  1
  O2-  O524  1  0.93823061  0.60171202  0.99981003  1
  O2-  O525  1  0.93726235  0.85020838  0.30129254  1
  O2-  O526  1  0.92914089  0.84638245  0.65674887  1
  O2-  O527  1  0.92255302  0.83182508  0.98197279  1
  O2-  O528  1  0.07029923  0.16592020  0.01127071  1
  O2-  O529  1  0.07578409  0.15805648  0.36093597  1
  O2-  O530  1  0.07113889  0.16073945  0.68936212  1
  O2-  O531  1  0.09793677  0.42609925  0.02147727  1
  O2-  O532  1  0.08223567  0.41904980  0.34622153  1
  O2-  O533  1  0.07593538  0.41323333  0.68756987  1
  O2-  O534  1  0.10321135  0.68906534  0.05552872  1
  O2-  O535  1  0.10103538  0.67203593  0.34636755  1
  O2-  O536  1  0.08035919  0.67103914  0.68179818  1
  O2-  O537  1  0.09420757  0.91865789  0.01369029  1
  O2-  O538  1  0.08899880  0.91955765  0.35214606  1
  O2-  O539  1  0.09168322  0.91732576  0.69492067  1
  O2-  O540  1  0.32369522  0.17052611  0.01789462  1
  O2-  O541  1  0.32958029  0.17183731  0.35103440  1
  O2-  O542  1  0.32008165  0.15810079  0.68620509  1
  O2-  O543  1  0.33014665  0.41350601  0.02558409  1
  O2-  O544  1  0.37089213  0.43530033  0.36024142  1
  O2-  O545  1  0.33022609  0.41758330  0.66315702  1
  O2-  O546  1  0.35174611  0.67428575  0.02958277  1
  O2-  O547  1  0.32083999  0.64768026  0.35389279  1
  O2-  O548  1  0.30518735  0.66502216  0.68420609  1
  O2-  O549  1  0.38133442  0.90091606  -0.00955088  1
  O2-  O550  1  0.32765260  0.93144086  0.35232815  1
  O2-  O551  1  0.29592477  0.84225694  0.70390435  1
  O2-  O552  1  0.59232524  0.17174390  0.00863977  1
  O2-  O553  1  0.57720377  0.16940079  0.34543499  1
  O2-  O554  1  0.57857866  0.14434606  0.68768058  1
  O2-  O555  1  0.59808818  0.43081431  0.01987243  1
  O2-  O556  1  0.55523984  0.35454850  0.37650358  1
  O2-  O557  1  0.53876732  0.32376377  0.72085003  1
  O2-  O558  1  0.59465064  0.67252687  0.03781686  1
  O2-  O559  1  0.58249670  0.67219868  0.33766206  1
  O2-  O560  1  0.59392269  0.68250431  0.68966576  1
  O2-  O561  1  0.57357206  0.91766895  0.01218910  1
  O2-  O562  1  0.58847655  0.94942031  0.35996327  1
  O2-  O563  1  0.57118323  0.91186932  0.68844245  1
  O2-  O564  1  0.85488179  0.15513036  0.00968336  1
  O2-  O565  1  0.82946500  0.17564885  0.35133168  1
  O2-  O566  1  0.82210195  0.15213688  0.67438379  1
  O2-  O567  1  0.84376228  0.43065137  0.02186205  1
  O2-  O568  1  0.84537273  0.42208477  0.34598290  1
  O2-  O569  1  0.88475780  0.44547892  0.68310743  1
  O2-  O570  1  0.83917534  0.66848468  0.02826386  1
  O2-  O571  1  0.84546150  0.67824713  0.33028893  1
  O2-  O572  1  0.83808361  0.68188705  0.68798611  1
  O2-  O573  1  0.80829172  0.89199376  0.00881702  1
  O2-  O574  1  0.84924454  0.92493992  0.34625073  1
  O2-  O575  1  0.83417222  0.91873223  0.69291746  1
