# generated using pymatgen
data_H2O
_symmetry_space_group_name_H-M   'P 1'
_cell_length_a   17.99795133
_cell_length_b   17.98737375
_cell_length_c   22.01588002
_cell_angle_alpha   90.01580598
_cell_angle_beta   89.94753013
_cell_angle_gamma   120.01961861
_symmetry_Int_Tables_number   1
_chemical_formula_structural   H2O
_chemical_formula_sum   'H384 O192'
_cell_volume   6171.22572127
_cell_formula_units_Z   192
loop_
 _symmetry_equiv_pos_site_id
 _symmetry_equiv_pos_as_xyz
  1  'x, y, z'
loop_
 _atom_type_symbol
 _atom_type_oxidation_number
  H+  1.0
  O2-  -2.0
loop_
 _atom_site_type_symbol
 _atom_site_label
 _atom_site_symmetry_multiplicity
 _atom_site_fract_x
 _atom_site_fract_y
 _atom_site_fract_z
 _atom_site_occupancy
  H+  H0  1  0.07883347  0.90397588  0.10433472  1
  H+  H1  1  0.37177174  0.48226599  0.49407183  1
  H+  H2  1  0.14318488  0.61643512  0.66558854  1
  H+  H3  1  0.85836825  0.63462658  1.01427969  1
  H+  H4  1  0.32454135  0.66183807  0.40104829  1
  H+  H5  1  0.53480881  0.85375313  0.16259618  1
  H+  H6  1  0.87916406  0.26609354  0.33035633  1
  H+  H7  1  0.10800516  0.38949348  0.82892481  1
  H+  H8  1  0.52027215  0.86872414  0.66607106  1
  H+  H9  1  0.64305955  0.02053049  1.01306832  1
  H+  H10  1  0.63534565  0.10746472  0.32436126  1
  H+  H11  1  0.11733089  0.24800235  0.82861172  1
  H+  H12  1  0.35742220  0.37687751  0.00683836  1
  H+  H13  1  0.88963230  0.52986240  0.84198383  1
  H+  H14  1  0.72814601  0.86064193  0.66023810  1
  H+  H15  1  0.57735331  0.41275753  0.72839134  1
  H+  H16  1  0.86246129  0.63694807  0.15281507  1
  H+  H17  1  0.10060384  0.96796404  0.16239965  1
  H+  H18  1  0.52809383  0.14303488  0.33441744  1
  H+  H19  1  0.60704708  0.47373020  0.66877117  1
  H+  H20  1  0.22398775  0.60269213  0.32853306  1
  H+  H21  1  0.71365576  0.08626678  0.17478709  1
  H+  H22  1  0.85465040  0.62777804  0.67028466  1
  H+  H23  1  0.54604766  0.16319254  0.17148918  1
  H+  H24  1  0.13928420  0.36935947  -0.00688765  1
  H+  H25  1  0.89306218  1.01919338  0.66554174  1
  H+  H26  1  0.35627662  0.62745485  0.34545544  1
  H+  H27  1  0.47683487  0.03017775  0.53540944  1
  H+  H28  1  0.10392472  0.23272800  -0.00380672  1
  H+  H29  1  0.86695320  0.47529398  0.32901633  1
  H+  H30  1  0.57990242  0.92377282  0.44123717  1
  H+  H31  1  0.27909475  0.14434257  0.34256468  1
  H+  H32  1  0.88778104  0.81933485  0.25492705  1
  H+  H33  1  0.75863247  0.62346645  0.82307987  1
  H+  H34  1  0.38439880  0.76894419  0.50088723  1
  H+  H35  1  0.14613582  0.07094738  0.87321399  1
  H+  H36  1  0.35617403  0.46924398  0.16751011  1
  H+  H37  1  0.14204167  0.51968347  0.17274071  1
  H+  H38  1  0.25893493  0.12983565  0.67151931  1
  H+  H39  1  0.34776653  0.91375421  0.16546683  1
  H+  H40  1  0.13272318  0.51388884  0.32688672  1
  H+  H41  1  0.12638895  0.16558415  0.83080310  1
  H+  H42  1  0.02453946  0.39068463  0.16848438  1
  H+  H43  1  0.08172799  0.12878036  0.14046769  1
  H+  H44  1  0.00393999  0.73606691  0.73314089  1
  H+  H45  1  0.72049324  0.60771061  0.65594539  1
  H+  H46  1  0.36160487  0.87834610  0.33696723  1
  H+  H47  1  0.33570452  -0.02021443  0.64312661  1
  H+  H48  1  0.12371256  0.35971366  0.67205591  1
  H+  H49  1  0.98429913  0.90022440  0.48576699  1
  H+  H50  1  0.90649886  0.48939981  0.12261031  1
  H+  H51  1  0.12735292  0.35465443  0.17671312  1
  H+  H52  1  0.14617365  0.53072561  0.66624503  1
  H+  H53  1  0.76048643  0.88472408  0.33088873  1
  H+  H54  1  0.67876880  0.83041528  0.89503620  1
  H+  H55  1  0.12124794  0.95541276  0.01914530  1
  H+  H56  1  0.38083348  0.76331817  0.32984240  1
  H+  H57  1  0.39047865  0.61282948  0.83723481  1
  H+  H58  1  0.40101393  0.77499868  1.01864371  1
  H+  H59  1  0.48412717  0.37848744  0.50364214  1
  H+  H60  1  0.11851234  0.08571907  0.66678067  1
  H+  H61  1  0.39168289  0.74602692  0.17131715  1
  H+  H62  1  0.27243736  0.62730555  0.82827608  1
  H+  H63  1  0.77335795  0.98342139  0.78093056  1
  H+  H64  1  0.19438004  0.05190186  0.95033916  1
  H+  H65  1  0.36536798  0.42325333  0.64844536  1
  H+  H66  1  0.60744642  0.05214023  0.17115478  1
  H+  H67  1  0.64749265  0.24759303  0.67632854  1
  H+  H68  1  0.14508723  0.36268402  0.52230011  1
  H+  H69  1  0.11922612  0.83768548  0.99412358  1
  H+  H70  1  0.62888868  1.03762882  0.82944235  1
  H+  H71  1  0.85480037  0.12716295  0.49268984  1
  H+  H72  1  0.65630861  0.77105423  0.98732056  1
  H+  H73  1  0.61086661  0.63290237  0.67022671  1
  H+  H74  1  0.76879565  0.12896818  0.33708591  1
  H+  H75  1  0.09656895  0.46560359  0.00428660  1
  H+  H76  1  0.02146648  0.13238820  0.34889880  1
  H+  H77  1  0.35483885  0.95617792  0.48918939  1
  H+  H78  1  0.46447182  0.36426599  0.99447993  1
  H+  H79  1  0.11762035  -0.04425799  0.82192637  1
  H+  H80  1  0.32943275  0.63724568  0.10402010  1
  H+  H81  1  0.89964715  0.60223756  0.29436183  1
  H+  H82  1  0.31566058  0.74000574  0.98457154  1
  H+  H83  1  0.95704219  0.59568538  1.00026571  1
  H+  H84  1  0.12470683  0.52048446  0.83636797  1
  H+  H85  1  0.26463014  0.38091131  0.16614940  1
  H+  H86  1  0.97836981  0.12168370  0.84525100  1
  H+  H87  1  0.02767532  0.13328854  0.50350313  1
  H+  H88  1  0.64762742  0.13402874  0.50702680  1
  H+  H89  1  0.84581718  0.73803515  0.33778766  1
  H+  H90  1  0.20600931  0.83844303  -0.01250615  1
  H+  H91  1  0.99173890  0.88083002  0.65302181  1
  H+  H92  1  0.12950782  0.35478231  0.32914926  1
  H+  H93  1  0.38570259  0.60838684  0.18133893  1
  H+  H94  1  0.11993340  0.14231577  0.50138361  1
  H+  H95  1  0.72209269  0.61589902  0.50442705  1
  H+  H96  1  0.34516198  0.13089697  0.66550280  1
  H+  H97  1  0.63695244  0.04018133  0.50977181  1
  H+  H98  1  0.23827756  0.09660462  0.01214005  1
  H+  H99  1  0.33722843  0.41442736  0.43740287  1
  H+  H100  1  0.60229264  -0.03465670  0.66834563  1
  H+  H101  1  0.96466406  0.62523534  0.66719580  1
  H+  H102  1  0.61037322  0.48538567  0.48658520  1
  H+  H103  1  0.12761268  0.26778392  0.67322036  1
  H+  H104  1  0.41305925  0.84176678  0.16355488  1
  H+  H105  1  0.88485807  1.02334992  0.32974587  1
  H+  H106  1  0.61480204  0.38907106  0.82146072  1
  H+  H107  1  1.03324946  0.63383984  0.32964152  1
  H+  H108  1  0.35525946  0.97059215  0.01347644  1
  H+  H109  1  0.61992140  0.72612976  0.67472118  1
  H+  H110  1  0.38687201  1.02214499  0.32935528  1
  H+  H111  1  0.22788825  0.37399544  0.83563034  1
  H+  H112  1  0.66796660  0.12985302  0.67161012  1
  H+  H113  1  0.89460222  0.77250190  0.99811411  1
  H+  H114  1  0.60723418  0.35486358  0.64808403  1
  H+  H115  1  0.86148541  -0.00325980  1.01357273  1
  H+  H116  1  0.86392121  0.87959176  0.68517108  1
  H+  H117  1  0.79413454  0.31137340  0.97274130  1
  H+  H118  1  0.40216340  0.05059226  0.17264734  1
  H+  H119  1  0.77429847  0.14073165  0.49694440  1
  H+  H120  1  0.01806190  0.62946357  0.48827648  1
  H+  H121  1  0.12668890  0.86626222  0.18423658  1
  H+  H122  1  0.87597167  0.22284377  0.66848583  1
  H+  H123  1  0.61930930  -0.05335669  0.16521839  1
  H+  H124  1  0.65286920  0.25332088  0.98074782  1
  H+  H125  1  0.07730970  -0.05576949  0.31756729  1
  H+  H126  1  0.38943358  -0.00899288  0.80366394  1
  H+  H127  1  0.74998387  0.62159693  0.16675818  1
  H+  H128  1  0.41168201  0.32938946  0.89776459  1
  H+  H129  1  0.62133879  0.49125331  0.16274983  1
  H+  H130  1  0.64839916  0.85558839  -0.00949833  1
  H+  H131  1  0.15747594  0.06802790  0.56355949  1
  H+  H132  1  0.93524741  0.32910175  0.59461704  1
  H+  H133  1  0.78583257  0.13425788  0.67281350  1
  H+  H134  1  0.35345646  0.38544934  0.82561627  1
  H+  H135  1  0.60127120  0.47912161  0.00727324  1
  H+  H136  1  0.07852903  0.41923983  0.73643593  1
  H+  H137  1  0.38555970  0.12266120  0.82045216  1
  H+  H138  1  0.35780962  0.71624482  0.83152749  1
  H+  H139  1  0.85932994  0.49589310  0.48431879  1
  H+  H140  1  0.28736035  0.14656682  0.18275694  1
  H+  H141  1  0.13205234  0.60670059  0.50734414  1
  H+  H142  1  0.72428177  0.11524083  0.01648342  1
  H+  H143  1  0.35448277  0.46746831  0.34518044  1
  H+  H144  1  0.88138402  0.27822729  0.84770101  1
  H+  H145  1  0.94877993  0.10922406  0.17320270  1
  H+  H146  1  0.64143011  0.28855784  0.49078063  1
  H+  H147  1  0.14572038  0.48929535  0.49665377  1
  H+  H148  1  0.86150222  0.85878090  0.31392025  1
  H+  H149  1  0.37918910  0.27176173  0.32787109  1
  H+  H150  1  0.85724503  0.62439147  0.82868272  1
  H+  H151  1  0.85953957  0.65988436  0.35364937  1
  H+  H152  1  0.22373875  0.88655093  0.18200438  1
  H+  H153  1  0.52730719  0.63311292  0.82600510  1
  H+  H154  1  -0.03247575  0.12820601  -0.00440094  1
  H+  H155  1  -0.00079178  0.34977783  0.50316535  1
  H+  H156  1  0.07982206  0.76040371  0.68843994  1
  H+  H157  1  0.63399241  0.52384613  0.32188954  1
  H+  H158  1  0.72550845  0.11871232  0.83369499  1
  H+  H159  1  0.47621699  0.61502215  0.49576031  1
  H+  H160  1  0.61045454  0.12411735  0.01949145  1
  H+  H161  1  0.64560093  0.83943882  0.16737673  1
  H+  H162  1  0.62883937  0.85414260  0.31925278  1
  H+  H163  1  0.48955226  0.64119828  0.65129100  1
  H+  H164  1  0.86626930  0.37019138  1.01591989  1
  H+  H165  1  0.15068984  0.32294598  0.59874209  1
  H+  H166  1  0.63276529  0.61620593  0.50281855  1
  H+  H167  1  0.23630178  0.85508141  0.32937697  1
  H+  H168  1  0.87292790  0.75159615  0.16426434  1
  H+  H169  1  0.55632508  0.92378609  0.76127979  1
  H+  H170  1  0.37100833  0.89514876  0.81910649  1
  H+  H171  1  0.39943364  0.51414904  -0.00794120  1
  H+  H172  1  0.12792595  0.93616230  0.66248371  1
  H+  H173  1  0.98546301  0.86919460  0.33046832  1
  H+  H174  1  0.34422590  0.87644929  0.01843602  1
  H+  H175  1  0.61035486  0.47509020  0.81950505  1
  H+  H176  1  0.02633073  0.13361832  0.67896030  1
  H+  H177  1  0.60381506  0.72621048  0.49023746  1
  H+  H178  1  0.78515710  0.39071882  0.64217638  1
  H+  H179  1  0.88038390  0.35594709  0.33307290  1
  H+  H180  1  0.71891546  0.61600745  0.32914426  1
  H+  H181  1  0.37209954  0.36137874  0.33036800  1
  H+  H182  1  0.84258859  0.23341263  0.02114550  1
  H+  H183  1  0.34792723  0.86623531  0.49229874  1
  H+  H184  1  0.26366054  0.37737709  0.34421962  1
  H+  H185  1  0.61221624  0.39715745  0.48425425  1
  H+  H186  1  0.51673506  0.89762133  0.49809292  1
  H+  H187  1  0.60370060  0.71916373  0.33503426  1
  H+  H188  1  0.12606877  0.26199185  0.52490754  1
  H+  H189  1  0.16473661  0.13473271  0.21275052  1
  H+  H190  1  0.29703141  0.69487658  0.66005196  1
  H+  H191  1  0.03837990  0.92481466  0.42399685  1
  H+  H192  1  0.28070893  0.42313691  0.66333305  1
  H+  H193  1  0.14797557  0.83460973  0.60497292  1
  H+  H194  1  0.23810886  0.10093948  0.84373560  1
  H+  H195  1  0.20780233  0.58671468  0.98817213  1
  H+  H196  1  0.84148198  0.85643067  0.50460058  1
  H+  H197  1  0.01430628  0.37775637  0.34366572  1
  H+  H198  1  0.82852022  0.43251294  0.41757892  1
  H+  H199  1  0.47734906  0.62298748  0.20008649  1
  H+  H200  1  0.62649581  0.14941575  0.82809637  1
  H+  H201  1  0.51131269  0.12367036  0.65642868  1
  H+  H202  1  0.60473899  0.63056409  0.33611537  1
  H+  H203  1  0.73700991  0.37831528  0.83182463  1
  H+  H204  1  0.48803902  0.60477060  0.98919979  1
  H+  H205  1  0.37675751  0.28341625  0.65339899  1
  H+  H206  1  0.92546883  0.06128791  0.57622268  1
  H+  H207  1  0.85869017  0.15214522  1.01815751  1
  H+  H208  1  0.63478180  0.62500170  0.15177314  1
  H+  H209  1  0.21230836  0.85005505  0.51384444  1
  H+  H210  1  0.15163933  0.03948055  0.36942700  1
  H+  H211  1  0.54192675  0.88709468  0.00892080  1
  H+  H212  1  0.87454938  0.39593918  0.83022157  1
  H+  H213  1  0.37461833  0.14198344  0.02923037  1
  H+  H214  1  0.02494802  0.87168884  0.01502805  1
  H+  H215  1  0.34395520  0.10344310  0.47921144  1
  H+  H216  1  0.90684617  0.08551731  0.23844459  1
  H+  H217  1  0.40980786  0.81355944  0.56420118  1
  H+  H218  1  0.20406640  0.86080590  0.66561054  1
  H+  H219  1  0.01524634  0.37222157  0.01280613  1
  H+  H220  1  0.11646594  1.02312797  0.49993485  1
  H+  H221  1  0.49438074  0.95400058  0.78745409  1
  H+  H222  1  0.08807586  0.70109504  0.00114340  1
  H+  H223  1  0.84397444  0.48214853  1.03997031  1
  H+  H224  1  0.63958586  0.36929537  0.31634235  1
  H+  H225  1  0.78042637  0.41551244  0.09085357  1
  H+  H226  1  0.89572968  0.52551731  0.66025119  1
  H+  H227  1  0.62751859  0.62986863  -0.01013100  1
  H+  H228  1  0.89843562  0.87855201  0.85491009  1
  H+  H229  1  0.14080598  0.75825297  0.32568566  1
  H+  H230  1  0.73685926  0.87945471  0.49119627  1
  H+  H231  1  0.38218017  0.27013686  -0.00342120  1
  H+  H232  1  0.01651250  0.38581938  0.83359123  1
  H+  H233  1  0.64994605  0.82810524  0.57007964  1
  H+  H234  1  0.35731080  0.59761803  0.00834235  1
  H+  H235  1  0.52120474  0.38909409  0.33367916  1
  H+  H236  1  0.78180178  0.89761402  0.00439749  1
  H+  H237  1  0.16971365  0.83373759  0.26767205  1
  H+  H238  1  0.60923461  -0.03185144  0.34186962  1
  H+  H239  1  0.14151252  0.65148898  0.16795219  1
  H+  H240  1  0.47263735  0.36144461  0.83850428  1
  H+  H241  1  0.37782112  0.36601791  0.18243849  1
  H+  H242  1  0.12038609  0.63119169  0.33504078  1
  H+  H243  1  0.84960250  0.73236903  0.50082366  1
  H+  H244  1  0.61480343  0.86165557  0.51471616  1
  H+  H245  1  0.27176878  0.63685928  0.49633264  1
  H+  H246  1  0.64941036  0.28761471  0.83135309  1
  H+  H247  1  0.89346526  0.10936160  0.66192753  1
  H+  H248  1  0.38164134  0.15678135  0.17686657  1
  H+  H249  1  0.27083402  0.53556483  0.04007223  1
  H+  H250  1  0.83105914  0.96401052  0.49058220  1
  H+  H251  1  0.52075193  0.87922092  0.34395562  1
  H+  H252  1  0.09913139  0.22300794  0.15889829  1
  H+  H253  1  1.02663962  0.39106393  0.67300774  1
  H+  H254  1  0.64362494  0.18384669  0.17462906  1
  H+  H255  1  0.64564306  0.77066966  0.83574115  1
  H+  H256  1  0.66340287  0.31087604  0.16409466  1
  H+  H257  1  0.92414691  0.40815106  0.19020834  1
  H+  H258  1  0.64743430  0.75162514  0.16681524  1
  H+  H259  1  0.53541135  0.15105710  0.48532066  1
  H+  H260  1  0.13869192  0.74062012  0.17364777  1
  H+  H261  1  0.46822599  0.60269330  0.33544554  1
  H+  H262  1  0.86516653  0.72108618  0.67355810  1
  H+  H263  1  0.76577457  0.40071052  0.48290693  1
  H+  H264  1  0.86348551  0.86619622  0.14653279  1
  H+  H265  1  0.16608770  0.58486496  0.56925076  1
  H+  H266  1  0.38703328  0.11222469  0.32897030  1
  H+  H267  1  0.31907109  0.84023235  0.66971747  1
  H+  H268  1  0.08627567  0.61222127  0.00003740  1
  H+  H269  1  0.12655745  0.76181113  0.51493585  1
  H+  H270  1  0.38658961  0.27825124  0.18528535  1
  H+  H271  1  0.96293553  0.84622650  0.17078686  1
  H+  H272  1  0.88383352  0.03845820  0.83931929  1
  H+  H273  1  0.77063448  0.39238899  0.33230113  1
  H+  H274  1  0.83503166  0.12151183  0.17374196  1
  H+  H275  1  0.53985145  0.60609584  0.13394399  1
  H+  H276  1  0.53889971  0.15429647  0.81717285  1
  H+  H277  1  0.95154924  0.00847215  0.53249711  1
  H+  H278  1  0.22865094  0.36841547  0.99294251  1
  H+  H279  1  0.48478109  0.11000580  1.01773574  1
  H+  H280  1  0.49388576  0.15271150  0.66485963  1
  H+  H281  1  0.74649865  0.60560399  0.98962368  1
  H+  H282  1  0.90504804  0.27087529  0.50252136  1
  H+  H283  1  0.63961043  0.61559003  0.83425394  1
  H+  H284  1  0.88313570  0.62265748  0.50570946  1
  H+  H285  1  0.89134160  0.35182848  0.64964524  1
  H+  H286  1  0.87035638  0.15099797  0.83032762  1
  H+  H287  1  0.97737432  0.86832544  0.83683415  1
  H+  H288  1  0.41063051  0.05410375  0.56136935  1
  H+  H289  1  0.40534021  0.82320645  0.90695872  1
  H+  H290  1  0.68064824  0.59247111  0.22809719  1
  H+  H291  1  0.65749805  0.06431540  0.26857135  1
  H+  H292  1  0.53027807  0.40367669  0.16969181  1
  H+  H293  1  0.59292154  0.89734586  0.07092149  1
  H+  H294  1  0.80640966  0.15615083  0.11554938  1
  H+  H295  1  0.46165742  0.86057552  0.84648245  1
  H+  H296  1  0.66158168  0.57960534  0.59612725  1
  H+  H297  1  0.64758785  0.21243776  0.74286750  1
  H+  H298  1  0.34275135  0.17896805  0.08262425  1
  H+  H299  1  0.46848820  0.36861513  0.65786799  1
  H+  H300  1  0.77075581  0.32720936  0.69374325  1
  H+  H301  1  0.32720634  0.17399384  0.76208011  1
  H+  H302  1  0.58124241  0.66778460  0.42941062  1
  H+  H303  1  0.94436691  0.57361538  0.24794886  1
  H+  H304  1  0.12844051  0.76889056  0.89341697  1
  H+  H305  1  0.08230265  0.65907379  0.43166040  1
  H+  H306  1  0.15158506  0.56745458  0.92765979  1
  H+  H307  1  0.56320182  0.26448104  0.61672095  1
  H+  H308  1  0.68650332  0.31724713  0.92315720  1
  H+  H309  1  0.58610515  0.66161762  0.76619768  1
  H+  H310  1  0.88288024  0.84045470  0.56559465  1
  H+  H311  1  0.07195424  0.68774802  0.78637389  1
  H+  H312  1  0.43114999  0.09506645  0.23779429  1
  H+  H313  1  0.32778508  0.90317786  0.39749209  1
  H+  H314  1  0.42276862  0.58060422  0.89406179  1
  H+  H315  1  0.59352056  0.17679664  0.07171732  1
  H+  H316  1  0.65549751  0.39365920  0.16689605  1
  H+  H317  1  0.08308745  0.41216630  0.39891291  1
  H+  H318  1  0.13206657  0.61360337  0.84191638  1
  H+  H319  1  0.33204584  0.40992957  0.06739641  1
  H+  H320  1  0.82370792  0.66439859  0.07162227  1
  H+  H321  1  0.81353675  0.91066882  0.39215785  1
  H+  H322  1  0.42185197  0.71633687  0.63723477  1
  H+  H323  1  0.91178671  0.58403061  0.56133739  1
  H+  H324  1  0.83569862  0.91602158  0.08048579  1
  H+  H325  1  0.06833403  0.17845021  0.05648621  1
  H+  H326  1  0.63826732  0.85982488  0.66555829  1
  H+  H327  1  0.58036320  0.41946698  0.39226227  1
  H+  H328  1  0.41591898  0.81872846  0.26944560  1
  H+  H329  1  0.31967306  0.93125261  0.10139530  1
  H+  H330  1  0.82629193  0.92155366  0.73228464  1
  H+  H331  1  0.82649156  0.16100018  0.39735206  1
  H+  H332  1  0.07810436  0.93832276  0.75689968  1
  H+  H333  1  0.36161066  0.23196058  0.82358619  1
  H+  H334  1  0.92371474  0.34203632  0.23769189  1
  H+  H335  1  0.59204051  0.18134034  0.42440113  1
  H+  H336  1  0.36079457  0.63536758  0.49056663  1
  H+  H337  1  0.13145231  0.26687718  0.33320249  1
  H+  H338  1  0.19683777  0.45825865  0.45619604  1
  H+  H339  1  0.88904613  0.56482469  0.94624060  1
  H+  H340  1  0.15713303  0.32150137  0.23463076  1
  H+  H341  1  0.96888817  0.62434815  0.85520285  1
  H+  H342  1  0.42334401  0.59825423  0.55684649  1
  H+  H343  1  0.26476210  0.11735862  0.48765112  1
  H+  H344  1  0.38844941  0.38506640  0.50232932  1
  H+  H345  1  0.34143423  0.17052005  0.39743755  1
  H+  H346  1  0.88966885  0.11425322  0.33230957  1
  H+  H347  1  0.39257125  0.56854770  0.64439722  1
  H+  H348  1  1.02273140  0.63246138  0.16734542  1
  H+  H349  1  0.84487556  0.17856285  0.76835166  1
  H+  H350  1  0.08707877  0.16756281  0.73781308  1
  H+  H351  1  0.16922721  0.34561644  0.89664435  1
  H+  H352  1  0.17939027  0.08031644  0.25959642  1
  H+  H353  1  0.66162085  0.34349502  0.55158142  1
  H+  H354  1  0.39558974  0.07017688  0.87329489  1
  H+  H355  1  0.93283466  0.83325760  0.94017851  1
  H+  H356  1  0.56797232  0.42892461  0.07039752  1
  H+  H357  1  0.60582077  0.65662780  0.05312228  1
  H+  H358  1  0.40386589  0.56969375  0.27914895  1
  H+  H359  1  0.82799524  0.65377376  0.76215744  1
  H+  H360  1  0.42175704  0.34818123  0.56647776  1
  H+  H361  1  0.67647078  0.58129800  0.89057698  1
  H+  H362  1  0.40626127  0.33672444  0.25607684  1
  H+  H363  1  0.82740041  0.67925937  0.43948534  1
  H+  H364  1  0.61776798  0.23169275  0.32778051  1
  H+  H365  1  0.90147197  0.09330083  0.94095018  1
  H+  H366  1  0.42507802  0.09680957  0.96228663  1
  H+  H367  1  0.89803409  0.33608111  0.90787853  1
  H+  H368  1  0.66207867  0.81977697  0.26180868  1
  H+  H369  1  0.70927417  0.51621773  0.95497674  1
  H+  H370  1  0.68082750  0.35359399  0.25624792  1
  H+  H371  1  0.77382255  0.86755484  0.15016249  1
  H+  H372  1  0.28490168  0.00916380  0.60168536  1
  H+  H373  1  0.33133491  0.90411969  0.72279566  1
  H+  H374  1  0.85543104  0.42764544  0.76717090  1
  H+  H375  1  0.08055214  0.16836578  0.40946097  1
  H+  H376  1  0.75211781  0.90029957  0.81903028  1
  H+  H377  1  0.27251936  0.62168628  0.16494692  1
  H+  H378  1  0.35937114  0.47614502  0.82341570  1
  H+  H379  1  0.17329583  0.57639582  0.23349832  1
  H+  H380  1  0.67381414  0.09230809  0.60762545  1
  H+  H381  1  0.96857584  0.80848032  0.60660394  1
  H+  H382  1  0.13532387  0.11551171  0.34977369  1
  H+  H383  1  0.08105728  0.41026522  0.10742841  1
  O2-  O384  1  0.05893140  0.16750896  0.13778016  1
  O2-  O385  1  0.08764514  0.17263623  0.48935217  1
  O2-  O386  1  0.08830547  0.18476914  0.81495834  1
  O2-  O387  1  0.08599672  0.41457995  0.15229734  1
  O2-  O388  1  0.14113665  0.43635005  0.47603455  1
  O2-  O389  1  0.07397689  0.41634295  0.81366916  1
  O2-  O390  1  0.11187754  0.68297992  0.15513270  1
  O2-  O391  1  0.07942540  0.65554383  0.47673054  1
  O2-  O392  1  0.07755271  0.67755487  0.83031272  1
  O2-  O393  1  0.07491700  0.90733624  0.15123222  1
  O2-  O394  1  0.03647591  0.94532397  0.46563459  1
  O2-  O395  1  0.07213758  0.91077913  0.79649032  1
  O2-  O396  1  0.34575051  0.18306402  0.16496590  1
  O2-  O397  1  0.32328690  0.14266608  0.46951013  1
  O2-  O398  1  0.33131069  0.17108350  0.80705166  1
  O2-  O399  1  0.32665055  0.40907468  0.15301853  1
  O2-  O400  1  0.34510606  0.41969350  0.48238464  1
  O2-  O401  1  0.32262313  0.41480499  0.81146632  1
  O2-  O402  1  0.33438939  0.64948632  0.14858118  1
  O2-  O403  1  0.32991518  0.66623762  0.47710802  1
  O2-  O404  1  0.33354872  0.65669229  0.81646824  1
  O2-  O405  1  0.32350156  0.94580517  0.14657062  1
  O2-  O406  1  0.31889682  0.89655866  0.47451911  1
  O2-  O407  1  0.38535182  0.93795943  0.78637377  1
  O2-  O408  1  0.60430092  0.19634581  0.15250539  1
  O2-  O409  1  0.59466394  0.18704270  0.47004863  1
  O2-  O410  1  0.60138415  0.18574371  0.81029862  1
  O2-  O411  1  0.58528907  0.42966585  0.14800078  1
  O2-  O412  1  0.57847886  0.42449794  0.47074673  1
  O2-  O413  1  0.57967241  0.41435160  0.80569545  1
  O2-  O414  1  0.59990512  0.65036118  0.13014884  1
  O2-  O415  1  0.58037571  0.66631280  0.47502422  1
  O2-  O416  1  0.58882367  0.66146417  0.81165974  1
  O2-  O417  1  0.59382038  0.88762137  0.14554791  1
  O2-  O418  1  0.57866460  0.93067890  0.48613559  1
  O2-  O419  1  0.54094416  0.94248732  0.79943961  1
  O2-  O420  1  0.79515560  0.14295850  0.15972838  1
  O2-  O421  1  0.83294823  0.16395866  0.47837237  1
  O2-  O422  1  0.83957768  0.17978968  0.81328856  1
  O2-  O423  1  0.94960750  0.50909552  0.15714193  1
  O2-  O424  1  0.82704242  0.43520620  0.46577745  1
  O2-  O425  1  0.85021671  0.43070027  0.81124101  1
  O2-  O426  1  0.82934407  0.66461323  0.14231299  1
  O2-  O427  1  0.82899285  0.67304282  0.48455584  1
  O2-  O428  1  0.82353180  0.65077718  0.80809272  1
  O2-  O429  1  0.83302772  0.89846649  0.13214252  1
  O2-  O430  1  0.79618093  0.90647935  0.47247800  1
  O2-  O431  1  0.80155881  0.95244507  0.79544309  1
  O2-  O432  1  0.18365718  0.09258099  0.21524490  1
  O2-  O433  1  0.16142990  0.07883389  0.51933483  1
  O2-  O434  1  0.18813533  0.05299949  0.86563061  1
  O2-  O435  1  0.15842442  0.32313605  0.18929042  1
  O2-  O436  1  0.15460875  0.32044022  0.54573679  1
  O2-  O437  1  0.16557427  0.34413103  0.85115975  1
  O2-  O438  1  0.17840219  0.58033693  0.18817316  1
  O2-  O439  1  0.16656062  0.58146041  0.52395491  1
  O2-  O440  1  0.15867349  0.57941193  0.85444156  1
  O2-  O441  1  0.16706873  0.84691656  0.20093993  1
  O2-  O442  1  0.15444707  0.82039721  0.53226241  1
  O2-  O443  1  0.13688676  0.76768992  0.84859626  1
  O2-  O444  1  0.43809244  0.10699722  0.19291079  1
  O2-  O445  1  0.44263026  0.05602014  0.52324165  1
  O2-  O446  1  0.41678888  0.09099180  0.83258270  1
  O2-  O447  1  0.41164942  0.34009000  0.20148225  1
  O2-  O448  1  0.42330176  0.35113395  0.51999380  1
  O2-  O449  1  0.41177222  0.32961272  0.85226891  1
  O2-  O450  1  0.41647583  0.57959752  0.20019711  1
  O2-  O451  1  0.41586747  0.58567208  0.51209020  1
  O2-  O452  1  0.42392774  0.58334358  0.84913318  1
  O2-  O453  1  0.42930082  0.80665179  0.18748757  1
  O2-  O454  1  0.41031860  0.82732115  0.52033981  1
  O2-  O455  1  0.40226388  0.82401823  0.86248761  1
  O2-  O456  1  0.64802473  0.04044384  0.19223642  1
  O2-  O457  1  0.67247495  0.10045403  0.52490711  1
  O2-  O458  1  0.66552460  0.09540704  0.84735851  1
  O2-  O459  1  0.69411243  0.37103338  0.17840763  1
  O2-  O460  1  0.67124339  0.34967212  0.50661208  1
  O2-  O461  1  0.67662769  0.34866210  0.84614251  1
  O2-  O462  1  0.68219195  0.58905555  0.18316270  1
  O2-  O463  1  0.66065753  0.58328790  0.51791080  1
  O2-  O464  1  0.67268343  0.58464884  0.84524439  1
  O2-  O465  1  0.67676665  0.81055049  0.18425115  1
  O2-  O466  1  0.64297326  0.82742413  0.52483801  1
  O2-  O467  1  0.67517977  0.83124701  0.84993809  1
  O2-  O468  1  0.89327428  0.08199226  0.19458852  1
  O2-  O469  1  0.93039601  0.04911286  0.53171358  1
  O2-  O470  1  0.91790083  0.09554994  0.85902342  1
  O2-  O471  1  0.93129889  0.35753621  0.19406175  1
  O2-  O472  1  0.94187832  0.32948048  0.51934603  1
  O2-  O473  1  0.91104124  0.33871601  0.86368380  1
  O2-  O474  1  0.95600027  0.58978598  0.17776275  1
  O2-  O475  1  0.90950921  0.58626009  0.51624635  1
  O2-  O476  1  0.90557225  0.58703601  0.86042744  1
  O2-  O477  1  0.90084912  0.81617728  0.18089626  1
  O2-  O478  1  0.87883966  0.83386335  0.52124568  1
  O2-  O479  1  0.92242613  0.84102666  0.86025019  1
  O2-  O480  1  0.16927671  0.08551362  0.33944393  1
  O2-  O481  1  0.14592383  0.05393734  0.64843489  1
  O2-  O482  1  0.18285782  0.05386259  0.99380830  1
  O2-  O483  1  0.16244439  0.32629122  0.31579551  1
  O2-  O484  1  0.15269985  0.32754269  0.65538844  1
  O2-  O485  1  0.17065592  0.34292059  0.97392974  1
  O2-  O486  1  0.16413182  0.57441812  0.31158282  1
  O2-  O487  1  0.17440941  0.58999896  0.64846950  1
  O2-  O488  1  0.14848496  0.56224019  0.97363956  1
  O2-  O489  1  0.17344050  0.82286587  0.31390064  1
  O2-  O490  1  0.14658161  0.84796663  0.64976303  1
  O2-  O491  1  0.14610787  0.80670665  0.97357621  1
  O2-  O492  1  0.41821275  0.08253655  0.31454585  1
  O2-  O493  1  0.34136051  0.03090373  0.62012667  1
  O2-  O494  1  0.42050657  0.08114404  1.00494697  1
  O2-  O495  1  0.40484028  0.33332588  0.31146101  1
  O2-  O496  1  0.41066372  0.34308359  0.63824969  1
  O2-  O497  1  0.40488951  0.32747536  0.97703023  1
  O2-  O498  1  0.40531755  0.56975056  0.32435690  1
  O2-  O499  1  0.43427266  0.62896553  0.63174752  1
  O2-  O500  1  0.42652399  0.57473226  0.97692108  1
  O2-  O501  1  0.41180682  0.82386045  0.31394415  1
  O2-  O502  1  0.41806602  0.77106290  0.63542619  1
  O2-  O503  1  0.36995220  0.79289673  0.99158129  1
  O2-  O504  1  0.66243757  0.07268128  0.31368288  1
  O2-  O505  1  0.67607900  0.08437567  0.65211550  1
  O2-  O506  1  0.66261012  0.08106521  1.00398153  1
  O2-  O507  1  0.67329354  0.34264511  0.30151692  1
  O2-  O508  1  0.62018201  0.31363137  0.62457106  1
  O2-  O509  1  0.70241636  0.30497439  0.96331542  1
  O2-  O510  1  0.66179054  0.58533064  0.30904222  1
  O2-  O511  1  0.66024506  0.57658908  0.64167654  1
  O2-  O512  1  0.69497015  0.56112870  0.96277047  1
  O2-  O513  1  0.65861474  0.82218739  0.30706878  1
  O2-  O514  1  0.66690363  0.82950753  0.64746633  1
  O2-  O515  1  0.68390660  0.83196999  0.97395211  1
  O2-  O516  1  0.92253270  0.08552380  0.31965082  1
  O2-  O517  1  0.92505572  0.07882092  0.64880278  1
  O2-  O518  1  0.90330393  0.09607023  0.98594496  1
  O2-  O519  1  0.91329734  0.32855751  0.31917854  1
  O2-  O520  1  0.92903898  0.32771912  0.64029242  1
  O2-  O521  1  0.85479061  0.32607047  0.98482632  1
  O2-  O522  1  0.93283761  0.57294407  0.29389953  1
  O2-  O523  1  0.91300905  0.58238446  0.64355199  1
  O2-  O524  1  0.89236670  0.56755360  0.99091327  1
  O2-  O525  1  0.88624270  0.82208985  0.30095670  1
  O2-  O526  1  0.94149931  0.82752909  0.63663029  1
  O2-  O527  1  0.93492558  0.83218735  0.98522252  1
  O2-  O528  1  0.06610499  0.17377387  0.01174710  1
  O2-  O529  1  0.08268735  0.16430084  0.36429563  1
  O2-  O530  1  0.08780720  0.16423591  0.69240639  1
  O2-  O531  1  0.07524316  0.40799593  0.02461338  1
  O2-  O532  1  0.07749561  0.40883914  0.35431624  1
  O2-  O533  1  0.08595103  0.42159544  0.69101066  1
  O2-  O534  1  0.05404797  0.64002847  0.01389146  1
  O2-  O535  1  0.09171260  0.66487767  0.34817600  1
  O2-  O536  1  0.03418879  0.71045073  0.71297032  1
  O2-  O537  1  0.08448723  0.89486370  0.03454745  1
  O2-  O538  1  0.04498184  0.90017274  0.34783803  1
  O2-  O539  1  0.09517986  0.96615066  0.67405696  1
  O2-  O540  1  0.34300536  0.17315179  0.03786569  1
  O2-  O541  1  0.34204451  0.17610807  0.35149357  1
  O2-  O542  1  0.32074889  0.16538440  0.68143743  1
  O2-  O543  1  0.33281543  0.41324105  0.02251592  1
  O2-  O544  1  0.32500198  0.40548585  0.35883571  1
  O2-  O545  1  0.33778330  0.45857380  0.64593004  1
  O2-  O546  1  0.30689346  0.59648362  0.03017996  1
  O2-  O547  1  0.32547486  0.65935266  0.35540536  1
  O2-  O548  1  0.34319021  0.75211460  0.67371307  1
  O2-  O549  1  0.31749392  0.91105875  0.02931817  1
  O2-  O550  1  0.32961320  0.90752269  0.35176189  1
  O2-  O551  1  0.30694020  0.88666940  0.68060913  1
  O2-  O552  1  0.58064334  0.15923193  0.02868252  1
  O2-  O553  1  0.58955957  0.17374374  0.34713628  1
  O2-  O554  1  0.67963505  0.22925894  0.70287339  1
  O2-  O555  1  0.55484426  0.42734096  0.02640715  1
  O2-  O556  1  0.58172245  0.41768609  0.34677872  1
  O2-  O557  1  0.57415417  0.41240756  0.68265748  1
  O2-  O558  1  0.59997956  0.65967199  0.00793874  1
  O2-  O559  1  0.57329725  0.65950017  0.35224594  1
  O2-  O560  1  0.58411664  0.66496476  0.68792558  1
  O2-  O561  1  0.59867761  0.90570883  0.02542090  1
  O2-  O562  1  0.58127664  0.90819998  0.35826247  1
  O2-  O563  1  0.57708077  0.90623522  0.68486678  1
  O2-  O564  1  0.82583219  0.17616654  0.03897252  1
  O2-  O565  1  0.82932979  0.16188588  0.35226359  1
  O2-  O566  1  0.84677581  0.16411160  0.68705285  1
  O2-  O567  1  0.83630318  0.43789468  0.07080728  1
  O2-  O568  1  0.82955791  0.42101676  0.35203290  1
  O2-  O569  1  0.81633987  0.38330760  0.67577010  1
  O2-  O570  1  0.82540587  0.66443217  0.02464389  1
  O2-  O571  1  0.82059383  0.68134810  0.36205364  1
  O2-  O572  1  0.82919543  0.66130897  0.68819929  1
  O2-  O573  1  0.83752044  0.93473197  0.02578561  1
  O2-  O574  1  0.82066064  0.91536152  0.34730316  1
  O2-  O575  1  0.83497961  0.91310313  0.68775977  1
