# generated using pymatgen
data_H2O
_symmetry_space_group_name_H-M   'P 1'
_cell_length_a   17.99817614
_cell_length_b   17.99884806
_cell_length_c   21.99728991
_cell_angle_alpha   90.00124385
_cell_angle_beta   90.01032348
_cell_angle_gamma   120.00784250
_symmetry_Int_Tables_number   1
_chemical_formula_structural   H2O
_chemical_formula_sum   'H384 O192'
_cell_volume   6170.76037459
_cell_formula_units_Z   192
loop_
 _symmetry_equiv_pos_site_id
 _symmetry_equiv_pos_as_xyz
  1  'x, y, z'
loop_
 _atom_type_symbol
 _atom_type_oxidation_number
  H+  1.0
  O2-  -2.0
loop_
 _atom_site_type_symbol
 _atom_site_label
 _atom_site_symmetry_multiplicity
 _atom_site_fract_x
 _atom_site_fract_y
 _atom_site_fract_z
 _atom_site_occupancy
  H+  H0  1  0.17032953  0.59055030  0.88950992  1
  H+  H1  1  0.23153010  0.35665418  0.65840669  1
  H+  H2  1  0.87091816  0.22025108  0.00127550  1
  H+  H3  1  0.85102431  0.70334001  0.22075625  1
  H+  H4  1  0.12498259  0.73294327  1.00206752  1
  H+  H5  1  0.88862279  0.77563413  0.82826328  1
  H+  H6  1  0.09224675  0.67528775  0.09945157  1
  H+  H7  1  0.13173185  0.41761748  0.83369199  1
  H+  H8  1  0.92140548  0.89129827  0.15758557  1
  H+  H9  1  0.16251628  0.52228826  0.65739002  1
  H+  H10  1  0.19837696  1.04180401  -0.00656752  1
  H+  H11  1  0.10545558  0.98001119  0.66721587  1
  H+  H12  1  0.60877242  0.13186972  0.99645871  1
  H+  H13  1  0.48450234  0.85941376  0.65554678  1
  H+  H14  1  0.37272389  0.72290686  0.48738227  1
  H+  H15  1  0.35421811  0.38432163  0.47896892  1
  H+  H16  1  0.12426636  0.64403115  0.00530192  1
  H+  H17  1  0.89767631  0.54631136  0.49742836  1
  H+  H18  1  0.66332490  0.86693463  0.33418448  1
  H+  H19  1  0.13512190  0.02254978  0.49648775  1
  H+  H20  1  0.16160852  0.87701116  0.17982522  1
  H+  H21  1  0.01797648  0.14276408  0.16816638  1
  H+  H22  1  0.39012927  0.51742048  0.65574392  1
  H+  H23  1  0.24767762  0.39688397  0.84203529  1
  H+  H24  1  0.76482520  0.14031359  0.70018632  1
  H+  H25  1  0.54314634  0.15177363  0.67976467  1
  H+  H26  1  0.90498448  0.11592281  0.83975591  1
  H+  H27  1  0.57718541  0.40073337  0.06418928  1
  H+  H28  1  0.72802069  0.59897688  1.00327659  1
  H+  H29  1  0.71588793  0.34491839  0.32590063  1
  H+  H30  1  0.11561505  0.88686559  0.49266844  1
  H+  H31  1  0.13572965  0.86013247  0.99232619  1
  H+  H32  1  0.13078152  0.27704851  0.32596820  1
  H+  H33  1  -0.03098220  0.11002407  0.32077048  1
  H+  H34  1  0.82238488  0.92882948  0.72559072  1
  H+  H35  1  0.73284031  0.11288377  0.98939135  1
  H+  H36  1  0.11982169  0.13054907  0.66715849  1
  H+  H37  1  0.64115621  0.77374125  0.99551232  1
  H+  H38  1  0.90987349  0.54293329  0.32936704  1
  H+  H39  1  0.37327408  0.47414072  0.81680185  1
  H+  H40  1  0.53150355  0.64023419  0.50233020  1
  H+  H41  1  0.17138160  0.09768796  0.38234221  1
  H+  H42  1  0.77642954  0.88495867  0.00089425  1
  H+  H43  1  0.27687690  0.12700148  0.32944076  1
  H+  H44  1  0.02831167  0.37851654  -0.00018462  1
  H+  H45  1  -0.02327006  0.86604510  0.83081369  1
  H+  H46  1  0.15600665  0.33633912  0.23593074  1
  H+  H47  1  0.73025649  0.36072929  0.17449213  1
  H+  H48  1  0.72282555  0.11156874  0.52410072  1
  H+  H49  1  0.60188965  0.91777166  0.40546274  1
  H+  H50  1  0.75083170  0.35341687  0.00489947  1
  H+  H51  1  0.88387657  0.85656156  0.98194484  1
  H+  H52  1  0.75650181  0.86936844  0.17442305  1
  H+  H53  1  0.52459709  0.88831931  0.15383058  1
  H+  H54  1  0.27989481  0.64443409  0.16487962  1
  H+  H55  1  0.36247182  0.60872951  0.84965286  1
  H+  H56  1  0.87720106  0.96780544  0.34979628  1
  H+  H57  1  0.88679973  0.78956426  0.49935946  1
  H+  H58  1  0.63551183  0.51021608  0.00000947  1
  H+  H59  1  0.86828857  0.97244410  -0.00251789  1
  H+  H60  1  0.39511629  0.85218892  0.51171525  1
  H+  H61  1  0.11791205  0.89591450  0.82200869  1
  H+  H62  1  0.77670503  0.64411602  0.17770242  1
  H+  H63  1  0.22489131  0.36612017  0.49959156  1
  H+  H64  1  0.79178672  0.88001642  0.35444036  1
  H+  H65  1  0.48473945  0.86819420  0.83515130  1
  H+  H66  1  0.22717348  0.86244083  0.51243750  1
  H+  H67  1  0.34567892  0.19917629  0.14011874  1
  H+  H68  1  0.14837888  0.78137497  0.17341919  1
  H+  H69  1  0.60440508  0.21191442  0.49629216  1
  H+  H70  1  1.04007614  0.12879617  0.82735753  1
  H+  H71  1  0.14151303  0.35662616  -0.00875298  1
  H+  H72  1  0.28906978  0.65083095  0.67305323  1
  H+  H73  1  0.76147491  0.15067503  0.80139165  1
  H+  H74  1  0.62770514  0.40426009  0.67821563  1
  H+  H75  1  0.86865679  0.47852434  0.16566180  1
  H+  H76  1  0.88717860  0.27014242  0.31863261  1
  H+  H77  1  0.28443174  0.23181158  0.20556077  1
  H+  H78  1  0.22344406  0.36445903  0.32282253  1
  H+  H79  1  0.11201113  0.14010693  0.48650913  1
  H+  H80  1  0.97678060  0.36427006  0.16706576  1
  H+  H81  1  0.06705930  0.92731068  0.16475666  1
  H+  H82  1  0.51307233  0.12273270  0.00223864  1
  H+  H83  1  0.18182903  0.59190628  0.39733610  1
  H+  H84  1  0.11548329  0.77168772  0.65946867  1
  H+  H85  1  0.32955810  0.36281284  0.16728669  1
  H+  H86  1  0.57937858  0.68548011  0.71061665  1
  H+  H87  1  0.43391490  0.57836011  0.12270220  1
  H+  H88  1  0.92799602  0.80668271  0.16076731  1
  H+  H89  1  0.49012736  0.65007779  0.81213157  1
  H+  H90  1  0.63022335  0.10187444  0.32392864  1
  H+  H91  1  0.02602900  0.88168890  0.33422472  1
  H+  H92  1  0.72709324  0.60728879  0.36022963  1
  H+  H93  1  0.90934331  0.49051075  0.01174625  1
  H+  H94  1  0.13639169  0.74216530  0.33518661  1
  H+  H95  1  0.85905057  -0.02674553  0.82367455  1
  H+  H96  1  0.77998055  0.63822798  0.82483308  1
  H+  H97  1  0.47508089  0.10588096  0.50805450  1
  H+  H98  1  0.01926417  0.88210305  -0.01536342  1
  H+  H99  1  0.39396923  0.87040637  -0.01059767  1
  H+  H100  1  0.13120219  0.11914462  1.01218846  1
  H+  H101  1  0.42687302  0.83929930  0.89608954  1
  H+  H102  1  0.89353421  0.86311128  0.32147683  1
  H+  H103  1  0.11764492  0.66006911  0.66809443  1
  H+  H104  1  0.23438831  0.86471750  0.83810094  1
  H+  H105  1  0.17022067  0.32766737  0.59998090  1
  H+  H106  1  0.39715362  0.60810193  0.31326787  1
  H+  H107  1  0.12507838  1.01187222  0.34323353  1
  H+  H108  1  0.66607005  0.82998932  0.93436667  1
  H+  H109  1  0.89389881  0.11868572  0.16809856  1
  H+  H110  1  0.53158580  0.13883468  0.14941575  1
  H+  H111  1  0.38857820  0.52267752  0.49884098  1
  H+  H112  1  0.36136456  0.12628518  0.48453705  1
  H+  H113  1  0.11292537  0.24528462  0.17178401  1
  H+  H114  1  0.38456293  0.26892485  0.32376801  1
  H+  H115  1  0.63885912  0.11210478  0.16594346  1
  H+  H116  1  0.86965995  0.27246678  0.67113953  1
  H+  H117  1  0.34176314  0.41279497  0.72705631  1
  H+  H118  1  0.32019248  0.14363345  0.07851709  1
  H+  H119  1  0.27402830  0.88239974  1.00704825  1
  H+  H120  1  0.89033113  0.03104758  0.66209024  1
  H+  H121  1  0.61636822  0.98661352  0.15371268  1
  H+  H122  1  0.61980936  0.89826274  0.66276290  1
  H+  H123  1  0.11748352  0.15367261  0.18142322  1
  H+  H124  1  0.41263674  0.76636602  0.32230437  1
  H+  H125  1  0.77752384  0.64892457  0.66316324  1
  H+  H126  1  0.13674961  0.51993325  0.34933138  1
  H+  H127  1  0.98889788  0.62310626  0.98956549  1
  H+  H128  1  0.37266471  0.38574469  0.66738869  1
  H+  H129  1  0.13860677  0.62168877  0.17103029  1
  H+  H130  1  0.65378374  0.61664610  0.85978292  1
  H+  H131  1  0.15049494  0.50564370  -0.01374340  1
  H+  H132  1  0.51906800  0.12522343  0.33280436  1
  H+  H133  1  0.33973109  0.84230795  0.81842094  1
  H+  H134  1  -0.02487715  0.62019944  0.65783469  1
  H+  H135  1  0.85886514  0.88550118  0.81720536  1
  H+  H136  1  0.16430644  0.87538376  0.32606584  1
  H+  H137  1  0.93260521  0.59317736  0.23365011  1
  H+  H138  1  0.21422123  0.36255200  0.17414604  1
  H+  H139  1  0.61707320  0.47061980  0.15126254  1
  H+  H140  1  -0.02042135  0.87195470  0.65757287  1
  H+  H141  1  0.64730196  1.02486397  0.83419784  1
  H+  H142  1  0.15107044  0.11214237  0.84184883  1
  H+  H143  1  0.91413600  0.33962278  0.58161372  1
  H+  H144  1  0.96633357  0.34144552  0.67175349  1
  H+  H145  1  0.77838663  0.13445547  0.15819933  1
  H+  H146  1  0.47138841  0.35813396  0.32124753  1
  H+  H147  1  0.36947811  0.25472628  0.98913298  1
  H+  H148  1  0.64257789  0.61992394  0.17325300  1
  H+  H149  1  0.86780708  0.39487563  0.67736586  1
  H+  H150  1  0.24676701  0.88367371  0.67001026  1
  H+  H151  1  0.39066313  0.11146774  0.14908404  1
  H+  H152  1  0.37568962  0.38713534  0.82377098  1
  H+  H153  1  0.86245837  0.23703977  0.51955749  1
  H+  H154  1  0.61908759  0.88924727  0.82488399  1
  H+  H155  1  0.36799285  0.46811141  0.01181889  1
  H+  H156  1  0.72535905  0.85879531  0.83655789  1
  H+  H157  1  0.86342143  0.72995700  0.33118193  1
  H+  H158  1  0.37078674  0.73357875  0.82729140  1
  H+  H159  1  0.16873352  0.07999672  0.59022718  1
  H+  H160  1  -0.01543193  0.09804283  -0.00602962  1
  H+  H161  1  0.11056661  0.48144486  0.15614217  1
  H+  H162  1  0.73586462  0.37680080  0.66486052  1
  H+  H163  1  0.61691455  0.98381941  0.67596562  1
  H+  H164  1  0.62077072  0.89017676  0.00516268  1
  H+  H165  1  0.41643132  0.08750323  0.56644715  1
  H+  H166  1  0.27537634  0.65020466  0.82340296  1
  H+  H167  1  0.11400534  0.65097020  0.81833578  1
  H+  H168  1  0.87126003  0.64567218  0.33766521  1
  H+  H169  1  0.34697628  0.46138482  0.16251722  1
  H+  H170  1  0.36827545  0.63174463  0.48802187  1
  H+  H171  1  0.11386722  0.97994357  0.82539470  1
  H+  H172  1  0.43241679  0.08073191  0.72136583  1
  H+  H173  1  -0.01132053  0.63130321  0.50177145  1
  H+  H174  1  -0.00439142  0.63435221  0.32717869  1
  H+  H175  1  0.36167665  0.47205122  0.32464557  1
  H+  H176  1  0.23090346  0.10827699  0.64851246  1
  H+  H177  1  0.64293039  0.27025957  0.16912061  1
  H+  H178  1  0.37801586  0.02375944  0.28963671  1
  H+  H179  1  0.74771880  0.39280872  1.01118094  1
  H+  H180  1  0.13558095  0.36417247  0.50711019  1
  H+  H181  1  0.84692804  0.67829930  0.06288726  1
  H+  H182  1  0.63042858  0.24462644  0.67829320  1
  H+  H183  1  0.86613281  0.22508671  0.15843671  1
  H+  H184  1  -0.01674423  0.12425270  0.51195717  1
  H+  H185  1  0.63071001  0.10322320  0.51596219  1
  H+  H186  1  0.87590598  0.09655084  0.30994063  1
  H+  H187  1  0.86448289  0.48129790  0.83102549  1
  H+  H188  1  0.63497456  0.47508788  0.48927496  1
  H+  H189  1  0.89011006  0.28707473  0.82583505  1
  H+  H190  1  0.22561127  0.10930739  0.49364200  1
  H+  H191  1  0.91014455  0.82577674  0.92081710  1
  H+  H192  1  0.03091356  0.64546026  0.15836056  1
  H+  H193  1  0.54950165  0.66202413  0.16962943  1
  H+  H194  1  0.54579525  0.88301247  0.34442339  1
  H+  H195  1  0.11476341  0.48078182  0.49665147  1
  H+  H196  1  0.91890680  0.84165826  0.59203437  1
  H+  H197  1  0.28939295  0.88715904  0.16147184  1
  H+  H198  1  0.08931529  0.33823131  0.68297584  1
  H+  H199  1  0.62588765  0.47884463  0.83425594  1
  H+  H200  1  0.89527565  0.12556873  0.52236897  1
  H+  H201  1  0.25165943  0.72880826  0.61992299  1
  H+  H202  1  0.02122215  0.64069502  0.81985600  1
  H+  H203  1  0.19710864  0.84698900  0.26778855  1
  H+  H204  1  0.35492436  0.66423982  0.39441288  1
  H+  H205  1  0.09614972  0.13806091  0.34081039  1
  H+  H206  1  0.59445421  0.24134097  0.98259880  1
  H+  H207  1  0.38196606  0.61412695  0.15775466  1
  H+  H208  1  0.36491185  0.96656488  0.50486209  1
  H+  H209  1  0.60454673  0.37396585  0.33602552  1
  H+  H210  1  0.03297853  0.39750298  0.82982447  1
  H+  H211  1  0.14845421  0.62425647  0.49699890  1
  H+  H212  1  0.71893115  0.33466847  0.51721996  1
  H+  H213  1  0.31695756  0.51396123  0.87380851  1
  H+  H214  1  0.16985768  0.07046674  0.19643057  1
  H+  H215  1  0.38518826  0.01789212  0.99402531  1
  H+  H216  1  0.61981920  0.63543349  0.33763031  1
  H+  H217  1  0.23443582  0.54237616  0.94840205  1
  H+  H218  1  0.37046197  0.13549902  0.66939681  1
  H+  H219  1  0.53814821  0.63722058  0.31243653  1
  H+  H220  1  0.27931447  0.11937634  0.82224399  1
  H+  H221  1  0.76277756  0.12802318  0.31804276  1
  H+  H222  1  0.11055210  0.38597244  0.34381088  1
  H+  H223  1  0.89368787  0.37344614  0.83991524  1
  H+  H224  1  0.08085914  0.90627003  0.39679442  1
  H+  H225  1  0.65819306  0.77617720  0.32178115  1
  H+  H226  1  0.37902548  0.88826416  0.16007194  1
  H+  H227  1  0.88743304  0.37100803  0.52051012  1
  H+  H228  1  0.35699268  0.38122991  0.33081830  1
  H+  H229  1  0.89702182  0.61607531  0.99280899  1
  H+  H230  1  0.61809283  -0.02913508  0.50503905  1
  H+  H231  1  0.88368681  0.98732265  0.14686401  1
  H+  H232  1  0.91067017  0.36452526  0.99442969  1
  H+  H233  1  0.86406166  0.72606496  -0.00080828  1
  H+  H234  1  0.86604673  0.64596726  0.66403683  1
  H+  H235  1  0.27528641  0.64768011  0.01119372  1
  H+  H236  1  0.66221967  0.57816978  0.41499657  1
  H+  H237  1  0.64304065  0.36574712  0.83893781  1
  H+  H238  1  0.88921548  0.61599723  0.83665339  1
  H+  H239  1  0.62415783  -0.01774070  1.00174760  1
  H+  H240  1  0.64417993  0.74537651  0.16851049  1
  H+  H241  1  0.52159562  0.64068453  0.65374009  1
  H+  H242  1  0.29253107  0.63606086  0.33860006  1
  H+  H243  1  0.35805053  0.74306275  1.01186655  1
  H+  H244  1  0.60818069  0.46342515  0.35130630  1
  H+  H245  1  0.41437758  0.57648016  0.94766726  1
  H+  H246  1  0.87704632  0.66076383  0.49030449  1
  H+  H247  1  0.10865794  0.39179286  0.15903702  1
  H+  H248  1  0.63204038  0.77353316  0.83537189  1
  H+  H249  1  0.63476028  0.78097394  0.63353712  1
  H+  H250  1  0.87162666  0.38542289  0.32383446  1
  H+  H251  1  0.77433220  0.90828586  0.66071363  1
  H+  H252  1  0.83077729  0.43249862  0.28890887  1
  H+  H253  1  0.12618867  0.47748798  0.66319932  1
  H+  H254  1  0.97772482  0.35913434  0.32818627  1
  H+  H255  1  0.89440366  0.61838777  0.17859098  1
  H+  H256  1  0.64229701  0.86647281  0.53603695  1
  H+  H257  1  0.37297956  0.26090386  0.48996233  1
  H+  H258  1  0.64491848  0.12452879  0.67115394  1
  H+  H259  1  0.36777699  0.13287075  0.31936890  1
  H+  H260  1  0.53277928  0.87950972  0.49913156  1
  H+  H261  1  0.59147520  0.33890643  0.98615832  1
  H+  H262  1  0.88627612  0.77219557  0.65298179  1
  H+  H263  1  0.29992466  0.88648046  0.34595741  1
  H+  H264  1  0.73494526  0.62523712  0.49995029  1
  H+  H265  1  0.02455528  0.39337245  0.50335231  1
  H+  H266  1  0.37243577  0.22515565  0.66489502  1
  H+  H267  1  0.50868561  0.37291619  0.00783867  1
  H+  H268  1  0.49588711  0.37282395  0.66480634  1
  H+  H269  1  0.62337499  0.63640293  0.01375114  1
  H+  H270  1  0.12533944  0.64755857  0.34343084  1
  H+  H271  1  0.40037248  0.77492970  0.17209091  1
  H+  H272  1  0.12115499  0.73514202  0.49264339  1
  H+  H273  1  0.55317216  0.61779101  0.80088618  1
  H+  H274  1  0.48317893  0.87040900  -0.00911977  1
  H+  H275  1  0.39526147  0.96099341  0.36361078  1
  H+  H276  1  0.37693315  0.34754658  0.99792731  1
  H+  H277  1  0.86687234  0.38791431  0.16479840  1
  H+  H278  1  0.77539232  0.44090738  0.45930622  1
  H+  H279  1  0.61852628  0.72670668  0.51725288  1
  H+  H280  1  0.64055393  0.62499693  0.64874080  1
  H+  H281  1  0.30215562  0.96006285  0.71347181  1
  H+  H282  1  0.12148193  0.22030892  0.67099363  1
  H+  H283  1  0.62124518  0.22546284  0.83211462  1
  H+  H284  1  0.86787041  0.48458337  0.67321206  1
  H+  H285  1  0.48404935  0.37098981  0.84609516  1
  H+  H286  1  0.92227574  0.33227357  0.22868325  1
  H+  H287  1  0.90101645  0.11075344  0.99275640  1
  H+  H288  1  0.11563775  0.86174614  0.65612407  1
  H+  H289  1  0.66072219  0.31846246  0.26475212  1
  H+  H290  1  0.57573491  0.15268430  0.43595778  1
  H+  H291  1  0.59515871  0.42649034  0.77191080  1
  H+  H292  1  0.37398281  0.30115409  0.23312092  1
  H+  H293  1  0.16705606  0.11134045  0.25905382  1
  H+  H294  1  0.19270541  0.08997889  0.89951622  1
  H+  H295  1  0.29737790  0.85735108  0.75939271  1
  H+  H296  1  0.44678291  0.34396149  0.60153915  1
  H+  H297  1  0.08279153  0.41446545  0.06145044  1
  H+  H298  1  0.83272324  0.66760703  0.76152027  1
  H+  H299  1  0.09330223  0.68105088  0.43054555  1
  H+  H300  1  0.41112242  0.85284698  0.32860780  1
  H+  H301  1  0.66975542  0.33888822  0.60818827  1
  H+  H302  1  0.84547283  0.68643552  0.42997969  1
  H+  H303  1  0.39953442  0.02685188  0.15802453  1
  H+  H304  1  0.09774824  0.15754712  0.06200047  1
  H+  H305  1  0.84206337  0.43345596  0.41915011  1
  H+  H306  1  0.07734376  0.67254301  0.73164621  1
  H+  H307  1  0.41927948  0.57693271  0.25135238  1
  H+  H308  1  0.64392415  0.11226220  0.83867592  1
  H+  H309  1  0.61827019  0.38321620  0.15560314  1
  H+  H310  1  0.64172505  0.61998677  0.50381443  1
  H+  H311  1  0.59132711  0.91825992  0.76386038  1
  H+  H312  1  0.39048818  0.09612601  0.80005292  1
  H+  H313  1  0.33003592  0.15628450  0.76052114  1
  H+  H314  1  0.92158323  0.58886584  0.89687945  1
  H+  H315  1  0.42551223  0.09313067  0.23977460  1
  H+  H316  1  0.40493254  0.76442570  0.65878653  1
  H+  H317  1  0.15280618  0.97847404  0.12473208  1
  H+  H318  1  0.06539870  0.37610765  0.74090639  1
  H+  H319  1  0.02788220  0.89087765  0.49076048  1
  H+  H320  1  0.32709286  0.42001219  0.42187989  1
  H+  H321  1  0.60549207  0.17624674  0.76975249  1
  H+  H322  1  0.65348875  0.57184572  0.22936738  1
  H+  H323  1  0.92867814  0.84782347  0.25686994  1
  H+  H324  1  0.23719406  0.61942563  0.49623567  1
  H+  H325  1  0.59640756  0.40592362  0.43488950  1
  H+  H326  1  0.93283870  0.09502129  0.59775433  1
  H+  H327  1  0.82730313  0.14734169  0.37158518  1
  H+  H328  1  0.11462715  0.23085031  0.48983595  1
  H+  H329  1  0.38678673  0.60520494  0.65851640  1
  H+  H330  1  0.34012161  0.66377234  0.73592375  1
  H+  H331  1  0.06410520  0.91934242  0.04583087  1
  H+  H332  1  0.33844541  0.29090146  0.54264762  1
  H+  H333  1  0.83343780  0.42127534  0.77235067  1
  H+  H334  1  0.87822314  0.43260776  0.07115965  1
  H+  H335  1  0.62352324  0.49136052  0.67531567  1
  H+  H336  1  0.13822799  0.53733553  0.82882181  1
  H+  H337  1  0.88382951  0.89786974  0.45278281  1
  H+  H338  1  0.67054237  0.58802982  0.59387883  1
  H+  H339  1  0.09778184  0.15752030  0.76867633  1
  H+  H340  1  0.33208959  0.68059893  0.10290758  1
  H+  H341  1  0.63916240  0.01676579  0.32645375  1
  H+  H342  1  0.19948429  0.38081217  0.90729067  1
  H+  H343  1  0.67637434  0.08353477  0.92862772  1
  H+  H344  1  0.32557087  0.40382048  0.06828634  1
  H+  H345  1  0.16351885  0.58722215  0.22966167  1
  H+  H346  1  0.91861159  0.59239174  0.59721031  1
  H+  H347  1  0.59282669  0.16722174  0.09212151  1
  H+  H348  1  0.68054751  0.57777236  0.91322059  1
  H+  H349  1  0.07635140  0.40931567  0.40519518  1
  H+  H350  1  0.73245910  0.36590326  0.84718950  1
  H+  H351  1  0.92098826  0.32694751  0.93003011  1
  H+  H352  1  0.37863606  0.10279484  0.98726863  1
  H+  H353  1  0.84985212  0.92204744  0.08958091  1
  H+  H354  1  0.42780979  0.81719263  0.56597901  1
  H+  H355  1  0.92091695  0.08086813  0.22656306  1
  H+  H356  1  0.33685384  0.15218681  0.42041787  1
  H+  H357  1  0.48411905  0.60576674  0.00059983  1
  H+  H358  1  0.15670478  0.83186906  0.56620054  1
  H+  H359  1  0.41387768  0.57708977  0.56098784  1
  H+  H360  1  0.58743438  0.92469911  0.08775392  1
  H+  H361  1  0.60655950  0.21247458  0.33821793  1
  H+  H362  1  0.84017884  0.16231128  0.06120491  1
  H+  H363  1  0.67139650  0.08793658  0.61403718  1
  H+  H364  1  0.41856319  0.33810852  0.90218555  1
  H+  H365  1  0.64185396  0.35305282  0.50947514  1
  H+  H366  1  0.17851760  0.84611111  0.93393577  1
  H+  H367  1  0.22952670  0.35626446  0.99190364  1
  H+  H368  1  0.40861917  0.02596812  0.66096285  1
  H+  H369  1  0.19945380  0.63838153  0.58860434  1
  H+  H370  1  0.07406813  0.92312776  0.72951582  1
  H+  H371  1  0.24364885  0.94877743  0.86967389  1
  H+  H372  1  0.70314226  0.84323891  0.23696010  1
  H+  H373  1  0.43974658  0.83525523  0.23100896  1
  H+  H374  1  0.33787265  0.90147151  0.44897515  1
  H+  H375  1  0.48311174  0.10222165  0.80474862  1
  H+  H376  1  0.63365042  0.31362186  0.92101986  1
  H+  H377  1  0.33766206  0.91156980  0.06478818  1
  H+  H378  1  0.82967486  0.17713759  0.46288565  1
  H+  H379  1  0.92610598  0.07974839  0.89908838  1
  H+  H380  1  -0.00624183  0.11635474  0.66315373  1
  H+  H381  1  0.07046421  0.17286707  0.39804004  1
  H+  H382  1  0.66144352  0.07562838  0.22650329  1
  H+  H383  1  0.60062306  0.67521941  0.07152949  1
  O2-  O384  1  0.08548330  0.17916791  0.15910906  1
  O2-  O385  1  0.08155000  0.17088035  0.47307556  1
  O2-  O386  1  0.10025789  0.15689040  0.81359951  1
  O2-  O387  1  0.07908466  0.42108572  0.14143197  1
  O2-  O388  1  0.08178472  0.41929922  0.48353276  1
  O2-  O389  1  0.09135652  0.43139236  0.81163571  1
  O2-  O390  1  0.09235356  0.67669063  0.14497445  1
  O2-  O391  1  0.09232162  0.67496794  0.47566580  1
  O2-  O392  1  0.07889615  0.67422837  0.80103371  1
  O2-  O393  1  0.13161547  0.96047361  0.16606796  1
  O2-  O394  1  0.08717379  0.91715885  0.47368738  1
  O2-  O395  1  0.08294071  0.92086404  0.80665264  1
  O2-  O396  1  0.32827689  0.14169528  0.12421249  1
  O2-  O397  1  0.33107086  0.15398733  0.46544326  1
  O2-  O398  1  0.33699314  0.14444447  0.80322354  1
  O2-  O399  1  0.30917932  0.40119645  0.14944468  1
  O2-  O400  1  0.32740201  0.41910448  0.46736514  1
  O2-  O401  1  0.34532651  0.41485893  0.80149316  1
  O2-  O402  1  0.33944456  0.67303891  0.14874130  1
  O2-  O403  1  0.34000069  0.66305992  0.46986453  1
  O2-  O404  1  0.33714486  0.67220022  0.81260700  1
  O2-  O405  1  0.34851926  0.91756507  0.14404542  1
  O2-  O406  1  0.33408872  0.90451387  0.49372372  1
  O2-  O407  1  0.28471752  0.83220818  0.80069342  1
  O2-  O408  1  0.59385445  0.16679344  0.13765368  1
  O2-  O409  1  0.57429703  0.15127582  0.48123940  1
  O2-  O410  1  0.59641868  0.16682203  0.81469331  1
  O2-  O411  1  0.58842080  0.41101275  0.13642359  1
  O2-  O412  1  0.62502391  0.41839877  0.47521542  1
  O2-  O413  1  0.59541438  0.42003403  0.81705360  1
  O2-  O414  1  0.60662393  0.68351639  0.15187271  1
  O2-  O415  1  0.59441421  0.67202355  0.49477054  1
  O2-  O416  1  0.54801648  0.66893721  0.79653089  1
  O2-  O417  1  0.58499531  0.92535703  0.13547049  1
  O2-  O418  1  0.59544857  0.91180872  0.48852158  1
  O2-  O419  1  0.59070318  0.92088593  0.80935760  1
  O2-  O420  1  0.83915949  0.16391471  0.14444558  1
  O2-  O421  1  0.83193092  0.17459920  0.50692915  1
  O2-  O422  1  0.80284371  0.20337579  0.77773008  1
  O2-  O423  1  0.83544782  0.41795794  0.15165428  1
  O2-  O424  1  0.82784530  0.43719159  0.46188002  1
  O2-  O425  1  0.83326090  0.41946797  0.81766517  1
  O2-  O426  1  0.84119021  0.68073553  0.17930434  1
  O2-  O427  1  0.84474268  0.68913043  0.47543390  1
  O2-  O428  1  0.83825812  0.66941257  0.80654760  1
  O2-  O429  1  0.85882370  0.92623471  0.13495688  1
  O2-  O430  1  0.88613969  0.90102566  0.49793399  1
  O2-  O431  1  0.82545279  0.91428509  0.80623846  1
  O2-  O432  1  0.17662388  0.12389785  0.21520208  1
  O2-  O433  1  0.16556052  0.08450614  0.50887687  1
  O2-  O434  1  0.17870260  0.07769277  0.85588723  1
  O2-  O435  1  0.15257223  0.33256521  0.18989719  1
  O2-  O436  1  0.16634139  0.33283881  0.51805334  1
  O2-  O437  1  0.21780469  0.41815547  0.86870956  1
  O2-  O438  1  0.16727612  0.58876381  0.18543037  1
  O2-  O439  1  0.17646528  0.59147675  0.51172945  1
  O2-  O440  1  0.16943372  0.59786740  0.84503282  1
  O2-  O441  1  0.18576796  0.83996683  0.19111571  1
  O2-  O442  1  0.16407789  0.83405564  0.52066914  1
  O2-  O443  1  0.20171159  0.88833906  0.86301514  1
  O2-  O444  1  0.42724120  0.08902394  0.16911561  1
  O2-  O445  1  0.41349329  0.07740577  0.52258083  1
  O2-  O446  1  0.42481105  0.06798030  0.78708121  1
  O2-  O447  1  0.34014815  0.28182776  0.19446243  1
  O2-  O448  1  0.38498345  0.31369513  0.51304177  1
  O2-  O449  1  0.42364146  0.34871207  0.85764397  1
  O2-  O450  1  0.41301452  0.58000529  0.16344134  1
  O2-  O451  1  0.41842651  0.58216008  0.51563433  1
  O2-  O452  1  0.37572539  0.56527376  0.86832384  1
  O2-  O453  1  0.43526461  0.83678980  0.18554890  1
  O2-  O454  1  0.42624126  0.82059189  0.51949035  1
  O2-  O455  1  0.42473913  0.83451732  0.85076116  1
  O2-  O456  1  0.66580013  0.07784210  0.18111137  1
  O2-  O457  1  0.66127018  0.07610374  0.53537846  1
  O2-  O458  1  0.67948087  0.08531061  0.84984780  1
  O2-  O459  1  0.66943686  0.32768397  0.18935117  1
  O2-  O460  1  0.65939342  0.31275274  0.52965120  1
  O2-  O461  1  0.66958112  0.33344091  0.85783781  1
  O2-  O462  1  0.66830948  0.58347580  0.18639102  1
  O2-  O463  1  0.67300666  0.58554221  0.50830313  1
  O2-  O464  1  0.68271422  0.58402987  0.86715753  1
  O2-  O465  1  0.69803482  0.83797497  0.19193839  1
  O2-  O466  1  0.67156546  0.83595691  0.55366320  1
  O2-  O467  1  0.66582137  0.83040791  0.85448203  1
  O2-  O468  1  0.92882084  0.09117710  0.18109642  1
  O2-  O469  1  0.92747253  0.09652681  0.53410088  1
  O2-  O470  1  0.92467267  0.07711743  0.85328455  1
  O2-  O471  1  0.91681524  0.33010034  0.18356979  1
  O2-  O472  1  0.91634273  0.34052525  0.53491591  1
  O2-  O473  1  0.92276340  0.33992100  0.85027849  1
  O2-  O474  1  0.92744389  0.58914781  0.18841630  1
  O2-  O475  1  0.92735431  0.60427844  0.51562456  1
  O2-  O476  1  0.91806113  0.58452223  0.85147884  1
  O2-  O477  1  0.95698100  0.86655964  0.17475824  1
  O2-  O478  1  0.92471109  0.84938241  0.51708022  1
  O2-  O479  1  0.91523419  0.83565197  0.84412122  1
  O2-  O480  1  0.15606046  0.07784142  0.34035001  1
  O2-  O481  1  0.16919897  0.07771199  0.63552645  1
  O2-  O482  1  0.21995838  0.10212873  0.98247751  1
  O2-  O483  1  0.16118458  0.33729139  0.31028850  1
  O2-  O484  1  0.17043582  0.32222050  0.64493983  1
  O2-  O485  1  0.17393783  0.33320010  0.96997859  1
  O2-  O486  1  0.17343905  0.58440220  0.35325505  1
  O2-  O487  1  0.21283942  0.66825385  0.62864159  1
  O2-  O488  1  0.19577494  0.56024319  0.96557116  1
  O2-  O489  1  0.19941370  0.84948890  0.31352752  1
  O2-  O490  1  0.14561269  0.83146787  0.64108112  1
  O2-  O491  1  0.16948394  0.83294511  0.97875742  1
  O2-  O492  1  0.41880231  0.08499814  0.28636174  1
  O2-  O493  1  0.43478139  0.08663305  0.67279094  1
  O2-  O494  1  0.41751103  0.07878239  0.98084392  1
  O2-  O495  1  0.41011590  0.32827368  0.30741793  1
  O2-  O496  1  0.43735529  0.33861890  0.64558223  1
  O2-  O497  1  0.40780286  0.31836265  0.98182977  1
  O2-  O498  1  0.42201046  0.57388581  0.29582382  1
  O2-  O499  1  0.41754775  0.57754933  0.63934873  1
  O2-  O500  1  0.42192958  0.57144445  0.99179541  1
  O2-  O501  1  0.44361871  0.82812148  0.30920860  1
  O2-  O502  1  0.42743511  0.82013548  0.63737834  1
  O2-  O503  1  0.42417509  0.83991437  0.97405846  1
  O2-  O504  1  0.66171324  0.07429511  0.30593010  1
  O2-  O505  1  0.67226301  0.08947011  0.65941238  1
  O2-  O506  1  0.67225966  0.08277832  0.97424010  1
  O2-  O507  1  0.65636118  0.31533606  0.31079785  1
  O2-  O508  1  0.67332973  0.34699101  0.65306299  1
  O2-  O509  1  0.59660752  0.29305014  0.96008535  1
  O2-  O510  1  0.66480301  0.57343674  0.37050897  1
  O2-  O511  1  0.67225087  0.59398178  0.63890989  1
  O2-  O512  1  0.66855944  0.57171833  0.98670873  1
  O2-  O513  1  0.69649695  0.84022570  0.31896607  1
  O2-  O514  1  0.66637491  0.84283895  0.62027859  1
  O2-  O515  1  0.66868572  0.83392884  0.97971783  1
  O2-  O516  1  0.91228283  0.07059238  0.30138848  1
  O2-  O517  1  0.93278017  0.09305898  0.64656454  1
  O2-  O518  1  0.92661384  0.07704067  0.97566360  1
  O2-  O519  1  0.91971488  0.33238289  0.30822875  1
  O2-  O520  1  0.90859924  0.32995581  0.65360659  1
  O2-  O521  1  0.92474058  0.32231807  0.97499695  1
  O2-  O522  1  0.93406448  0.60159195  0.31315147  1
  O2-  O523  1  0.91412600  0.59021507  0.64236344  1
  O2-  O524  1  0.92862244  0.58944418  0.97475864  1
  O2-  O525  1  0.92097485  0.83241426  0.30069321  1
  O2-  O526  1  0.91852120  0.83564516  0.63816852  1
  O2-  O527  1  0.91178578  0.82389250  0.96655034  1
  O2-  O528  1  0.07839105  0.11321857  0.03084872  1
  O2-  O529  1  0.06917175  0.17233098  0.35190830  1
  O2-  O530  1  0.08954141  0.15900340  0.68529634  1
  O2-  O531  1  0.08814313  0.41182293  0.01660457  1
  O2-  O532  1  0.07746824  0.41322809  0.35960671  1
  O2-  O533  1  0.04166373  0.33978480  0.70405957  1
  O2-  O534  1  0.09428786  0.67309280  0.02009340  1
  O2-  O535  1  0.09743982  0.68270031  0.35068624  1
  O2-  O536  1  0.07504854  0.67429735  0.68449473  1
  O2-  O537  1  0.07762013  0.91308095  0.00402998  1
  O2-  O538  1  0.08563040  0.91129110  0.35119491  1
  O2-  O539  1  0.06812976  0.92033396  0.68379178  1
  O2-  O540  1  0.31156556  0.14643676  0.00416736  1
  O2-  O541  1  0.33783629  0.15921210  0.34137982  1
  O2-  O542  1  0.33488927  0.16334025  0.67434973  1
  O2-  O543  1  0.33272557  0.40577678  0.02360792  1
  O2-  O544  1  0.32693382  0.41325554  0.34270845  1
  O2-  O545  1  0.33983663  0.41359386  0.68107536  1
  O2-  O546  1  0.31512114  0.69545615  0.03766344  1
  O2-  O547  1  0.35428850  0.66356727  0.34839737  1
  O2-  O548  1  0.34405090  0.66075514  0.69051581  1
  O2-  O549  1  0.33562813  0.91178377  0.01952837  1
  O2-  O550  1  0.35477406  0.89966994  0.36705754  1
  O2-  O551  1  0.30459189  0.91542661  0.68989960  1
  O2-  O552  1  0.57711694  0.15933576  0.01369482  1
  O2-  O553  1  0.57573967  0.15155324  0.35313283  1
  O2-  O554  1  0.60454320  0.18384683  0.69286855  1
  O2-  O555  1  0.57199991  0.40048335  0.01788846  1
  O2-  O556  1  0.57199551  0.39975434  0.35411895  1
  O2-  O557  1  0.59534216  0.43265657  0.69334753  1
  O2-  O558  1  0.59614075  0.67032574  0.02631621  1
  O2-  O559  1  0.60154506  0.66904196  0.31260240  1
  O2-  O560  1  0.58345594  0.67878067  0.66654226  1
  O2-  O561  1  0.59249537  0.92283686  0.02024314  1
  O2-  O562  1  0.60528203  0.92020712  0.36007121  1
  O2-  O563  1  0.58846531  0.92100202  0.68600935  1
  O2-  O564  1  0.84033776  0.15911038  0.01612782  1
  O2-  O565  1  0.82679143  0.15814120  0.32827126  1
  O2-  O566  1  0.82222927  0.17300983  0.72114369  1
  O2-  O567  1  0.91290872  0.44457187  0.03392630  1
  O2-  O568  1  0.84087040  0.41945677  0.33026334  1
  O2-  O569  1  0.83700926  0.42551363  0.69072528  1
  O2-  O570  1  0.83820270  0.66772398  0.01926162  1
  O2-  O571  1  0.83760932  0.67274005  0.35161292  1
  O2-  O572  1  0.83838850  0.67990421  0.67832781  1
  O2-  O573  1  0.83810045  0.91193005  0.01332928  1
  O2-  O574  1  0.85437814  0.90924411  0.36618070  1
  O2-  O575  1  0.83030289  0.94098471  0.68123498  1
