# generated using pymatgen
data_H2O
_symmetry_space_group_name_H-M   'P 1'
_cell_length_a   17.98274950
_cell_length_b   17.98312689
_cell_length_c   22.00637082
_cell_angle_alpha   89.99606351
_cell_angle_beta   89.98500338
_cell_angle_gamma   120.00295743
_symmetry_Int_Tables_number   1
_chemical_formula_structural   H2O
_chemical_formula_sum   'H384 O192'
_cell_volume   6162.93223206
_cell_formula_units_Z   192
loop_
 _symmetry_equiv_pos_site_id
 _symmetry_equiv_pos_as_xyz
  1  'x, y, z'
loop_
 _atom_type_symbol
 _atom_type_oxidation_number
  H+  1.0
  O2-  -2.0
loop_
 _atom_site_type_symbol
 _atom_site_label
 _atom_site_symmetry_multiplicity
 _atom_site_fract_x
 _atom_site_fract_y
 _atom_site_fract_z
 _atom_site_occupancy
  H+  H0  1  0.17257310  0.13728503  0.15233556  1
  H+  H1  1  0.09844022  0.35267810  0.35027699  1
  H+  H2  1  0.35731704  0.13138416  0.34510006  1
  H+  H3  1  0.36076693  0.63481343  0.49243788  1
  H+  H4  1  0.03568101  0.17757870  0.49968501  1
  H+  H5  1  1.03074520  0.89705884  0.82688791  1
  H+  H6  1  0.00825102  0.62679285  0.65329742  1
  H+  H7  1  0.10440715  0.64529670  0.33783390  1
  H+  H8  1  0.88503797  0.86097564  -0.00677704  1
  H+  H9  1  0.63605678  0.85800614  -0.00436943  1
  H+  H10  1  0.48260177  0.55372066  0.69627619  1
  H+  H11  1  0.89679877  0.52692062  0.99156580  1
  H+  H12  1  0.36496014  0.36416721  0.16340594  1
  H+  H13  1  0.61377252  0.64407487  0.49402546  1
  H+  H14  1  0.61309230  0.73367788  0.49416199  1
  H+  H15  1  0.83011789  0.96406344  0.83613349  1
  H+  H16  1  0.12028031  0.35807118  0.99175532  1
  H+  H17  1  0.51658976  0.38336974  0.67655314  1
  H+  H18  1  0.12956831  0.36236541  0.65907589  1
  H+  H19  1  1.03217924  0.39201967  0.15642389  1
  H+  H20  1  0.47628486  0.61637823  0.33390988  1
  H+  H21  1  0.11731085  0.89313097  0.82643683  1
  H+  H22  1  0.71987318  0.12057070  0.66053646  1
  H+  H23  1  0.86307414  0.14849249  0.50821566  1
  H+  H24  1  0.27717165  0.38643774  0.83246445  1
  H+  H25  1  0.86818269  0.11510248  0.84253709  1
  H+  H26  1  0.62833125  0.35575106  0.17089164  1
  H+  H27  1  0.53424889  0.89334911  0.00651022  1
  H+  H28  1  0.75019507  0.23399397  0.78398939  1
  H+  H29  1  0.54172056  0.11774020  -0.00031011  1
  H+  H30  1  0.60611347  0.39190356  0.48808442  1
  H+  H31  1  0.02244927  0.39415575  0.67457379  1
  H+  H32  1  0.77969097  0.63462676  0.15810235  1
  H+  H33  1  0.42095931  0.84005610  0.93592527  1
  H+  H34  1  0.15827515  0.16191086  0.82103622  1
  H+  H35  1  0.12344511  0.73041477  0.00263334  1
  H+  H36  1  0.56758228  0.14300547  0.09754830  1
  H+  H37  1  0.34853007  0.71341230  0.81554145  1
  H+  H38  1  0.59186609  -0.03690911  0.83041374  1
  H+  H39  1  0.65051698  0.88370277  0.17301215  1
  H+  H40  1  0.27678202  0.63902780  -0.00434335  1
  H+  H41  1  0.22595509  0.11622858  0.65937791  1
  H+  H42  1  0.39412544  0.36787577  0.83940922  1
  H+  H43  1  0.97731797  0.84633467  0.50564847  1
  H+  H44  1  0.63927118  0.87530444  0.50046729  1
  H+  H45  1  0.97216210  0.62451171  0.32727464  1
  H+  H46  1  0.00711555  0.62558080  0.48516560  1
  H+  H47  1  0.38091256  0.77424131  0.66105963  1
  H+  H48  1  0.10997039  -0.01439747  0.67028908  1
  H+  H49  1  0.11125829  0.70038593  0.78456518  1
  H+  H50  1  0.75221522  0.11375598  -0.01222886  1
  H+  H51  1  0.63098695  0.28127566  0.83788093  1
  H+  H52  1  0.12891958  0.98450591  0.15227406  1
  H+  H53  1  0.39302239  0.35639713  0.98983126  1
  H+  H54  1  0.27658436  0.38851526  0.50020971  1
  H+  H55  1  0.11885273  0.86617996  0.49141809  1
  H+  H56  1  0.32092118  0.15338098  0.82150992  1
  H+  H57  1  0.28982897  0.07935847  0.70732565  1
  H+  H58  1  0.85880454  0.49280791  0.33906648  1
  H+  H59  1  0.23281165  0.37373381  0.17542553  1
  H+  H60  1  0.15768011  0.28003259  0.33522294  1
  H+  H61  1  0.73673518  0.60968946  0.65189247  1
  H+  H62  1  0.37267796  0.47196892  0.01309339  1
  H+  H63  1  0.37160500  0.60095577  0.83725410  1
  H+  H64  1  0.15295620  0.33051401  0.92529019  1
  H+  H65  1  0.09609015  0.18647041  0.40281500  1
  H+  H66  1  0.89168766  0.85792356  0.32384143  1
  H+  H67  1  0.75024980  0.09212785  0.39554081  1
  H+  H68  1  0.13358044  0.52066650  0.65190999  1
  H+  H69  1  0.88624016  0.28428814  0.66334797  1
  H+  H70  1  0.58287660  0.92259660  0.43367020  1
  H+  H71  1  0.14408505  0.28069721  0.83854758  1
  H+  H72  1  0.89128084  0.37311217  0.17548722  1
  H+  H73  1  0.94154431  0.27723641  0.37908129  1
  H+  H74  1  0.23289567  0.87512698  0.99310155  1
  H+  H75  1  0.61517855  0.14342659  0.48867643  1
  H+  H76  1  0.53444612  0.09433424  0.16172689  1
  H+  H77  1  0.08378961  0.40914327  1.06331575  1
  H+  H78  1  0.13957567  0.86549927  0.16945296  1
  H+  H79  1  0.85923128  0.64226473  0.33568401  1
  H+  H80  1  0.90876399  0.11156026  0.16543841  1
  H+  H81  1  0.13614312  0.03101765  0.98566478  1
  H+  H82  1  0.54466276  0.47474143  0.70653210  1
  H+  H83  1  0.36167710  0.27605815  0.15560577  1
  H+  H84  1  0.97986531  0.12817916  0.66979887  1
  H+  H85  1  1.04398536  0.18579330  0.29909836  1
  H+  H86  1  0.86544679  0.73301545  0.67346500  1
  H+  H87  1  0.13838268  0.77816373  0.32574894  1
  H+  H88  1  0.63930606  0.28547835  0.49227108  1
  H+  H89  1  0.36123171  0.85821662  0.84287848  1
  H+  H90  1  0.13843503  0.12168891  0.65730235  1
  H+  H91  1  0.61579701  0.47129717  0.00760809  1
  H+  H92  1  0.91874800  0.33516730  0.89597236  1
  H+  H93  1  0.07360375  0.67370517  0.39798224  1
  H+  H94  1  0.71140955  0.84912954  0.33393797  1
  H+  H95  1  0.64507286  0.52330535  0.65096812  1
  H+  H96  1  0.39030642  -0.02127159  0.84493717  1
  H+  H97  1  0.65459889  0.53689069  0.32638221  1
  H+  H98  1  0.48309102  0.13189903  0.65913490  1
  H+  H99  1  0.73084643  0.04411734  0.39480908  1
  H+  H100  1  0.09577294  0.71422743  0.49600566  1
  H+  H101  1  0.77544195  0.90761295  0.67484060  1
  H+  H102  1  0.28561520  0.39154392  0.34867551  1
  H+  H103  1  0.37543532  0.99884584  0.49254973  1
  H+  H104  1  0.89355559  0.37514095  0.83932781  1
  H+  H105  1  0.86897670  0.72527384  0.15768156  1
  H+  H106  1  1.02177078  0.38196854  1.00341889  1
  H+  H107  1  0.35397761  0.85546701  0.50780501  1
  H+  H108  1  0.22508914  0.79959698  0.53262080  1
  H+  H109  1  0.65402033  0.52024088  0.84192655  1
  H+  H110  1  0.89076172  0.35750794  -0.00975798  1
  H+  H111  1  0.47465110  0.61640613  0.50480904  1
  H+  H112  1  0.13518917  0.36743494  0.83844824  1
  H+  H113  1  0.90833051  0.15635917  0.83478053  1
  H+  H114  1  0.13521302  1.02714881  0.33897446  1
  H+  H115  1  0.26043232  0.64264779  0.15170840  1
  H+  H116  1  0.89195709  1.03824343  0.51574509  1
  H+  H117  1  0.27595279  0.88896482  0.33827970  1
  H+  H118  1  0.51676598  0.38466377  0.15463954  1
  H+  H119  1  0.28811291  0.41591593  0.11494451  1
  H+  H120  1  0.40647489  0.36504348  0.33987557  1
  H+  H121  1  0.36440730  0.47524306  0.82878452  1
  H+  H122  1  0.64618483  0.63703704  0.82404605  1
  H+  H123  1  0.21906527  0.36331531  0.66421953  1
  H+  H124  1  0.12647071  0.23595904  0.14875923  1
  H+  H125  1  0.64064708  0.60740058  0.99057291  1
  H+  H126  1  0.22508202  0.11325172  0.33864635  1
  H+  H127  1  0.74829237  0.87083011  0.83209923  1
  H+  H128  1  0.11963177  0.14380950  -0.00640373  1
  H+  H129  1  0.38617138  0.11767546  0.65878701  1
  H+  H130  1  0.52812067  0.38026536  0.00499479  1
  H+  H131  1  0.87275481  0.72889183  0.82733231  1
  H+  H132  1  0.44430245  0.12660570  0.16954218  1
  H+  H133  1  0.25818086  0.62753866  0.81836465  1
  H+  H134  1  0.38116120  -0.09404285  0.68530795  1
  H+  H135  1  0.88374387  0.09790259  0.35431923  1
  H+  H136  1  0.41648760  0.02083526  0.95985715  1
  H+  H137  1  0.02460063  0.39156902  0.82486952  1
  H+  H138  1  0.73120032  0.60918601  -0.00347128  1
  H+  H139  1  0.93153761  -0.00303729  0.31043005  1
  H+  H140  1  0.81630819  0.88428796  0.41393250  1
  H+  H141  1  0.61223457  0.71738320  -0.00034429  1
  H+  H142  1  0.46999193  0.11368241  0.32119252  1
  H+  H143  1  0.88583186  0.42380099  0.33851718  1
  H+  H144  1  0.38869893  -0.00121514  0.68284078  1
  H+  H145  1  0.78911945  0.63549503  0.82937787  1
  H+  H146  1  0.15194922  0.49737457  0.16923819  1
  H+  H147  1  0.16413438  0.03900809  0.83262562  1
  H+  H148  1  0.53080048  0.39304270  0.83118833  1
  H+  H149  1  0.38397117  0.61094218  0.65757134  1
  H+  H150  1  0.91659493  0.82300716  0.56351119  1
  H+  H151  1  0.92832015  0.58840264  0.93295294  1
  H+  H152  1  0.38628422  0.52512324  0.50632666  1
  H+  H153  1  0.62545708  0.11417252  1.01784630  1
  H+  H154  1  0.77048929  0.38226607  0.15873977  1
  H+  H155  1  0.35458099  -0.01520983  0.15721339  1
  H+  H156  1  0.14960612  0.00884721  0.51004455  1
  H+  H157  1  0.54653376  0.58431777  0.75285573  1
  H+  H158  1  0.88528981  0.53010063  0.65488409  1
  H+  H159  1  0.51196907  0.87951708  0.33766695  1
  H+  H160  1  0.03574750  0.64176722  0.00292221  1
  H+  H161  1  0.86981796  0.63738857  0.00353112  1
  H+  H162  1  0.47846761  0.19130734  0.80506633  1
  H+  H163  1  0.61820592  0.84728801  0.84032703  1
  H+  H164  1  0.98351846  0.86648204  0.16779598  1
  H+  H165  1  0.12909849  0.60683288  0.64128612  1
  H+  H166  1  0.61889372  0.70867859  0.82077186  1
  H+  H167  1  0.61216368  0.15202525  0.68294089  1
  H+  H168  1  0.72862141  0.36045573  0.32393811  1
  H+  H169  1  0.35204899  0.71908373  0.33810949  1
  H+  H170  1  0.77099940  0.64566177  0.33230738  1
  H+  H171  1  0.62731556  0.26686241  0.17102908  1
  H+  H172  1  0.38908879  0.24876109  0.65700460  1
  H+  H173  1  0.61748627  -0.01084659  0.15710205  1
  H+  H174  1  0.86146558  0.08622106  0.32394529  1
  H+  H175  1  0.47560514  0.60605679  -0.01018251  1
  H+  H176  1  0.62618065  0.70082744  0.68535204  1
  H+  H177  1  0.60517707  0.72541423  0.33880992  1
  H+  H178  1  0.58439140  0.42238039  0.76933653  1
  H+  H179  1  0.86075870  0.14712661  0.67948794  1
  H+  H180  1  0.64197050  0.29513287  0.67512101  1
  H+  H181  1  0.14062829  0.52636931  0.99037745  1
  H+  H182  1  0.40490336  0.28438405  0.83118437  1
  H+  H183  1  0.72695625  0.12418865  0.51169141  1
  H+  H184  1  0.64245028  0.51644052  0.17128590  1
  H+  H185  1  0.12070667  0.86012160  0.65719655  1
  H+  H186  1  0.35771106  0.22108924  1.00408289  1
  H+  H187  1  0.86478526  0.29328455  0.38660553  1
  H+  H188  1  0.37230921  0.48088047  0.34989999  1
  H+  H189  1  -0.02416513  0.10976629  -0.00871214  1
  H+  H190  1  0.37050409  0.50906216  0.18233657  1
  H+  H191  1  0.77806395  0.40000170  0.67846811  1
  H+  H192  1  0.13136283  0.49297655  0.49856651  1
  H+  H193  1  0.95023024  1.00708946  0.34195187  1
  H+  H194  1  0.11320734  0.23393772  0.67251388  1
  H+  H195  1  0.40481339  0.60883408  0.17642482  1
  H+  H196  1  0.02282685  0.38380618  0.50380193  1
  H+  H197  1  0.03341788  0.38995986  0.34334808  1
  H+  H198  1  0.11840128  0.88743431  0.33923665  1
  H+  H199  1  0.65985668  0.09125999  0.56636648  1
  H+  H200  1  0.63776155  0.61744635  0.32169760  1
  H+  H201  1  0.39541163  0.77774236  0.99217817  1
  H+  H202  1  0.51406978  0.89139064  0.66797600  1
  H+  H203  1  0.67212449  0.58237812  0.22762244  1
  H+  H204  1  0.35453084  0.63146910  0.33967590  1
  H+  H205  1  0.86639134  0.88416679  0.15438719  1
  H+  H206  1  0.61423216  0.11498734  0.32231782  1
  H+  H207  1  1.02964970  0.49013969  0.30044797  1
  H+  H208  1  0.36362739  0.22501267  0.49741234  1
  H+  H209  1  0.85508362  0.57534376  0.48467170  1
  H+  H210  1  0.33711071  0.75853512  0.51074163  1
  H+  H211  1  0.62860743  1.03352276  0.66234637  1
  H+  H212  1  0.48083919  0.87639041  0.17196316  1
  H+  H213  1  0.57849055  0.06445303  0.87270952  1
  H+  H214  1  1.02712458  0.88238390  0.34018207  1
  H+  H215  1  0.47200696  0.36135070  0.50297086  1
  H+  H216  1  0.11657127  0.89423692  0.00406983  1
  H+  H217  1  0.12872858  0.14635439  0.34795998  1
  H+  H218  1  0.62910829  0.86220727  0.32724354  1
  H+  H219  1  0.52518055  0.60953384  0.15103773  1
  H+  H220  1  0.88873593  0.62049537  0.65545283  1
  H+  H221  1  0.06511599  0.63469746  0.71077379  1
  H+  H222  1  0.36916436  0.90353893  0.15832622  1
  H+  H223  1  0.27857567  0.12895481  0.49959414  1
  H+  H224  1  0.60349393  0.47977636  0.49113310  1
  H+  H225  1  0.90991350  0.58784397  0.26823267  1
  H+  H226  1  0.88865331  0.37543945  0.66509785  1
  H+  H227  1  0.90814682  0.62314378  0.83817879  1
  H+  H228  1  0.85796758  0.47274737  0.16221570  1
  H+  H229  1  0.10900688  0.36501840  0.16040016  1
  H+  H230  1  0.60987888  0.68959683  0.65310109  1
  H+  H231  1  0.51066094  0.13434284  0.83783115  1
  H+  H232  1  0.39690504  0.27468994  0.33825620  1
  H+  H233  1  0.89793368  0.28693748  0.51940935  1
  H+  H234  1  0.63573924  0.88862620  0.65886035  1
  H+  H235  1  0.23225896  0.53753956  0.21379479  1
  H+  H236  1  0.67483588  0.10931426  0.84259381  1
  H+  H237  1  0.89061775  0.03917339  0.67142115  1
  H+  H238  1  0.09011297  0.92299797  0.09526099  1
  H+  H239  1  0.65811539  0.13371030  0.16715006  1
  H+  H240  1  0.38383688  1.02168498  0.32145991  1
  H+  H241  1  0.88657640  0.61055645  0.17334949  1
  H+  H242  1  0.37186703  0.89287289  1.00345427  1
  H+  H243  1  0.13616861  0.35533198  0.50979598  1
  H+  H244  1  0.89098771  0.77111489  0.32088622  1
  H+  H245  1  0.89097134  0.26592917  0.98130186  1
  H+  H246  1  0.72448863  0.85787407  0.99041837  1
  H+  H247  1  0.11414906  0.72478849  0.18576524  1
  H+  H248  1  0.62905903  0.97809216  0.00834428  1
  H+  H249  1  0.06424767  0.14218390  0.83099305  1
  H+  H250  1  0.58689004  0.92517004  0.09991401  1
  H+  H251  1  0.77686182  0.79250111  0.38506663  1
  H+  H252  1  0.78229386  0.89527431  0.15806667  1
  H+  H253  1  0.39504920  0.12345314  0.50827756  1
  H+  H254  1  0.14305391  0.78057068  0.84862293  1
  H+  H255  1  0.26922615  0.63576322  0.66169647  1
  H+  H256  1  0.61536808  0.98333016  0.49206600  1
  H+  H257  1  0.78420734  0.40064180  0.82776222  1
  H+  H258  1  0.12322274  0.26118949  0.98808455  1
  H+  H259  1  0.22975982  0.59673302  0.49862048  1
  H+  H260  1  0.52685792  0.14433116  0.49061094  1
  H+  H261  1  0.31584392  0.77191877  0.88069646  1
  H+  H262  1  0.71973935  0.61181788  0.49727392  1
  H+  H263  1  0.38094955  0.85932606  0.32783686  1
  H+  H264  1  0.26456820  0.72080399  0.11571180  1
  H+  H265  1  0.50673204  0.87316876  0.82398162  1
  H+  H266  1  0.77627500  0.89231926  0.50079468  1
  H+  H267  1  0.11790589  0.76925755  0.65785902  1
  H+  H268  1  0.20954607  0.60828282  0.32791759  1
  H+  H269  1  0.86140504  0.71005908  0.49030913  1
  H+  H270  1  0.87830205  0.85853207  0.84286047  1
  H+  H271  1  0.63665941  0.40747630  0.34157397  1
  H+  H272  1  0.60808763  0.22715377  0.33657743  1
  H+  H273  1  0.78416205  0.39113884  1.00188159  1
  H+  H274  1  0.59596964  0.97144238  0.33265859  1
  H+  H275  1  0.00039607  0.62757611  0.84204362  1
  H+  H276  1  0.13629418  0.62741137  0.83920258  1
  H+  H277  1  0.11216535  0.48303599  0.82539965  1
  H+  H278  1  0.88866092  0.11302131  -0.02313217  1
  H+  H279  1  0.95873599  0.00458951  0.85394122  1
  H+  H280  1  0.65111736  0.36816115  0.99372019  1
  H+  H281  1  0.10534872  0.63790999  0.16162354  1
  H+  H282  1  0.78916826  0.14687547  0.17779768  1
  H+  H283  1  0.88416429  0.86914436  0.65932745  1
  H+  H284  1  0.31888763  0.12526556  0.16523750  1
  H+  H285  1  0.23019831  0.87483669  0.84480822  1
  H+  H286  1  0.34619503  0.47136412  0.67444390  1
  H+  H287  1  0.88821957  0.77276906  -0.00632032  1
  H+  H288  1  0.35630013  0.17765004  0.75403444  1
  H+  H289  1  0.32221882  0.41466020  0.73496032  1
  H+  H290  1  0.91647060  0.09475707  0.57631535  1
  H+  H291  1  0.08242156  0.92601327  0.73002862  1
  H+  H292  1  0.84012785  0.66556790  0.06384838  1
  H+  H293  1  0.84019054  0.67156568  0.73201406  1
  H+  H294  1  0.42715629  0.09321912  0.56729411  1
  H+  H295  1  0.86380515  0.88775660  0.50148282  1
  H+  H296  1  0.35424862  0.93803571  0.77712711  1
  H+  H297  1  0.17262505  0.83807286  0.26602542  1
  H+  H298  1  0.86147403  -0.02628736  1.00101419  1
  H+  H299  1  0.66857829  0.58540750  0.56004635  1
  H+  H300  1  0.84494674  0.45486831  0.42989218  1
  H+  H301  1  0.87654587  0.48939438  0.82950843  1
  H+  H302  1  0.58143569  0.65137979  0.05622658  1
  H+  H303  1  0.92423705  0.83478863  0.22699353  1
  H+  H304  1  0.56927875  0.91778941  0.72962382  1
  H+  H305  1  0.91687735  0.83561731  0.90089834  1
  H+  H306  1  0.41794490  0.57938397  0.27475499  1
  H+  H307  1  0.93391547  0.35235970  0.57432300  1
  H+  H308  1  0.16805536  0.82446382  0.57376742  1
  H+  H309  1  0.66784218  0.85068830  0.56236318  1
  H+  H310  1  0.14195529  0.61705569  0.99038566  1
  H+  H311  1  0.82628177  0.92118385  0.73674745  1
  H+  H312  1  0.67664452  0.84957924  0.23109188  1
  H+  H313  1  0.38648498  0.79224366  0.16823153  1
  H+  H314  1  0.66536821  0.09501604  0.23048031  1
  H+  H315  1  0.83255202  0.91465499  0.06096410  1
  H+  H316  1  0.65141895  0.82157655  0.90059019  1
  H+  H317  1  0.09919179  0.17720708  0.05660341  1
  H+  H318  1  0.31131518  0.16330070  0.06226932  1
  H+  H319  1  0.85724848  0.19474494  0.12717725  1
  H+  H320  1  0.84523494  0.43275026  0.73353724  1
  H+  H321  1  0.96424601  0.40568540  0.26262869  1
  H+  H322  1  0.16185861  0.58859557  0.26531064  1
  H+  H323  1  0.19071159  0.09491071  0.89247910  1
  H+  H324  1  0.16329981  0.32373906  0.56905002  1
  H+  H325  1  0.07600660  0.39652700  0.43960583  1
  H+  H326  1  0.04945413  0.13909111  0.14237237  1
  H+  H327  1  0.68159891  0.34358044  0.93300927  1
  H+  H328  1  0.72204491  0.37892596  0.49713693  1
  H+  H329  1  0.95237326  0.06481223  0.90596362  1
  H+  H330  1  0.16523171  0.56659389  0.56004947  1
  H+  H331  1  0.08723495  0.89971147  0.43539866  1
  H+  H332  1  0.28279339  0.91392546  0.48966489  1
  H+  H333  1  0.57609814  0.16631089  0.39630707  1
  H+  H334  1  0.84180801  0.41733422  0.06194628  1
  H+  H335  1  0.16650663  0.58629264  0.89371838  1
  H+  H336  1  0.18082236  0.34094541  0.27670530  1
  H+  H337  1  0.17122290  0.84531878  0.93548999  1
  H+  H338  1  0.09611395  0.17715642  0.73253743  1
  H+  H339  1  0.38734053  0.60765233  -0.00560418  1
  H+  H340  1  0.58192718  0.41073540  0.09990234  1
  H+  H341  1  0.90502521  0.02099996  0.15822869  1
  H+  H342  1  0.33819994  0.41967469  0.44137610  1
  H+  H343  1  0.39617565  0.08775194  0.23246598  1
  H+  H344  1  0.08688299  0.42596055  0.73133930  1
  H+  H345  1  0.99442700  0.14572900  0.23697914  1
  H+  H346  1  0.68337989  0.57698369  0.90314418  1
  H+  H347  1  0.61761091  0.62030518  0.14771875  1
  H+  H348  1  0.58261905  0.66922942  0.40011224  1
  H+  H349  1  0.97425750  0.87217773  0.66037575  1
  H+  H350  1  0.32155004  0.65898062  0.72420107  1
  H+  H351  1  0.38358308  0.36044560  0.51023753  1
  H+  H352  1  0.09596849  0.27663346  0.21719419  1
  H+  H353  1  0.64533636  0.37371055  0.83744729  1
  H+  H354  1  0.41134410  0.83259409  0.26755886  1
  H+  H355  1  0.67091495  0.07249647  0.94042333  1
  H+  H356  1  0.60857222  0.44013283  0.40011687  1
  H+  H357  1  0.40309232  0.57501010  0.89777840  1
  H+  H358  1  0.39098622  0.83048051  0.60352453  1
  H+  H359  1  0.82750038  0.24512314  0.82305871  1
  H+  H360  1  0.33354624  0.16067785  0.40790898  1
  H+  H361  1  0.33887520  0.92732340  0.39634913  1
  H+  H362  1  0.42016149  0.31160991  0.59963726  1
  H+  H363  1  0.81648830  0.17863213  0.73059812  1
  H+  H364  1  0.22823961  0.86578080  0.16856211  1
  H+  H365  1  0.17186191  0.07476398  0.56498514  1
  H+  H366  1  0.85550916  0.16611368  0.03677022  1
  H+  H367  1  0.69889372  0.10817826  0.32423720  1
  H+  H368  1  0.22621956  0.11915356  0.98836394  1
  H+  H369  1  0.32577008  0.66005297  0.43232364  1
  H+  H370  1  0.38319479  0.41612277  0.06521199  1
  H+  H371  1  0.66811311  0.32984360  0.26487752  1
  H+  H372  1  0.97364441  0.60800936  0.18699338  1
  H+  H373  1  0.56817076  0.17899163  0.73773023  1
  H+  H374  1  0.42363191  0.32845293  0.93036645  1
  H+  H375  1  0.64427852  0.80500385  0.65746527  1
  H+  H376  1  0.84723675  0.19751274  0.45261299  1
  H+  H377  1  0.41409522  0.57959103  0.60003465  1
  H+  H378  1  0.90193487  0.29250304  0.19445444  1
  H+  H379  1  0.82759382  0.66142665  0.42688791  1
  H+  H380  1  0.34571205  0.93484709  0.05666596  1
  H+  H381  1  0.64732711  0.38602388  0.67603032  1
  H+  H382  1  0.33017212  0.67492013  0.05599075  1
  H+  H383  1  1.02527936  0.89048286  1.00422810  1
  O2-  O384  1  0.11022917  0.17727865  0.12896309  1
  O2-  O385  1  0.09088954  0.19687640  0.47829484  1
  O2-  O386  1  0.11932688  0.18513166  0.81108364  1
  O2-  O387  1  0.09017525  0.41000996  0.13998376  1
  O2-  O388  1  0.08465814  0.41038654  0.48451390  1
  O2-  O389  1  0.08573590  0.42193271  0.81085172  1
  O2-  O390  1  0.08290031  0.66113022  0.19169667  1
  O2-  O391  1  0.06597176  0.66186316  0.47060367  1
  O2-  O392  1  0.10052513  0.68474848  0.82723414  1
  O2-  O393  1  0.09285089  0.92334492  0.14105239  1
  O2-  O394  1  0.08609223  0.89469626  0.48093464  1
  O2-  O395  1  0.08976618  0.92567187  0.80998759  1
  O2-  O396  1  0.28980069  0.15485807  0.14596424  1
  O2-  O397  1  0.33990010  0.16390820  0.48378236  1
  O2-  O398  1  0.37485079  0.19085476  0.79943183  1
  O2-  O399  1  0.29470700  0.41448079  0.15909644  1
  O2-  O400  1  0.33801706  0.42201430  0.48719269  1
  O2-  O401  1  0.33578656  0.41274074  0.81555652  1
  O2-  O402  1  0.30030624  0.69720134  0.12902769  1
  O2-  O403  1  0.32347630  0.65854515  0.47783806  1
  O2-  O404  1  0.31848535  0.65348523  0.80095481  1
  O2-  O405  1  0.33401185  0.92649743  0.13979693  1
  O2-  O406  1  0.34150912  0.93939419  0.47322991  1
  O2-  O407  1  0.34337559  0.92738643  0.82288313  1
  O2-  O408  1  0.56175614  0.15167205  0.14400595  1
  O2-  O409  1  0.58494521  0.17225532  0.47059375  1
  O2-  O410  1  0.53006655  0.18498063  0.80927477  1
  O2-  O411  1  0.57891900  0.40969324  0.14566539  1
  O2-  O412  1  0.57278523  0.42035945  0.47425716  1
  O2-  O413  1  0.59111814  0.42074121  0.81476044  1
  O2-  O414  1  0.58024117  0.64069953  0.12950751  1
  O2-  O415  1  0.58226885  0.67360595  0.47849237  1
  O2-  O416  1  0.62237009  0.66430911  0.79702904  1
  O2-  O417  1  0.58313460  0.92782516  0.14550123  1
  O2-  O418  1  0.58846109  0.92257681  0.47840031  1
  O2-  O419  1  0.56644841  0.90488459  0.81041934  1
  O2-  O420  1  0.85270433  0.17894189  0.16980618  1
  O2-  O421  1  0.83354399  0.18124694  0.49642404  1
  O2-  O422  1  0.77434560  0.20064810  0.80115793  1
  O2-  O423  1  0.83186065  0.41291790  0.14579863  1
  O2-  O424  1  0.83670928  0.45647673  0.47515113  1
  O2-  O425  1  0.84495649  0.42880177  0.81348217  1
  O2-  O426  1  0.84056335  0.66465312  0.14285640  1
  O2-  O427  1  0.82660722  0.65185261  0.47186033  1
  O2-  O428  1  0.84829127  0.66960112  0.81120278  1
  O2-  O429  1  0.84068019  0.91810852  0.13830153  1
  O2-  O430  1  0.83716638  0.92068165  0.48552553  1
  O2-  O431  1  0.81114602  0.90713472  0.81912033  1
  O2-  O432  1  0.20055953  0.10343664  0.16701024  1
  O2-  O433  1  0.18224694  0.07005102  0.52118443  1
  O2-  O434  1  0.20130050  0.09850462  0.84763640  1
  O2-  O435  1  0.13921408  0.31591643  0.18656659  1
  O2-  O436  1  0.17076325  0.32929938  0.52366374  1
  O2-  O437  1  0.16455877  0.33858716  0.85808380  1
  O2-  O438  1  0.19611191  0.55396870  0.19110167  1
  O2-  O439  1  0.16742274  0.56111786  0.51379104  1
  O2-  O440  1  0.16300697  0.58769251  0.84864538  1
  O2-  O441  1  0.16937298  0.83572163  0.18652502  1
  O2-  O442  1  0.18033066  0.81619742  0.52944620  1
  O2-  O443  1  0.16995731  0.84511331  0.85959048  1
  O2-  O444  1  0.38705273  0.08850691  0.18693103  1
  O2-  O445  1  0.42746016  0.09306158  0.52134628  1
  O2-  O446  1  0.47986251  0.05007788  0.88186007  1
  O2-  O447  1  0.39964642  0.33836426  0.15040724  1
  O2-  O448  1  0.41293362  0.32750478  0.52092778  1
  O2-  O449  1  0.42779497  0.34038672  0.85397520  1
  O2-  O450  1  0.41849976  0.56786463  0.19470497  1
  O2-  O451  1  0.41402772  0.58728617  0.51952815  1
  O2-  O452  1  0.40255730  0.57240380  0.85285474  1
  O2-  O453  1  0.42018151  0.84916334  0.18776409  1
  O2-  O454  1  0.33459589  0.80424670  0.53433347  1
  O2-  O455  1  0.37101905  0.81018549  0.86155173  1
  O2-  O456  1  0.68099340  0.09949679  0.18603077  1
  O2-  O457  1  0.66381527  0.09104021  0.52117456  1
  O2-  O458  1  0.63124995  0.05894628  0.86536894  1
  O2-  O459  1  0.66094203  0.32684435  0.18495969  1
  O2-  O460  1  0.66079073  0.34474136  0.50711656  1
  O2-  O461  1  0.67435011  0.34049957  0.85013784  1
  O2-  O462  1  0.67611771  0.57858776  0.18235703  1
  O2-  O463  1  0.66092364  0.58815812  0.51432693  1
  O2-  O464  1  0.69013393  0.58024309  0.85791747  1
  O2-  O465  1  0.68768910  0.86127167  0.18708113  1
  O2-  O466  1  0.66928569  0.84432043  0.51764906  1
  O2-  O467  1  0.65074995  0.81963118  0.85493065  1
  O2-  O468  1  0.94392496  0.08368794  0.16737810  1
  O2-  O469  1  0.91557325  0.09743714  0.53106645  1
  O2-  O470  1  0.97615082  0.06335394  0.86454937  1
  O2-  O471  1  0.93107340  0.35602185  0.19523936  1
  O2-  O472  1  0.93658261  0.34882602  0.52922315  1
  O2-  O473  1  0.91635848  0.33599499  0.85021949  1
  O2-  O474  1  0.90977370  0.57569088  0.19267789  1
  O2-  O475  1  0.88956802  0.54618896  0.49293109  1
  O2-  O476  1  0.93676543  0.59198283  0.85446657  1
  O2-  O477  1  0.92260959  0.83325657  0.18152817  1
  O2-  O478  1  0.91576561  0.81952012  0.51832579  1
  O2-  O479  1  0.91825996  0.83847286  0.85518472  1
  O2-  O480  1  0.16432130  0.08706384  0.32437460  1
  O2-  O481  1  0.16478054  0.08720641  0.64350082  1
  O2-  O482  1  0.16621730  0.09070812  0.96934886  1
  O2-  O483  1  0.18316211  0.34296587  0.32137664  1
  O2-  O484  1  0.15841579  0.33027027  0.64573348  1
  O2-  O485  1  0.14848566  0.32511352  0.97257636  1
  O2-  O486  1  0.15198861  0.58852818  0.30932538  1
  O2-  O487  1  0.16307947  0.57811794  0.63055175  1
  O2-  O488  1  0.17265819  0.58600123  0.97479726  1
  O2-  O489  1  0.17401064  0.83928771  0.31139946  1
  O2-  O490  1  0.15003157  0.82895570  0.64290390  1
  O2-  O491  1  0.17116096  0.84365010  0.98132060  1
  O2-  O492  1  0.40977469  0.08187568  0.30558363  1
  O2-  O493  1  0.42441267  0.09402485  0.64248090  1
  O2-  O494  1  0.45976038  0.07603688  0.94104112  1
  O2-  O495  1  0.43533205  0.33440285  0.32477049  1
  O2-  O496  1  0.43164392  0.30614855  0.64313430  1
  O2-  O497  1  0.42312279  0.32570792  0.97608290  1
  O2-  O498  1  0.41487513  0.58547483  0.31942837  1
  O2-  O499  1  0.41111579  0.57685348  0.64520590  1
  O2-  O500  1  0.41265450  0.57266565  0.98013321  1
  O2-  O501  1  0.40827951  0.82584987  0.31261888  1
  O2-  O502  1  0.41094247  0.83517641  0.64640677  1
  O2-  O503  1  0.42683579  0.84012449  0.98082748  1
  O2-  O504  1  0.64321208  0.08294306  0.30398630  1
  O2-  O505  1  0.65853146  0.09411421  0.64776401  1
  O2-  O506  1  0.68486479  0.07654570  0.98439923  1
  O2-  O507  1  0.66806776  0.32732351  0.31013729  1
  O2-  O508  1  0.67857781  0.35675749  0.66416243  1
  O2-  O509  1  0.68768229  0.34566867  0.97779374  1
  O2-  O510  1  0.67328480  0.59429468  0.30462464  1
  O2-  O511  1  0.68108633  0.57878490  0.63012761  1
  O2-  O512  1  0.67142506  0.57541923  0.98017610  1
  O2-  O513  1  0.65612907  0.82876168  0.31210279  1
  O2-  O514  1  0.67284704  0.86469264  0.64354022  1
  O2-  O515  1  0.66300158  0.82618820  0.97706976  1
  O2-  O516  1  1.01929448  0.19781450  0.26221740  1
  O2-  O517  1  0.91779932  0.09960915  0.65673955  1
  O2-  O518  1  0.91851321  0.07576582  0.97211613  1
  O2-  O519  1  0.97993479  0.43203988  0.30436390  1
  O2-  O520  1  0.92108423  0.34590599  0.65153416  1
  O2-  O521  1  0.92373361  0.33129655  0.97272605  1
  O2-  O522  1  0.91031145  0.59283062  0.31380233  1
  O2-  O523  1  0.91620964  0.58918116  0.63747952  1
  O2-  O524  1  0.92546805  0.58846040  0.97850102  1
  O2-  O525  1  0.92423643  0.83255709  0.30583667  1
  O2-  O526  1  0.91363806  0.83837153  0.64474056  1
  O2-  O527  1  0.91808005  0.83331238  0.97808984  1
  O2-  O528  1  0.08995975  0.17466126  0.01082079  1
  O2-  O529  1  0.10569384  0.18651911  0.35774289  1
  O2-  O530  1  0.08427035  0.17257746  0.68806162  1
  O2-  O531  1  0.08364172  0.41078497  0.01744717  1
  O2-  O532  1  0.05172746  0.35821005  0.37093543  1
  O2-  O533  1  0.08508469  0.42514110  0.68593369  1
  O2-  O534  1  0.09703317  0.66951542  0.01570700  1
  O2-  O535  1  0.07526694  0.67699345  0.35181678  1
  O2-  O536  1  0.07198024  0.65169095  0.66819351  1
  O2-  O537  1  0.08583793  0.92463723  0.01881839  1
  O2-  O538  1  0.08520889  0.91174667  0.35910877  1
  O2-  O539  1  0.07688118  0.92421986  0.68487854  1
  O2-  O540  1  0.31789902  0.16125816  0.01803864  1
  O2-  O541  1  0.32840881  0.16109454  0.36243471  1
  O2-  O542  1  0.31989555  0.13750223  0.69071257  1
  O2-  O543  1  0.34760293  0.41267168  0.03061700  1
  O2-  O544  1  0.34475928  0.42151747  0.36637723  1
  O2-  O545  1  0.30964543  0.41257587  0.69081990  1
  O2-  O546  1  0.33751489  0.67028012  0.01176359  1
  O2-  O547  1  0.32054238  0.65875850  0.35364895  1
  O2-  O548  1  0.32830367  0.66649486  0.67898002  1
  O2-  O549  1  0.34540795  0.92917545  0.01173692  1
  O2-  O550  1  0.33789396  0.91986706  0.35108940  1
  O2-  O551  1  0.36717818  0.94526144  0.70742782  1
  O2-  O552  1  0.58305404  0.13045094  0.03315650  1
  O2-  O553  1  0.57353153  0.16548304  0.35018056  1
  O2-  O554  1  0.58421904  0.18597190  0.69379974  1
  O2-  O555  1  0.58685629  0.41106822  0.02341988  1
  O2-  O556  1  0.64350079  0.45916464  0.36201405  1
  O2-  O557  1  0.56751058  0.43394774  0.69627382  1
  O2-  O558  1  0.58199563  0.65510248  0.01022608  1
  O2-  O559  1  0.57948779  0.66524501  0.35461268  1
  O2-  O560  1  0.50852979  0.53389153  0.72691200  1
  O2-  O561  1  0.59283876  0.91711761  0.02412862  1
  O2-  O562  1  0.57377543  0.91349476  0.35034144  1
  O2-  O563  1  0.57435268  0.92449929  0.68462634  1
  O2-  O564  1  0.84764347  0.16659385  -0.00688562  1
  O2-  O565  1  0.87780775  0.24700531  0.38326812  1
  O2-  O566  1  0.82613164  0.17624187  0.68650689  1
  O2-  O567  1  0.84608173  0.41915721  0.01699949  1
  O2-  O568  1  0.83906025  0.43280406  0.35431372  1
  O2-  O569  1  0.84192070  0.42913581  0.68836160  1
  O2-  O570  1  0.83841735  0.66704210  0.01843781  1
  O2-  O571  1  0.83110923  0.67558079  0.35012989  1
  O2-  O572  1  0.83848981  0.67194392  0.68666503  1
  O2-  O573  1  0.83030729  0.91248285  0.01535046  1
  O2-  O574  1  0.79923093  0.85242553  0.37375229  1
  O2-  O575  1  0.83408831  0.92965003  0.69209716  1
