# generated using pymatgen
data_H2O
_symmetry_space_group_name_H-M   'P 1'
_cell_length_a   17.99278564
_cell_length_b   17.99331488
_cell_length_c   22.00923371
_cell_angle_alpha   90.02255716
_cell_angle_beta   89.98957311
_cell_angle_gamma   119.98890936
_symmetry_Int_Tables_number   1
_chemical_formula_structural   H2O
_chemical_formula_sum   'H384 O192'
_cell_volume   6171.54116954
_cell_formula_units_Z   192
loop_
 _symmetry_equiv_pos_site_id
 _symmetry_equiv_pos_as_xyz
  1  'x, y, z'
loop_
 _atom_type_symbol
 _atom_type_oxidation_number
  H+  1.0
  O2-  -2.0
loop_
 _atom_site_type_symbol
 _atom_site_label
 _atom_site_symmetry_multiplicity
 _atom_site_fract_x
 _atom_site_fract_y
 _atom_site_fract_z
 _atom_site_occupancy
  H+  H0  1  0.72311973  0.61284696  0.17269265  1
  H+  H1  1  0.73274551  0.36561625  0.33014140  1
  H+  H2  1  0.61687245  0.23412881  0.16114384  1
  H+  H3  1  0.59116272  0.17948726  0.50045296  1
  H+  H4  1  0.47861913  0.12561666  0.99881270  1
  H+  H5  1  0.50059454  0.87093385  0.50279658  1
  H+  H6  1  0.38613037  0.28298835  0.50500221  1
  H+  H7  1  0.16355145  0.83479031  0.94041583  1
  H+  H8  1  0.13656126  0.26411217  0.99474443  1
  H+  H9  1  0.27800199  0.13478281  0.34031866  1
  H+  H10  1  0.14888898  0.63661368  0.30333466  1
  H+  H11  1  0.86817155  0.48322221  0.50187605  1
  H+  H12  1  0.26857078  0.38085586  0.01217661  1
  H+  H13  1  0.36969924  0.81686784  0.84643648  1
  H+  H14  1  0.26777543  0.14630233  0.49842370  1
  H+  H15  1  1.02123146  0.38153189  0.50203715  1
  H+  H16  1  0.63895836  0.36486694  -0.00993222  1
  H+  H17  1  0.87206879  0.26044874  0.66508096  1
  H+  H18  1  0.35797654  0.83676867  0.28733441  1
  H+  H19  1  0.95557464  0.55186548  0.67269143  1
  H+  H20  1  0.85818148  0.90302974  0.66296044  1
  H+  H21  1  0.48619197  0.61436807  0.50536788  1
  H+  H22  1  0.38285355  0.36147139  -0.00118470  1
  H+  H23  1  0.61394854  0.23062209  0.00257716  1
  H+  H24  1  0.66722985  0.62385109  0.33106490  1
  H+  H25  1  0.53791715  0.88029384  0.33258176  1
  H+  H26  1  0.37068767  0.75815687  0.27273111  1
  H+  H27  1  0.22890032  0.36442103  0.50416392  1
  H+  H28  1  0.67578751  0.10619386  0.25883610  1
  H+  H29  1  0.10389696  0.90906954  0.69154590  1
  H+  H30  1  0.77985019  0.64874137  0.49144165  1
  H+  H31  1  0.21544272  0.16693743  0.80124906  1
  H+  H32  1  0.18963185  0.13026666  0.82242416  1
  H+  H33  1  0.52418069  0.64253124  0.17576747  1
  H+  H34  1  0.11614006  0.72635067  1.00698499  1
  H+  H35  1  0.98746724  0.12488123  0.33037581  1
  H+  H36  1  -0.03087169  0.85104108  0.00766706  1
  H+  H37  1  0.64290003  0.03037526  0.84459068  1
  H+  H38  1  0.77983230  0.14724726  0.82220121  1
  H+  H39  1  0.67785647  0.83918473  0.25549867  1
  H+  H40  1  0.03393038  0.64758240  0.29600509  1
  H+  H41  1  0.13615854  0.61249792  0.98944824  1
  H+  H42  1  0.93817937  0.67606368  0.69009534  1
  H+  H43  1  0.60852581  0.71801337  0.67330205  1
  H+  H44  1  0.39381538  0.76674574  -0.00820097  1
  H+  H45  1  0.39608142  0.28597799  0.65770913  1
  H+  H46  1  0.56899195  0.16886589  0.82694192  1
  H+  H47  1  0.51970156  0.91139614  0.14787803  1
  H+  H48  1  0.61593009  0.39062411  0.66815516  1
  H+  H49  1  0.43013816  0.60358352  0.34239941  1
  H+  H50  1  0.13401101  0.25987970  0.33008115  1
  H+  H51  1  0.03854728  0.38263932  0.65514479  1
  H+  H52  1  0.61156960  0.64274954  1.00314760  1
  H+  H53  1  0.12838941  0.26164364  0.17229443  1
  H+  H54  1  0.11354298  1.12793291  0.34517724  1
  H+  H55  1  0.15725038  0.61102947  0.50520774  1
  H+  H56  1  0.60156600  0.18106549  0.72951541  1
  H+  H57  1  0.74435578  0.62480808  0.65764795  1
  H+  H58  1  0.63439414  0.99360348  0.68587755  1
  H+  H59  1  0.21159084  0.59625528  0.16678498  1
  H+  H60  1  0.26323136  0.39677807  0.82543869  1
  H+  H61  1  0.36503485  0.02803009  0.53889602  1
  H+  H62  1  0.26884137  0.63412936  -0.00031231  1
  H+  H63  1  0.89431629  0.12119625  0.50880472  1
  H+  H64  1  0.49048162  0.92751076  0.35410365  1
  H+  H65  1  0.60374840  0.93679187  0.74708736  1
  H+  H66  1  0.63024670  0.52315630  0.84471527  1
  H+  H67  1  0.13889405  0.10672042  0.17445476  1
  H+  H68  1  0.39947453  0.98656950  0.32384362  1
  H+  H69  1  0.35087683  0.96006570  0.45987036  1
  H+  H70  1  0.53221155  0.39821804  0.66920738  1
  H+  H71  1  0.64014149  0.77604787  0.50185744  1
  H+  H72  1  0.65600728  0.53288463  0.65935164  1
  H+  H73  1  0.38495945  0.51336556  0.84083545  1
  H+  H74  1  0.11983877  0.73977639  0.29804670  1
  H+  H75  1  0.24574228  0.87970893  0.31975280  1
  H+  H76  1  0.38656045  0.37211312  0.50489389  1
  H+  H77  1  0.14115691  1.01866978  0.17558345  1
  H+  H78  1  0.35926401  0.37571655  0.33727455  1
  H+  H79  1  0.13103547  0.72625207  0.53858858  1
  H+  H80  1  0.62277086  0.64529437  0.49080552  1
  H+  H81  1  0.85719523  0.13754418  0.34409186  1
  H+  H82  1  0.48392726  0.85725332  0.98849562  1
  H+  H83  1  0.86517525  0.64645785  0.50116274  1
  H+  H84  1  0.13550550  0.12135162  0.51327528  1
  H+  H85  1  0.33874344  0.71917529  0.15478695  1
  H+  H86  1  0.28136245  0.86291795  0.45715008  1
  H+  H87  1  0.11235973  0.71518631  0.16073664  1
  H+  H88  1  0.67749759  0.09436326  0.90140773  1
  H+  H89  1  0.78231444  0.89456679  0.50405743  1
  H+  H90  1  0.62439199  0.63777323  0.67527608  1
  H+  H91  1  0.61026104  0.40692836  0.48877296  1
  H+  H92  1  0.38883640  0.10786029  0.16937513  1
  H+  H93  1  1.02137950  0.12551562  0.15821070  1
  H+  H94  1  0.13691290  0.35849399  0.50977210  1
  H+  H95  1  0.64223920  0.12230157  0.65724129  1
  H+  H96  1  0.02302446  0.38369322  0.00311692  1
  H+  H97  1  0.88199642  0.61180458  0.84837019  1
  H+  H98  1  0.99609871  0.87901339  0.87138710  1
  H+  H99  1  0.24680786  0.88723230  0.83668439  1
  H+  H100  1  0.11341588  0.89843711  0.50253435  1
  H+  H101  1  0.89588383  1.00483231  -0.01474440  1
  H+  H102  1  0.63499510  0.52530038  0.17098761  1
  H+  H103  1  0.09817429  0.64214803  0.81827924  1
  H+  H104  1  0.38010364  0.71583260  0.82810908  1
  H+  H105  1  0.62700877  0.08792560  0.50428491  1
  H+  H106  1  0.11377499  0.12799874  0.00304827  1
  H+  H107  1  0.12155612  0.88561728  0.16120033  1
  H+  H108  1  0.12595403  0.35052448  0.17136026  1
  H+  H109  1  0.36475540  0.23596952  1.01120466  1
  H+  H110  1  0.35338688  0.63905430  0.16114333  1
  H+  H111  1  0.10340053  0.36780649  0.34469824  1
  H+  H112  1  0.34570250  0.91292085  0.84800602  1
  H+  H113  1  0.89574765  0.12665393  0.65741910  1
  H+  H114  1  0.11240065  0.02571911  0.92226842  1
  H+  H115  1  0.64634446  0.15190915  0.82511916  1
  H+  H116  1  0.26838747  0.12812218  0.15798465  1
  H+  H117  1  0.76659885  0.88186083  0.81803681  1
  H+  H118  1  0.52418707  0.64372250  -0.00235556  1
  H+  H119  1  0.26710599  0.89487382  0.01638529  1
  H+  H120  1  0.89704907  0.37516150  0.66211683  1
  H+  H121  1  0.36411266  0.50481333  0.33002416  1
  H+  H122  1  0.88049669  0.73077105  0.33897797  1
  H+  H123  1  0.64225468  0.13241943  0.32590350  1
  H+  H124  1  0.14395898  1.02338991  0.32980358  1
  H+  H125  1  0.37012876  0.15663579  0.82512031  1
  H+  H126  1  0.89704278  0.78973492  0.50561904  1
  H+  H127  1  0.81408662  0.54267674  0.57147030  1
  H+  H128  1  0.86912545  0.38445277  0.34248730  1
  H+  H129  1  0.66719513  0.29627658  0.83452400  1
  H+  H130  1  0.83512902  0.16801480  0.09857620  1
  H+  H131  1  0.10960962  0.46492702  0.15563079  1
  H+  H132  1  0.48568475  0.60431354  0.66392079  1
  H+  H133  1  0.15719212  0.88160481  0.32780140  1
  H+  H134  1  0.26577639  0.36988924  0.33801519  1
  H+  H135  1  0.02462819  0.13921971  0.49750812  1
  H+  H136  1  0.37759967  0.62141663  0.82727438  1
  H+  H137  1  0.47846663  0.36177364  0.32403307  1
  H+  H138  1  0.72210494  0.60815501  1.00080470  1
  H+  H139  1  0.63410159  0.86489287  0.17095540  1
  H+  H140  1  0.73088692  0.12596695  0.17377573  1
  H+  H141  1  0.88258709  0.10546634  0.16844664  1
  H+  H142  1  0.51809022  0.40027296  0.48911849  1
  H+  H143  1  0.35370298  -0.01253126  1.01780960  1
  H+  H144  1  0.52493568  0.14327194  0.68003471  1
  H+  H145  1  0.38165567  0.36986348  0.84111215  1
  H+  H146  1  -0.02505055  0.60586122  0.16639123  1
  H+  H147  1  0.63338854  0.61384096  0.84551301  1
  H+  H148  1  0.90521315  0.85983341  0.32129927  1
  H+  H149  1  0.13423277  0.87821991  0.84817069  1
  H+  H150  1  0.62141347  0.39405244  0.33957119  1
  H+  H151  1  0.64010071  0.02756924  0.99343449  1
  H+  H152  1  0.42620511  0.09227874  0.26455740  1
  H+  H153  1  0.52089436  0.37971046  0.15902133  1
  H+  H154  1  0.36890413  0.38860634  0.67604681  1
  H+  H155  1  0.47644772  0.37790666  0.84194590  1
  H+  H156  1  0.86019376  0.87619064  1.00431195  1
  H+  H157  1  0.05287477  0.37858969  0.83871699  1
  H+  H158  1  0.85925832  -0.03456086  0.15457673  1
  H+  H159  1  0.51356080  0.85801032  0.66853326  1
  H+  H160  1  0.78122978  0.39986328  0.49020268  1
  H+  H161  1  0.13519491  0.52335259  0.98772619  1
  H+  H162  1  0.88550106  0.97511840  0.32362932  1
  H+  H163  1  0.37538311  0.62507273  0.67880056  1
  H+  H164  1  0.13117148  0.85913011  0.00064114  1
  H+  H165  1  0.89231122  0.85722174  0.17191892  1
  H+  H166  1  0.64212730  0.12938892  0.17333679  1
  H+  H167  1  0.33184023  0.16991679  0.07659615  1
  H+  H168  1  0.33531365  0.41638495  0.22757657  1
  H+  H169  1  0.11359742  0.46720951  0.49382929  1
  H+  H170  1  0.36481260  0.47430510  0.67551707  1
  H+  H171  1  0.42082679  0.81264494  0.90686150  1
  H+  H172  1  0.11240936  1.00158732  0.68658336  1
  H+  H173  1  0.90859240  0.80178377  0.84637284  1
  H+  H174  1  0.97791108  0.35161372  0.33606569  1
  H+  H175  1  0.77163603  0.13551779  0.49727819  1
  H+  H176  1  0.43158963  0.76314674  0.66488369  1
  H+  H177  1  0.20560066  0.58669989  0.45324369  1
  H+  H178  1  0.86351212  0.63367583  0.16040155  1
  H+  H179  1  0.38346111  1.03507760  0.67530283  1
  H+  H180  1  0.61379210  0.47617518  1.00857137  1
  H+  H181  1  0.86880114  0.22784666  0.15689054  1
  H+  H182  1  1.03672822  0.88528659  0.34134631  1
  H+  H183  1  0.88934111  0.52355665  0.99744582  1
  H+  H184  1  0.21748551  0.87418941  0.54874006  1
  H+  H185  1  0.62126111  0.89392236  0.00277836  1
  H+  H186  1  0.82755020  0.44716300  0.68942517  1
  H+  H187  1  0.87937203  0.75473807  0.67003796  1
  H+  H188  1  0.02724718  0.90116951  0.49501709  1
  H+  H189  1  0.66598742  0.86868321  0.32253714  1
  H+  H190  1  0.40419648  0.86993967  0.49594554  1
  H+  H191  1  0.10070669  0.96348336  0.00865525  1
  H+  H192  1  0.19928775  0.08466729  -0.03617984  1
  H+  H193  1  0.45828043  0.09644136  0.51285781  1
  H+  H194  1  0.91392905  0.37252052  0.84072422  1
  H+  H195  1  0.72368877  0.36446997  0.17358260  1
  H+  H196  1  0.90781591  0.33403450  0.59601614  1
  H+  H197  1  0.61569841  0.87550697  0.49262110  1
  H+  H198  1  0.89474638  0.52187676  0.32306028  1
  H+  H199  1  0.58560908  0.66326174  0.77054948  1
  H+  H200  1  0.75935083  0.62433874  0.82905681  1
  H+  H201  1  0.40157557  0.62011051  0.51489058  1
  H+  H202  1  0.34286373  0.92242731  0.09845141  1
  H+  H203  1  0.88598697  1.03358718  0.65760214  1
  H+  H204  1  0.03029108  0.88313604  0.16434017  1
  H+  H205  1  0.79715166  0.88847619  0.32040020  1
  H+  H206  1  0.61744203  0.23316418  0.34454906  1
  H+  H207  1  0.08305092  0.22316687  0.78914127  1
  H+  H208  1  0.67596095  0.59395873  0.56371930  1
  H+  H209  1  0.52969688  0.14287969  0.15909066  1
  H+  H210  1  0.61343955  0.64009665  0.17562058  1
  H+  H211  1  0.36689838  0.48202419  0.49073039  1
  H+  H212  1  0.32323054  0.41215842  0.76656114  1
  H+  H213  1  0.83209821  0.66393129  0.10273602  1
  H+  H214  1  0.85699664  0.47483763  0.15224655  1
  H+  H215  1  0.85920915  0.63085095  1.01143933  1
  H+  H216  1  0.38831131  0.26064367  0.82337487  1
  H+  H217  1  0.86318019  0.38483882  0.00035997  1
  H+  H218  1  0.77575069  0.15386968  0.66897772  1
  H+  H219  1  0.13897268  0.03444420  0.51602038  1
  H+  H220  1  0.85712364  0.71892758  0.01215094  1
  H+  H221  1  0.11590971  0.22731376  0.49446605  1
  H+  H222  1  0.52554443  0.38633736  1.00690716  1
  H+  H223  1  0.35598099  0.89849468  0.68720939  1
  H+  H224  1  0.28773224  0.63155383  0.68158926  1
  H+  H225  1  0.98799561  0.37751814  0.17345425  1
  H+  H226  1  0.35596196  0.14625733  0.50052506  1
  H+  H227  1  0.27226318  0.15609593  0.68025012  1
  H+  H228  1  0.77254262  0.13459744  1.00533718  1
  H+  H229  1  0.12289668  0.59454775  0.16961154  1
  H+  H230  1  0.91163714  0.58657070  0.58834568  1
  H+  H231  1  0.76313735  0.62325415  0.33958437  1
  H+  H232  1  0.61408244  0.89103186  0.83655454  1
  H+  H233  1  0.62733727  0.26561740  0.64771394  1
  H+  H234  1  0.65253049  0.85830194  0.66171615  1
  H+  H235  1  0.97891666  0.88715684  0.66290159  1
  H+  H236  1  0.18172599  0.83914690  0.68447812  1
  H+  H237  1  0.82569783  0.92355379  0.72326587  1
  H+  H238  1  0.63299886  0.77335120  0.17726101  1
  H+  H239  1  0.38264859  0.52245353  -0.00548560  1
  H+  H240  1  0.12110134  0.78122254  0.83922816  1
  H+  H241  1  0.38003968  0.34877985  0.17684191  1
  H+  H242  1  0.86102648  0.13390971  1.00449099  1
  H+  H243  1  0.87792462  0.27240679  0.50994861  1
  H+  H244  1  0.34076083  0.02372305  0.85068477  1
  H+  H245  1  0.14724387  0.20848134  0.65907081  1
  H+  H246  1  0.11130521  0.38216783  0.00615996  1
  H+  H247  1  0.12200869  0.37433714  0.65872853  1
  H+  H248  1  0.86532030  0.14199024  0.81610476  1
  H+  H249  1  0.40006376  0.02487586  0.17255429  1
  H+  H250  1  0.30989888  0.58975149  0.37413132  1
  H+  H251  1  0.23699939  0.86057198  0.16788654  1
  H+  H252  1  0.37858503  0.60940333  -0.00899825  1
  H+  H253  1  0.29439860  0.64746621  0.51553979  1
  H+  H254  1  0.89542518  0.61101331  0.32412396  1
  H+  H255  1  0.72775214  0.36363874  0.98929592  1
  H+  H256  1  0.52383762  0.63162773  0.82908667  1
  H+  H257  1  0.52536954  0.89102231  0.83507617  1
  H+  H258  1  0.56554050  0.64424933  0.31699520  1
  H+  H259  1  0.86144687  0.22846547  0.34288183  1
  H+  H260  1  0.97670595  0.62509959  0.84717215  1
  H+  H261  1  0.35890849  0.21872723  0.15977561  1
  H+  H262  1  0.33440288  0.16602151  0.40076589  1
  H+  H263  1  0.88391429  0.36571743  0.50895490  1
  H+  H264  1  0.15800823  0.52354946  0.66042904  1
  H+  H265  1  0.65863320  0.52602093  0.33459319  1
  H+  H266  1  0.64285396  0.31061156  0.47672149  1
  H+  H267  1  0.05526616  0.63247013  0.54813779  1
  H+  H268  1  0.43497685  0.09450641  0.85006768  1
  H+  H269  1  0.88887110  0.27304520  0.99095427  1
  H+  H270  1  0.12927868  0.52957656  0.82996913  1
  H+  H271  1  0.38428556  0.84945851  0.19270394  1
  H+  H272  1  0.23288219  0.35008987  0.65849176  1
  H+  H273  1  0.63990784  0.11737263  -0.00522800  1
  H+  H274  1  0.61559522  0.39223012  0.82661333  1
  H+  H275  1  0.37834603  0.53121688  0.17843953  1
  H+  H276  1  0.40048216  0.77849198  0.51400679  1
  H+  H277  1  0.37097375  0.14503579  1.01268651  1
  H+  H278  1  0.85610879  0.38655284  0.15379462  1
  H+  H279  1  0.87438156  0.43928534  0.74721244  1
  H+  H280  1  0.63585747  0.77727842  -0.01086951  1
  H+  H281  1  0.73649717  0.13019740  0.32622700  1
  H+  H282  1  0.63081351  0.77376632  0.84026303  1
  H+  H283  1  0.96442656  0.10934986  0.82143964  1
  H+  H284  1  0.41012845  0.33223421  0.93786817  1
  H+  H285  1  0.64421212  0.73634113  0.32827959  1
  H+  H286  1  0.39298255  0.11386268  0.32695872  1
  H+  H287  1  0.72760324  0.86476018  -0.01014875  1
  H+  H288  1  0.82932604  0.41190793  0.05934611  1
  H+  H289  1  0.82961538  0.17076593  0.43796729  1
  H+  H290  1  0.91079119  0.07302744  0.22633809  1
  H+  H291  1  0.92076474  0.81686401  0.94505618  1
  H+  H292  1  0.24441355  0.62114634  0.35793873  1
  H+  H293  1  0.85348872  0.96881146  0.81575290  1
  H+  H294  1  0.14950018  0.58560967  0.88919309  1
  H+  H295  1  0.66360838  0.58005473  0.94102606  1
  H+  H296  1  0.02936583  0.13135013  0.00692774  1
  H+  H297  1  0.35505376  0.19533220  0.75462076  1
  H+  H298  1  0.32276594  0.92563284  0.74476251  1
  H+  H299  1  0.35150674  0.65723098  0.75943346  1
  H+  H300  1  0.13836382  0.83353350  0.59126222  1
  H+  H301  1  0.35800522  0.14515217  0.67752163  1
  H+  H302  1  0.08351615  0.91299244  0.07270774  1
  H+  H303  1  0.65446125  0.82771294  0.56407978  1
  H+  H304  1  0.84517801  0.42391906  0.39917950  1
  H+  H305  1  0.63879568  0.53583817  0.50329599  1
  H+  H306  1  0.41489672  0.31889237  0.23185852  1
  H+  H307  1  0.58595540  0.17398233  0.06374336  1
  H+  H308  1  0.10630415  0.96302250  0.78827918  1
  H+  H309  1  0.42774665  0.57837920  0.60333150  1
  H+  H310  1  0.39195712  0.26943810  0.32857864  1
  H+  H311  1  0.16219300  0.33015433  0.93836972  1
  H+  H312  1  0.56691453  0.14629428  0.43231118  1
  H+  H313  1  0.19561348  0.45403614  0.88603836  1
  H+  H314  1  0.34052716  0.67226668  0.45441898  1
  H+  H315  1  0.59400784  0.67149577  0.42954828  1
  H+  H316  1  0.05089630  0.67043240  0.76756373  1
  H+  H317  1  0.92452828  0.09449058  0.56996744  1
  H+  H318  1  0.88456860  0.48926324  0.83647667  1
  H+  H319  1  0.41349124  0.57415046  0.90149715  1
  H+  H320  1  0.41756970  0.09694583  0.61714721  1
  H+  H321  1  0.85159888  0.67490110  0.40256094  1
  H+  H322  1  0.33042772  0.41607703  0.06990585  1
  H+  H323  1  0.71573942  0.34862800  0.63600030  1
  H+  H324  1  0.91993788  0.32956217  0.27482855  1
  H+  H325  1  0.68105120  0.34803459  0.89613716  1
  H+  H326  1  0.07589086  0.14589261  0.75230249  1
  H+  H327  1  0.83768466  0.18623478  0.73136468  1
  H+  H328  1  0.08513397  0.15727634  0.10120696  1
  H+  H329  1  0.58364531  0.41958690  0.76763238  1
  H+  H330  1  0.90222518  0.27891485  0.83642488  1
  H+  H331  1  0.96335611  0.17417882  0.28480444  1
  H+  H332  1  0.79724658  0.40081279  0.83005722  1
  H+  H333  1  0.42365030  0.34499639  0.59804661  1
  H+  H334  1  0.08355684  0.15882348  0.40549852  1
  H+  H335  1  0.93291931  0.82498199  0.26487690  1
  H+  H336  1  0.39850149  0.58651164  0.23763242  1
  H+  H337  1  0.91470739  0.57519185  0.22541466  1
  H+  H338  1  0.92421069  0.33212207  0.93143643  1
  H+  H339  1  0.02638849  0.63720661  0.00763666  1
  H+  H340  1  0.07347438  0.39615162  0.40468159  1
  H+  H341  1  0.08504757  0.66306881  0.09807929  1
  H+  H342  1  0.17594555  0.31828211  0.59745724  1
  H+  H343  1  0.66523705  0.83526951  0.89862906  1
  H+  H344  1  0.58917511  0.92456497  0.06117702  1
  H+  H345  1  0.25962713  0.37561867  0.18146877  1
  H+  H346  1  0.65710071  0.33378242  0.54872735  1
  H+  H347  1  0.40638451  0.09328500  0.94491644  1
  H+  H348  1  0.89376313  0.87807517  0.50836514  1
  H+  H349  1  0.77040198  0.87841665  0.15496275  1
  H+  H350  1  0.89248377  0.76865304  0.17127995  1
  H+  H351  1  0.84281606  0.69507572  0.73031217  1
  H+  H352  1  0.61371795  0.98731499  0.15904362  1
  H+  H353  1  0.87025029  0.98386900  0.50357146  1
  H+  H354  1  0.78978041  0.58300694  0.78054502  1
  H+  H355  1  0.64177263  1.00951513  0.50939834  1
  H+  H356  1  0.52852055  0.14294926  0.33759920  1
  H+  H357  1  0.15649233  0.31789589  0.26946155  1
  H+  H358  1  0.06766288  0.63904466  0.41901615  1
  H+  H359  1  0.91048721  0.08149499  0.88343849  1
  H+  H360  1  0.17161583  0.08229796  0.27005906  1
  H+  H361  1  0.16562010  0.10554971  0.60857501  1
  H+  H362  1  0.56283124  0.79791207  0.63431542  1
  H+  H363  1  0.67083213  0.33607486  0.27157847  1
  H+  H364  1  0.95846034  0.42881645  0.21392507  1
  H+  H365  1  0.92957453  0.85180653  0.59826045  1
  H+  H366  1  0.17968546  0.83936317  0.22650821  1
  H+  H367  1  0.83286455  0.91169610  0.06140100  1
  H+  H368  1  0.63420158  0.36295094  0.17654619  1
  H+  H369  1  0.17730154  0.57877484  0.26923237  1
  H+  H370  1  0.36739295  0.91402375  0.37599773  1
  H+  H371  1  0.17676889  0.60761687  0.62448004  1
  H+  H372  1  0.07739207  0.40457427  0.09619046  1
  H+  H373  1  0.10538270  0.67721028  0.40470360  1
  H+  H374  1  0.09282081  0.92171052  0.40274741  1
  H+  H375  1  0.58572238  0.42662186  0.39523287  1
  H+  H376  1  0.91953342  0.58814346  0.94160104  1
  H+  H377  1  0.32394160  0.65999818  0.06124353  1
  H+  H378  1  0.57634408  0.90917113  0.43499566  1
  H+  H379  1  0.58243356  0.41112775  0.10085574  1
  H+  H380  1  0.08098526  0.76917077  0.67786226  1
  H+  H381  1  0.33381420  0.41939478  0.43175489  1
  H+  H382  1  0.97323268  0.04131989  0.94023360  1
  H+  H383  1  0.67220017  0.08526739  0.60134871  1
  O2-  O384  1  0.08320034  0.15737397  0.14667538  1
  O2-  O385  1  0.08517025  0.16584643  0.48078046  1
  O2-  O386  1  0.06132095  0.16178312  0.79169987  1
  O2-  O387  1  0.07748164  0.40253662  0.14194461  1
  O2-  O388  1  0.07951602  0.40435313  0.48475275  1
  O2-  O389  1  0.11255088  0.41327908  0.82217943  1
  O2-  O390  1  0.08002945  0.65647761  0.14346934  1
  O2-  O391  1  0.11722355  0.66592560  0.54295901  1
  O2-  O392  1  0.06960314  0.67753715  0.81025439  1
  O2-  O393  1  0.09116821  0.91751128  0.14967562  1
  O2-  O394  1  0.08987907  0.93120788  0.48224994  1
  O2-  O395  1  0.13156855  0.96814784  0.82940761  1
  O2-  O396  1  0.32897765  0.15968056  0.14057884  1
  O2-  O397  1  0.32780656  0.17514539  0.48117891  1
  O2-  O398  1  0.38092702  0.20750320  0.79945785  1
  O2-  O399  1  0.32491468  0.40966640  0.18374199  1
  O2-  O400  1  0.33446120  0.42083644  0.47696679  1
  O2-  O401  1  0.32219764  0.41283844  0.81259117  1
  O2-  O402  1  0.31721109  0.66020790  0.14114708  1
  O2-  O403  1  0.35404508  0.68303546  0.49925042  1
  O2-  O404  1  0.35096688  0.65601112  0.80909838  1
  O2-  O405  1  0.35301078  0.92152899  0.14614221  1
  O2-  O406  1  0.34333101  0.90265284  0.45542934  1
  O2-  O407  1  0.31049917  0.92787076  0.82281154  1
  O2-  O408  1  0.59025610  0.17418775  0.14399038  1
  O2-  O409  1  0.55517134  0.12813505  0.47649946  1
  O2-  O410  1  0.62385563  0.18934362  0.80657300  1
  O2-  O411  1  0.58194429  0.41059216  0.14632049  1
  O2-  O412  1  0.57841299  0.43430767  0.47247876  1
  O2-  O413  1  0.57981009  0.41724790  0.81288778  1
  O2-  O414  1  0.58684345  0.67762460  0.17224698  1
  O2-  O415  1  0.58948331  0.67208677  0.47423102  1
  O2-  O416  1  0.58494636  0.66499522  0.81601600  1
  O2-  O417  1  0.58084501  0.92858597  0.14232558  1
  O2-  O418  1  0.58274825  0.90751105  0.47998997  1
  O2-  O419  1  0.58700288  0.92672807  0.82473203  1
  O2-  O420  1  0.83491225  0.16779771  0.14436095  1
  O2-  O421  1  0.83185406  0.17273248  0.48314813  1
  O2-  O422  1  0.83818115  0.17754834  0.80334328  1
  O2-  O423  1  0.82359911  0.41320368  0.13773127  1
  O2-  O424  1  0.84341221  0.42722973  0.48072613  1
  O2-  O425  1  0.85929670  0.42993698  0.81827356  1
  O2-  O426  1  0.83537538  0.66716385  0.14835772  1
  O2-  O427  1  0.84140927  0.67719128  0.47840456  1
  O2-  O428  1  0.81171568  0.63509180  0.80488410  1
  O2-  O429  1  0.83080992  0.90520895  0.13994104  1
  O2-  O430  1  0.84248571  0.92281319  0.49038878  1
  O2-  O431  1  0.82510702  0.90924081  0.80048096  1
  O2-  O432  1  0.17298445  0.08048012  0.18945326  1
  O2-  O433  1  0.16839825  0.09470069  0.53175615  1
  O2-  O434  1  0.07007908  -0.02181772  0.86873670  1
  O2-  O435  1  0.15582804  0.32113749  0.18955567  1
  O2-  O436  1  0.17009308  0.32946686  0.52135989  1
  O2-  O437  1  0.16827656  0.39839607  0.86496542  1
  O2-  O438  1  0.15169655  0.56136407  0.18189963  1
  O2-  O439  1  0.18460004  0.57581014  0.49590945  1
  O2-  O440  1  0.14205004  0.58644295  0.84458011  1
  O2-  O441  1  0.17652467  0.83351765  0.18151597  1
  O2-  O442  1  0.15535963  0.83762792  0.54703991  1
  O2-  O443  1  0.15696855  0.83860570  0.85869861  1
  O2-  O444  1  0.42498690  0.08588340  0.18686652  1
  O2-  O445  1  0.40777200  0.08895091  0.53704681  1
  O2-  O446  1  0.37972050  0.08498490  0.86481005  1
  O2-  O447  1  0.41108225  0.31747607  0.18634060  1
  O2-  O448  1  0.41924896  0.34365896  0.51966976  1
  O2-  O449  1  0.41552987  0.34311801  0.85662511  1
  O2-  O450  1  0.40520827  0.59125274  0.19266102  1
  O2-  O451  1  0.42725685  0.58328066  0.52321342  1
  O2-  O452  1  0.41809996  0.57422093  0.85549379  1
  O2-  O453  1  0.40344687  0.87688386  0.15146970  1
  O2-  O454  1  0.43457909  0.84485716  0.51840797  1
  O2-  O455  1  0.41716043  0.80824696  0.85764631  1
  O2-  O456  1  0.67238180  0.09993291  0.19219360  1
  O2-  O457  1  0.66586541  0.07042399  0.52279691  1
  O2-  O458  1  0.67777563  0.09307118  0.85580822  1
  O2-  O459  1  0.66543241  0.33363205  0.19273873  1
  O2-  O460  1  0.67121113  0.35706137  0.50614783  1
  O2-  O461  1  0.68787099  0.35492483  0.85065224  1
  O2-  O462  1  0.66281233  0.58442451  0.18703614  1
  O2-  O463  1  0.67492016  0.59613729  0.51824396  1
  O2-  O464  1  0.66289964  0.58257210  0.86119224  1
  O2-  O465  1  0.66749948  0.83878770  0.18629309  1
  O2-  O466  1  0.66385877  0.83522654  0.51870914  1
  O2-  O467  1  0.66044578  0.83499621  0.85306259  1
  O2-  O468  1  0.91130347  0.07297689  0.18145762  1
  O2-  O469  1  0.92605384  0.09298921  0.52337885  1
  O2-  O470  1  0.90465942  0.08307540  0.83898704  1
  O2-  O471  1  0.93620840  0.37102043  0.19740387  1
  O2-  O472  1  0.90943091  0.33251928  0.52712712  1
  O2-  O473  1  0.93870199  0.33694587  0.85488313  1
  O2-  O474  1  0.91332688  0.57404805  0.17998391  1
  O2-  O475  1  0.87083851  0.56691726  0.55307644  1
  O2-  O476  1  0.91740607  0.58781057  0.86431207  1
  O2-  O477  1  0.92487724  0.82965393  0.18694920  1
  O2-  O478  1  0.92879279  0.84940543  0.52097648  1
  O2-  O479  1  0.95304251  0.81521171  0.87653656  1
  O2-  O480  1  0.17310266  0.08450610  0.31542132  1
  O2-  O481  1  0.17308509  0.11108246  0.65452516  1
  O2-  O482  1  0.13696241  0.05701613  0.96589659  1
  O2-  O483  1  0.16322636  0.32036811  0.31455694  1
  O2-  O484  1  0.17425349  0.30999945  0.64262309  1
  O2-  O485  1  0.16656543  0.32660498  0.98272718  1
  O2-  O486  1  0.17962720  0.60313672  0.30959965  1
  O2-  O487  1  0.19096321  0.58788072  0.66156916  1
  O2-  O488  1  0.16548325  0.58270796  0.97118917  1
  O2-  O489  1  0.18629247  0.85391755  0.30611188  1
  O2-  O490  1  0.12746767  0.82833721  0.66614319  1
  O2-  O491  1  0.16605994  0.83326395  0.98542708  1
  O2-  O492  1  0.42855443  0.08988455  0.31012341  1
  O2-  O493  1  0.41607588  0.09673185  0.66233155  1
  O2-  O494  1  0.41498223  0.09904073  0.98952615  1
  O2-  O495  1  0.41776370  0.32845143  0.31043163  1
  O2-  O496  1  0.42851094  0.34641173  0.64356455  1
  O2-  O497  1  0.41060736  0.32881331  0.98307427  1
  O2-  O498  1  0.38103460  0.56536967  0.31743247  1
  O2-  O499  1  0.42490736  0.57602236  0.64864218  1
  O2-  O500  1  0.40951921  0.57961590  0.97508423  1
  O2-  O501  1  0.34799768  0.79295570  0.25619955  1
  O2-  O502  1  0.47778584  0.80924636  0.64066480  1
  O2-  O503  1  0.42559324  0.82297377  0.97042645  1
  O2-  O504  1  0.67607606  0.10623569  0.30697872  1
  O2-  O505  1  0.67883352  0.09725639  0.64599589  1
  O2-  O506  1  0.67270766  0.08974407  0.97991809  1
  O2-  O507  1  0.67095074  0.33571959  0.31732256  1
  O2-  O508  1  0.65500251  0.32321371  0.62611314  1
  O2-  O509  1  0.66741460  0.33365903  0.97296070  1
  O2-  O510  1  0.69723408  0.58978675  0.32396605  1
  O2-  O511  1  0.68415866  0.59234374  0.64249592  1
  O2-  O512  1  0.66100950  0.57729927  0.98622753  1
  O2-  O513  1  0.68718473  0.83519887  0.30167755  1
  O2-  O514  1  0.62316494  0.80646740  0.63613614  1
  O2-  O515  1  0.66735906  0.83964155  0.97518901  1
  O2-  O516  1  0.93643154  0.11933054  0.30630042  1
  O2-  O517  1  0.92151540  0.09409424  0.64142093  1
  O2-  O518  1  0.93861887  0.05982088  0.96310484  1
  O2-  O519  1  0.91507355  0.32392705  0.31966099  1
  O2-  O520  1  0.91200487  0.33367102  0.64303375  1
  O2-  O521  1  0.91962970  0.33354253  0.97689700  1
  O2-  O522  1  0.92049829  0.57954007  0.30370295  1
  O2-  O523  1  0.98092797  0.60585455  0.64805470  1
  O2-  O524  1  0.92002472  0.58597908  0.98702644  1
  O2-  O525  1  0.93395676  0.82550313  0.31052050  1
  O2-  O526  1  0.92240963  0.84891394  0.64362131  1
  O2-  O527  1  0.90994696  0.82118168  0.98986794  1
  O2-  O528  1  0.08971985  0.16234263  0.02213455  1
  O2-  O529  1  0.08193936  0.15733387  0.35952477  1
  O2-  O530  1  0.11955034  0.14722482  0.67490116  1
  O2-  O531  1  0.08297421  0.41455509  0.01981642  1
  O2-  O532  1  0.06819516  0.39229908  0.35965663  1
  O2-  O533  1  0.10017907  0.41481154  0.66336266  1
  O2-  O534  1  0.08791161  0.66517199  0.02083030  1
  O2-  O535  1  0.09438045  0.68060741  0.28272576  1
  O2-  O536  1  -0.00773918  0.67085888  0.69375323  1
  O2-  O537  1  0.07620339  0.90541136  0.02755135  1
  O2-  O538  1  0.09664255  0.92055800  0.35741625  1
  O2-  O539  1  0.07924691  0.94440926  0.70584216  1
  O2-  O540  1  0.33662216  0.17414008  0.02771282  1
  O2-  O541  1  0.33884148  0.16435058  0.35562210  1
  O2-  O542  1  0.33482510  0.18260986  0.69205218  1
  O2-  O543  1  0.33027224  0.41236079  0.02562986  1
  O2-  O544  1  0.32772813  0.40545356  0.35090129  1
  O2-  O545  1  0.33418018  0.41395529  0.69146887  1
  O2-  O546  1  0.32885929  0.66114417  0.01614353  1
  O2-  O547  1  0.28557646  0.62307459  0.39183526  1
  O2-  O548  1  0.34972314  0.65850963  0.69713326  1
  O2-  O549  1  0.32565907  0.92892866  0.03458783  1
  O2-  O550  1  0.38642700  0.92638312  0.33334357  1
  O2-  O551  1  0.32488170  0.92773459  0.69936930  1
  O2-  O552  1  0.58150507  0.17012568  0.01839682  1
  O2-  O553  1  0.58737182  0.17069217  0.35708303  1
  O2-  O554  1  0.58876883  0.17487460  0.68490138  1
  O2-  O555  1  0.58546187  0.41375141  0.02150233  1
  O2-  O556  1  0.59299441  0.42828534  0.34992070  1
  O2-  O557  1  0.59226849  0.42495099  0.68573445  1
  O2-  O558  1  0.58471458  0.67845861  0.01017972  1
  O2-  O559  1  0.61496909  0.67506493  0.34377465  1
  O2-  O560  1  0.58764881  0.65980370  0.69195045  1
  O2-  O561  1  0.59041044  0.92516969  0.01596589  1
  O2-  O562  1  0.53997241  0.91985633  0.36368851  1
  O2-  O563  1  0.60984380  0.93496981  0.70220923  1
  O2-  O564  1  0.83380633  0.16480096  0.02116750  1
  O2-  O565  1  0.82466559  0.16613208  0.35727205  1
  O2-  O566  1  0.83731122  0.18995647  0.68470720  1
  O2-  O567  1  0.83136918  0.41422444  0.01391820  1
  O2-  O568  1  0.83983525  0.41728518  0.35428863  1
  O2-  O569  1  0.87955447  0.44647012  0.70073712  1
  O2-  O570  1  0.82536081  0.65750625  0.02640228  1
  O2-  O571  1  0.84874400  0.67010671  0.35687989  1
  O2-  O572  1  0.85493239  0.69359021  0.68665824  1
  O2-  O573  1  0.83431738  0.91276610  0.01588184  1
  O2-  O574  1  0.85732911  0.91478894  0.33466089  1
  O2-  O575  1  0.82796571  0.93237582  0.67817441  1
