# generated using pymatgen
data_H2O
_symmetry_space_group_name_H-M   'P 1'
_cell_length_a   17.99584040
_cell_length_b   17.98563758
_cell_length_c   22.00652559
_cell_angle_alpha   89.99596719
_cell_angle_beta   89.98687795
_cell_angle_gamma   120.00692225
_symmetry_Int_Tables_number   1
_chemical_formula_structural   H2O
_chemical_formula_sum   'H384 O192'
_cell_volume   6168.07668970
_cell_formula_units_Z   192
loop_
 _symmetry_equiv_pos_site_id
 _symmetry_equiv_pos_as_xyz
  1  'x, y, z'
loop_
 _atom_type_symbol
 _atom_type_oxidation_number
  H+  1.0
  O2-  -2.0
loop_
 _atom_site_type_symbol
 _atom_site_label
 _atom_site_symmetry_multiplicity
 _atom_site_fract_x
 _atom_site_fract_y
 _atom_site_fract_z
 _atom_site_occupancy
  H+  H0  1  0.77628735  0.84160882  0.37009805  1
  H+  H1  1  0.76074921  0.13299699  0.48447810  1
  H+  H2  1  0.35835017  0.62718835  0.82796681  1
  H+  H3  1  0.36866832  0.47299538  0.33798093  1
  H+  H4  1  0.62347920  0.75961047  0.50011525  1
  H+  H5  1  0.60695611  0.38308439  0.48751470  1
  H+  H6  1  0.34309372  0.87883151  0.83402640  1
  H+  H7  1  0.62964391  0.53864619  0.66027516  1
  H+  H8  1  0.16249014  0.80672241  0.32616472  1
  H+  H9  1  0.14094521  0.27047118  0.50382102  1
  H+  H10  1  0.17581571  0.33591922  0.59763902  1
  H+  H11  1  0.52462887  0.63919853  0.82754177  1
  H+  H12  1  0.11818668  0.90505523  0.67866987  1
  H+  H13  1  0.36801709  0.75590080  0.81783473  1
  H+  H14  1  0.86772435  -0.02398717  0.83849735  1
  H+  H15  1  0.88986344  0.02424137  0.17702155  1
  H+  H16  1  0.12791048  0.99586895  0.16440880  1
  H+  H17  1  0.93558854  0.59856742  0.31463568  1
  H+  H18  1  0.59129688  0.63761857  0.49751363  1
  H+  H19  1  0.88523344  0.49245584  0.67200994  1
  H+  H20  1  0.84940463  0.47476147  0.00678010  1
  H+  H21  1  0.24167106  0.10403705  1.00561568  1
  H+  H22  1  0.10932483  0.72250780  0.84949890  1
  H+  H23  1  0.51515421  0.39016674  0.99643930  1
  H+  H24  1  0.38430369  0.84274282  0.65282897  1
  H+  H25  1  0.87295756  0.60840031  0.99223627  1
  H+  H26  1  0.60803685  0.21378849  0.16532473  1
  H+  H27  1  0.34974543  0.10300749  0.64938268  1
  H+  H28  1  0.36660818  0.39841445  0.49188765  1
  H+  H29  1  0.87141328  0.35253326  0.51050652  1
  H+  H30  1  0.35569042  0.92643778  0.48820956  1
  H+  H31  1  0.73197175  0.37736849  0.32413363  1
  H+  H32  1  0.88595926  0.76981243  0.66009152  1
  H+  H33  1  0.03762086  0.14447617  0.67754664  1
  H+  H34  1  0.53209880  0.89086366  0.66875980  1
  H+  H35  1  0.29436616  0.64160957  0.33004404  1
  H+  H36  1  0.51837405  0.48484057  0.71994277  1
  H+  H37  1  0.34537102  0.16501374  0.08281798  1
  H+  H38  1  0.26757847  0.14045094  0.66960699  1
  H+  H39  1  0.71603415  0.61431896  0.50235328  1
  H+  H40  1  0.88951314  0.77958978  1.00508463  1
  H+  H41  1  0.23114012  0.36083728  0.50321599  1
  H+  H42  1  0.35663815  0.21932818  0.34149767  1
  H+  H43  1  0.43506139  1.02261364  0.73281751  1
  H+  H44  1  0.03737839  0.90641852  0.16947952  1
  H+  H45  1  0.53768468  0.12934851  0.00792490  1
  H+  H46  1  0.00222218  0.65081140  0.02090692  1
  H+  H47  1  0.12101556  0.14022621  0.82899610  1
  H+  H48  1  0.61980125  0.22096190  0.01090600  1
  H+  H49  1  0.87479412  0.35351917  0.16882616  1
  H+  H50  1  0.87670555  0.22693184  0.83118619  1
  H+  H51  1  0.52774277  0.63229024  0.34704799  1
  H+  H52  1  0.31716461  0.15098660  0.53832573  1
  H+  H53  1  0.78918809  0.13624051  0.83920676  1
  H+  H54  1  0.41386132  0.07901206  0.90366341  1
  H+  H55  1  0.54813329  0.88484822  0.46814881  1
  H+  H56  1  0.36731533  0.08702075  0.32921101  1
  H+  H57  1  0.16225275  0.86456991  0.00084126  1
  H+  H58  1  0.87368619  0.89085294  0.17007350  1
  H+  H59  1  0.52507069  0.64539467  1.00893621  1
  H+  H60  1  0.39575723  0.61120022  0.32430376  1
  H+  H61  1  0.83250900  0.58964039  0.50773173  1
  H+  H62  1  0.22110119  0.11104405  0.32709663  1
  H+  H63  1  0.39181512  0.53041322  0.65188611  1
  H+  H64  1  0.13810439  0.52800867  0.65720658  1
  H+  H65  1  0.76393331  0.64597485  0.33440561  1
  H+  H66  1  0.20469944  0.10125353  0.49335251  1
  H+  H67  1  0.27406444  0.63423438  0.16850196  1
  H+  H68  1  0.17357186  0.13270447  0.99126289  1
  H+  H69  1  0.87647650  0.86140938  0.51148196  1
  H+  H70  1  0.02109669  0.88687245  0.67806278  1
  H+  H71  1  0.96896076  0.11572379  0.49880199  1
  H+  H72  1  0.61644097  0.48300763  -0.00343519  1
  H+  H73  1  0.68876970  0.25310353  0.64193375  1
  H+  H74  1  0.53014743  0.16441511  0.64174093  1
  H+  H75  1  0.51125250  0.38106512  0.33795309  1
  H+  H76  1  0.63540809  0.77838116  0.66229623  1
  H+  H77  1  0.61387602  0.64626496  0.66941966  1
  H+  H78  1  0.39163137  0.52112768  0.17098307  1
  H+  H79  1  0.23964723  0.80753185  1.00629523  1
  H+  H80  1  0.85850928  0.39197948  0.00487923  1
  H+  H81  1  0.12561272  0.38609379  0.48273234  1
  H+  H82  1  0.39170822  0.04382017  0.65086728  1
  H+  H83  1  0.61393794  0.72777905  0.16268868  1
  H+  H84  1  0.84733105  0.21652740  0.32966808  1
  H+  H85  1  0.61971814  0.22241037  0.86111355  1
  H+  H86  1  0.35691738  0.94622701  0.33722248  1
  H+  H87  1  0.10373502  0.87947709  0.83873691  1
  H+  H88  1  0.27751670  0.39452046  0.67032775  1
  H+  H89  1  0.10245931  0.48804197  0.33665619  1
  H+  H90  1  0.39990415  0.31544640  0.26806856  1
  H+  H91  1  0.15173447  0.48237069  0.48071047  1
  H+  H92  1  0.43342511  0.01064811  0.97919424  1
  H+  H93  1  0.36448826  0.71911141  0.17242519  1
  H+  H94  1  0.85452855  0.61104256  0.31958016  1
  H+  H95  1  0.75817590  0.10280010  0.66585429  1
  H+  H96  1  0.37788796  1.02124258  0.84481835  1
  H+  H97  1  0.63805243  0.61856901  0.83914053  1
  H+  H98  1  0.10774554  0.89309031  0.32648822  1
  H+  H99  1  0.86011682  0.73465213  0.33020638  1
  H+  H100  1  0.31008401  0.71064512  0.02141498  1
  H+  H101  1  0.25251341  0.96156344  0.64040374  1
  H+  H102  1  0.88607571  0.61396971  0.84121993  1
  H+  H103  1  0.29515610  0.06590711  0.08239178  1
  H+  H104  1  0.90111969  1.02477440  0.64630757  1
  H+  H105  1  1.00642355  0.12758803  1.01113826  1
  H+  H106  1  0.88875489  0.11351655  0.17544805  1
  H+  H107  1  0.07129512  0.09911725  0.03391214  1
  H+  H108  1  0.02356348  0.63919175  0.16910314  1
  H+  H109  1  1.01691815  0.13149969  0.33763528  1
  H+  H110  1  0.13531712  0.02512657  0.65789023  1
  H+  H111  1  0.52433454  0.63845479  0.16069117  1
  H+  H112  1  0.89440117  0.13684434  0.68220277  1
  H+  H113  1  0.89277874  0.87711674  1.01113329  1
  H+  H114  1  0.47638787  0.36616649  0.50349714  1
  H+  H115  1  0.64004364  0.36844224  0.84180242  1
  H+  H116  1  0.61320577  0.38624715  -0.00294574  1
  H+  H117  1  0.77589284  0.89349149  0.82977575  1
  H+  H118  1  0.71784861  0.44256633  0.28745955  1
  H+  H119  1  0.87850913  0.61196320  0.16154065  1
  H+  H120  1  0.23018861  0.27826807  0.95038551  1
  H+  H121  1  0.91288616  0.79041505  0.17925341  1
  H+  H122  1  0.36511506  0.38813805  0.82779396  1
  H+  H123  1  0.76371886  0.37451122  0.48316949  1
  H+  H124  1  0.96615630  0.86535899  0.49774555  1
  H+  H125  1  0.13378020  0.28218442  0.17116429  1
  H+  H126  1  0.13539151  0.62392359  0.00787276  1
  H+  H127  1  0.14074275  0.27371998  0.83345511  1
  H+  H128  1  0.38800979  0.82790668  0.77067054  1
  H+  H129  1  -0.01026751  0.87543993  0.01198310  1
  H+  H130  1  0.63371711  0.77767894  0.83583439  1
  H+  H131  1  0.88081473  0.26632657  0.16925318  1
  H+  H132  1  0.12201871  0.00820272  0.49219241  1
  H+  H133  1  0.09631063  0.58069280  1.00264315  1
  H+  H134  1  0.26149951  0.86361597  0.67924692  1
  H+  H135  1  0.27723030  0.38999658  0.82374012  1
  H+  H136  1  0.66388236  0.11646318  0.86309532  1
  H+  H137  1  0.74578244  0.63070675  0.16119968  1
  H+  H138  1  0.87842026  0.02773727  0.50927371  1
  H+  H139  1  0.20742607  0.58242537  0.57230630  1
  H+  H140  1  0.28780642  0.39699644  0.00557448  1
  H+  H141  1  0.61241876  0.48115777  0.83628279  1
  H+  H142  1  0.13654061  0.37258685  0.17127610  1
  H+  H143  1  0.33022390  0.16924015  0.72928242  1
  H+  H144  1  0.09252544  0.74390435  0.01837961  1
  H+  H145  1  0.59755591  0.12694197  0.33474534  1
  H+  H146  1  0.38275135  0.27649155  0.65868079  1
  H+  H147  1  0.61451214  0.32493499  0.72310274  1
  H+  H148  1  0.34703006  0.63640190  0.51301170  1
  H+  H149  1  0.72995415  0.86328252  0.18018280  1
  H+  H150  1  0.85920018  0.13962525  0.49650803  1
  H+  H151  1  0.39028350  0.54210336  -0.00292228  1
  H+  H152  1  0.40217939  0.38552073  0.99656643  1
  H+  H153  1  0.13042153  0.02361785  0.32003049  1
  H+  H154  1  0.71821836  0.36382983  0.99625094  1
  H+  H155  1  0.27807228  0.38318269  0.33842824  1
  H+  H156  1  0.13260675  0.66158171  0.50131447  1
  H+  H157  1  0.59278385  0.36957269  0.16849150  1
  H+  H158  1  0.01310765  0.88595673  0.32910838  1
  H+  H159  1  0.66075003  0.02674577  0.66153783  1
  H+  H160  1  0.23844754  0.56541171  0.99763663  1
  H+  H161  1  0.89372964  0.86477934  0.32015297  1
  H+  H162  1  0.96976821  0.36751554  0.32554986  1
  H+  H163  1  0.87154021  0.98405915  0.01314167  1
  H+  H164  1  0.18375122  0.65063254  0.33318704  1
  H+  H165  1  0.98189603  0.45303481  0.95974905  1
  H+  H166  1  0.85664027  0.23355495  0.50198175  1
  H+  H167  1  0.48189088  0.63258622  0.50237600  1
  H+  H168  1  0.27704458  0.13713407  0.82515629  1
  H+  H169  1  0.85395016  0.72742316  0.48695060  1
  H+  H170  1  0.25523401  0.79619330  0.35989130  1
  H+  H171  1  0.74229899  0.10263397  0.01067557  1
  H+  H172  1  0.52460722  0.12942223  0.48663951  1
  H+  H173  1  0.48661100  0.92484102  0.99119448  1
  H+  H174  1  0.37013237  0.96898063  0.16504502  1
  H+  H175  1  0.70833382  0.10640874  0.31411269  1
  H+  H176  1  0.77093147  0.64590003  0.00009108  1
  H+  H177  1  0.35936359  0.23693409  0.50160836  1
  H+  H178  1  0.17930878  0.10183587  0.23266658  1
  H+  H179  1  0.76083808  0.39431773  0.64526050  1
  H+  H180  1  0.02295376  0.14184288  0.16868513  1
  H+  H181  1  0.35424330  0.88191847  0.42675757  1
  H+  H182  1  0.47512789  0.36292373  0.84609244  1
  H+  H183  1  0.40250370  0.12359209  0.18240034  1
  H+  H184  1  0.13768481  0.64742497  0.68182255  1
  H+  H185  1  0.13901598  0.01896855  0.84083368  1
  H+  H186  1  0.10697045  0.13320224  0.33645826  1
  H+  H187  1  0.57674904  0.16089248  0.42362098  1
  H+  H188  1  0.53511796  0.13178889  0.86043371  1
  H+  H189  1  0.83026178  0.91998427  0.55824817  1
  H+  H190  1  0.82365639  0.67109505  0.42550448  1
  H+  H191  1  0.64236905  0.07067905  0.25943919  1
  H+  H192  1  0.61503194  0.97201247  0.01500721  1
  H+  H193  1  0.39755570  0.76440564  0.65389171  1
  H+  H194  1  0.04946655  0.83457074  0.46117172  1
  H+  H195  1  0.38698274  0.10299640  0.48737179  1
  H+  H196  1  0.63976499  0.11294749  0.48150728  1
  H+  H197  1  0.38210061  0.72407943  0.31205950  1
  H+  H198  1  0.13317960  0.51542905  0.83828282  1
  H+  H199  1  0.84604915  0.12781646  0.32974524  1
  H+  H200  1  0.85470798  0.46350540  0.33749535  1
  H+  H201  1  0.77018352  0.63965498  0.67250967  1
  H+  H202  1  1.00374232  0.57988610  0.49462954  1
  H+  H203  1  0.38385473  0.85926670  0.19315542  1
  H+  H204  1  0.38038635  0.87379191  0.32013784  1
  H+  H205  1  0.24406516  0.77949087  0.71074445  1
  H+  H206  1  0.69920855  0.08287005  0.91426827  1
  H+  H207  1  0.89008358  0.26248652  0.66919993  1
  H+  H208  1  0.14498786  0.37036802  0.65375642  1
  H+  H209  1  0.90542657  0.57798260  0.93469987  1
  H+  H210  1  0.16372443  0.88846173  0.50009824  1
  H+  H211  1  0.98993117  0.37844394  0.98981157  1
  H+  H212  1  0.13723088  0.77696792  0.16948796  1
  H+  H213  1  0.62946912  0.61675595  0.33683604  1
  H+  H214  1  0.89027204  0.36690379  0.83343042  1
  H+  H215  1  0.20646704  0.85321532  0.85602347  1
  H+  H216  1  0.87889566  0.39920525  0.67808928  1
  H+  H217  1  0.85885881  0.72448776  0.83005663  1
  H+  H218  1  0.69459190  0.88534644  0.33346377  1
  H+  H219  1  0.11340412  0.38505833  0.81778946  1
  H+  H220  1  0.87737031  0.85405755  0.84206950  1
  H+  H221  1  0.73176213  0.78492847  -0.05437256  1
  H+  H222  1  0.63840216  0.86931338  0.66065545  1
  H+  H223  1  0.50028072  0.40476018  0.68106359  1
  H+  H224  1  0.48320096  0.10944914  0.17723918  1
  H+  H225  1  0.57304914  0.30380822  0.70566353  1
  H+  H226  1  0.58137308  0.89623209  0.35326481  1
  H+  H227  1  0.42077144  0.84686491  0.49514557  1
  H+  H228  1  1.04444644  0.63726557  0.32898836  1
  H+  H229  1  0.64731142  0.87116120  0.17357505  1
  H+  H230  1  0.73000830  0.36904450  0.84118431  1
  H+  H231  1  0.77149719  0.88685567  0.64443895  1
  H+  H232  1  0.67153183  0.33425231  0.54765059  1
  H+  H233  1  0.62987726  0.52686932  0.33076078  1
  H+  H234  1  0.02846653  0.60309668  0.35345359  1
  H+  H235  1  0.66408052  0.58754989  0.93196649  1
  H+  H236  1  0.63167691  0.61126060  0.99430684  1
  H+  H237  1  0.37905721  0.35589617  0.32697038  1
  H+  H238  1  0.09551901  0.12688740  0.48695433  1
  H+  H239  1  0.29546129  0.18404663  0.17334025  1
  H+  H240  1  0.12195749  0.23588859  0.68007270  1
  H+  H241  1  0.64651911  0.02845580  0.46616159  1
  H+  H242  1  0.87534252  1.01591817  0.32866796  1
  H+  H243  1  0.26511039  0.62036221  0.82844898  1
  H+  H244  1  0.86338812  0.20765878  0.01512656  1
  H+  H245  1  0.71557509  0.35510673  0.16773369  1
  H+  H246  1  0.12322666  0.42568233  1.00439591  1
  H+  H247  1  0.23287187  0.71036499  0.49867029  1
  H+  H248  1  0.63097172  0.52281112  0.50643369  1
  H+  H249  1  0.15001704  0.13402650  0.17478640  1
  H+  H250  1  0.88172800  0.11210548  1.00762698  1
  H+  H251  1  0.50558558  0.11688141  0.34256546  1
  H+  H252  1  0.35232645  0.37372970  0.15645463  1
  H+  H253  1  0.86026249  0.88258121  0.64544427  1
  H+  H254  1  0.96885003  0.62636004  0.62790977  1
  H+  H255  1  0.85251054  0.47018715  0.15759578  1
  H+  H256  1  0.14880938  0.25453810  -0.01048001  1
  H+  H257  1  0.62296179  0.60369705  0.17816184  1
  H+  H258  1  0.81904247  0.28252338  0.65347500  1
  H+  H259  1  0.14181925  0.27196192  0.32438623  1
  H+  H260  1  0.10382733  0.71484876  0.68619260  1
  H+  H261  1  0.38738283  0.54191441  0.50485959  1
  H+  H262  1  0.23126759  0.61331991  0.66178252  1
  H+  H263  1  0.78018938  0.12698740  0.15775699  1
  H+  H264  1  0.27132156  0.38763480  0.15764870  1
  H+  H265  1  0.14486314  0.87047547  0.16628159  1
  H+  H266  1  0.72737045  0.61662519  0.84083548  1
  H+  H267  1  0.52257812  0.64240714  0.66942674  1
  H+  H268  1  0.83531303  0.50025493  0.50978492  1
  H+  H269  1  0.89811012  0.11646021  0.85062959  1
  H+  H270  1  0.96465727  0.85251577  0.84385516  1
  H+  H271  1  0.53553012  0.12603430  0.63636824  1
  H+  H272  1  0.39406128  0.06861849  1.00760036  1
  H+  H273  1  0.57344809  0.42510119  0.77736658  1
  H+  H274  1  0.85955894  0.37561100  0.33535715  1
  H+  H275  1  0.86541722  0.47929173  0.82991600  1
  H+  H276  1  0.51101432  0.87675859  0.81440899  1
  H+  H277  1  0.39068802  0.52535098  0.84368167  1
  H+  H278  1  0.02476951  0.38949607  0.66576348  1
  H+  H279  1  0.36649174  0.13921687  0.82714096  1
  H+  H280  1  1.00719416  0.38487662  0.16192117  1
  H+  H281  1  0.70130958  0.17049377  0.65508643  1
  H+  H282  1  0.85760617  0.63672816  0.67201420  1
  H+  H283  1  0.36301797  0.63092288  0.66883502  1
  H+  H284  1  0.13800093  0.62184250  0.17451004  1
  H+  H285  1  0.65523606  0.10738262  1.00450931  1
  H+  H286  1  0.27990736  0.88300159  0.16522380  1
  H+  H287  1  -0.00647985  0.60133719  0.46911878  1
  H+  H288  1  0.92076107  0.82599285  0.59887796  1
  H+  H289  1  0.41932922  0.58974934  0.90160750  1
  H+  H290  1  0.57631649  0.17278503  0.75367695  1
  H+  H291  1  0.08217465  0.41738965  0.72554544  1
  H+  H292  1  0.19156993  0.81826467  0.51228160  1
  H+  H293  1  0.33795686  0.42366082  0.72997622  1
  H+  H294  1  0.56398600  0.12625924  0.75373700  1
  H+  H295  1  0.41777941  0.34113252  0.56384660  1
  H+  H296  1  0.60375940  0.88730481  0.82335452  1
  H+  H297  1  0.66282831  0.33299436  0.22885824  1
  H+  H298  1  0.42020746  0.59397021  0.59258438  1
  H+  H299  1  0.91713020  0.08273294  0.94446315  1
  H+  H300  1  0.17452676  0.33548503  0.26758203  1
  H+  H301  1  0.78807020  0.88700863  0.01059822  1
  H+  H302  1  0.66575072  0.58943732  0.59663995  1
  H+  H303  1  0.68218919  0.40745686  0.63279532  1
  H+  H304  1  0.65249769  0.82284537  0.55957686  1
  H+  H305  1  0.32622594  0.66195920  0.07493634  1
  H+  H306  1  0.58436134  0.66816773  0.06922043  1
  H+  H307  1  0.09505352  0.66803239  0.78901890  1
  H+  H308  1  0.30786533  0.83115060  0.06100283  1
  H+  H309  1  0.83412660  0.41046338  0.43149256  1
  H+  H310  1  0.58194662  0.66862004  0.76678130  1
  H+  H311  1  0.08834258  0.17166937  0.77129537  1
  H+  H312  1  0.17167312  0.33501955  0.89040538  1
  H+  H313  1  0.13617036  0.60376305  0.85533527  1
  H+  H314  1  0.84026828  0.91741589  0.11033504  1
  H+  H315  1  0.07352596  0.35934947  0.05924485  1
  H+  H316  1  0.65385638  0.57872916  0.23929431  1
  H+  H317  1  0.42842078  0.98685723  0.71163344  1
  H+  H318  1  0.92790701  0.84030273  0.24544886  1
  H+  H319  1  0.58508887  0.45431047  0.17464478  1
  H+  H320  1  0.19345180  0.88255110  0.60032160  1
  H+  H321  1  0.98564319  0.11450712  0.85104638  1
  H+  H322  1  0.57381155  0.41656478  0.43240039  1
  H+  H323  1  0.39469332  0.06615229  0.54934281  1
  H+  H324  1  0.92950596  0.35000404  0.89261811  1
  H+  H325  1  0.82342618  0.41044965  0.09878552  1
  H+  H326  1  0.64311935  0.85157926  0.27251403  1
  H+  H327  1  0.62836955  0.26457058  0.49260918  1
  H+  H328  1  0.06644644  0.44736530  0.10941498  1
  H+  H329  1  0.45963875  0.33485231  0.17254024  1
  H+  H330  1  0.90984097  0.33073333  0.26572177  1
  H+  H331  1  0.97610632  0.61368120  0.84725490  1
  H+  H332  1  0.16459801  0.84408495  0.25924699  1
  H+  H333  1  0.60520422  0.39151315  0.33843920  1
  H+  H334  1  0.65632744  0.75943786  0.99179430  1
  H+  H335  1  0.08588439  0.93006541  0.07554013  1
  H+  H336  1  0.02402165  0.38551657  0.81839298  1
  H+  H337  1  0.88856994  0.57833027  0.22594292  1
  H+  H338  1  0.82083018  0.66892928  0.06261478  1
  H+  H339  1  0.32630946  0.16065585  0.40050512  1
  H+  H340  1  0.56526707  0.91807458  0.07152467  1
  H+  H341  1  0.58265898  0.15367381  0.10784569  1
  H+  H342  1  0.16021839  0.07175210  0.59314209  1
  H+  H343  1  0.84159726  0.15912104  0.09790269  1
  H+  H344  1  0.66488039  0.83514493  0.89489337  1
  H+  H345  1  0.89279354  0.31688826  0.57194616  1
  H+  H346  1  0.07858350  0.42316213  0.39131979  1
  H+  H347  1  0.07702360  0.17309162  0.10728302  1
  H+  H348  1  0.87900031  0.57042500  0.59241721  1
  H+  H349  1  0.07005783  0.67758120  0.10632538  1
  H+  H350  1  0.42586347  0.57671384  0.26847807  1
  H+  H351  1  0.42054883  0.34350461  0.93708043  1
  H+  H352  1  0.38609645  0.87865146  0.98188064  1
  H+  H353  1  0.17901662  0.08163462  0.89751654  1
  H+  H354  1  0.37902061  0.36434708  0.65714241  1
  H+  H355  1  0.79798966  0.91306391  0.41738374  1
  H+  H356  1  0.91022093  0.07426329  0.26884953  1
  H+  H357  1  0.75467624  0.87295163  0.51018068  1
  H+  H358  1  0.07453325  0.16528188  0.42848963  1
  H+  H359  1  0.38992315  0.63050786  0.99556779  1
  H+  H360  1  0.66303381  0.33511366  0.93510769  1
  H+  H361  1  0.40328517  0.06305115  0.27078357  1
  H+  H362  1  0.83935706  0.42481858  0.76853805  1
  H+  H363  1  0.33565455  0.42298156  0.43169522  1
  H+  H364  1  0.38850145  0.60847088  0.17484254  1
  H+  H365  1  0.33037864  0.65482026  0.73055380  1
  H+  H366  1  0.13403074  0.53142856  0.18219434  1
  H+  H367  1  0.17976165  0.60194277  0.27140647  1
  H+  H368  1  0.15228043  0.81895698  0.91951144  1
  H+  H369  1  0.57822263  0.66278257  0.41081328  1
  H+  H370  1  0.07414656  0.90787819  0.41097433  1
  H+  H371  1  0.85946399  0.16139121  0.74369142  1
  H+  H372  1  0.18513339  0.53394393  0.93664105  1
  H+  H373  1  0.38650045  0.27283314  0.84335496  1
  H+  H374  1  0.11275907  0.98057159  0.01107191  1
  H+  H375  1  0.82894406  0.66328116  0.77069099  1
  H+  H376  1  0.18795742  0.73624118  0.40961933  1
  H+  H377  1  0.30249057  0.89756464  0.77950317  1
  H+  H378  1  0.93347702  0.09759902  0.59763091  1
  H+  H379  1  0.58423000  0.91727457  0.73194056  1
  H+  H380  1  0.46499770  0.83569117  0.55315846  1
  H+  H381  1  0.07957081  0.91287772  0.77726615  1
  H+  H382  1  0.79124988  0.72407639  0.13660802  1
  H+  H383  1  0.34085377  0.42840134  0.06724209  1
  O2-  O384  1  0.08327313  0.17607211  0.15221637  1
  O2-  O385  1  0.07197164  0.16400279  0.47429178  1
  O2-  O386  1  0.09060638  0.17161489  0.81783121  1
  O2-  O387  1  0.06938026  0.42128596  0.14754454  1
  O2-  O388  1  0.10856063  0.42597783  0.46502662  1
  O2-  O389  1  0.08439767  0.41629445  0.80213900  1
  O2-  O390  1  0.08183749  0.66947197  0.15152646  1
  O2-  O391  1  0.18240518  0.71650399  0.49049065  1
  O2-  O392  1  0.08368986  0.66117545  0.83322472  1
  O2-  O393  1  0.09567508  0.93556382  0.14951111  1
  O2-  O394  1  0.07193157  0.89630847  0.45820931  1
  O2-  O395  1  0.07941170  0.91509100  0.82259435  1
  O2-  O396  1  0.35717779  0.21430676  0.15910998  1
  O2-  O397  1  0.32445970  0.17163878  0.49648505  1
  O2-  O398  1  0.33787395  0.17086128  0.81058083  1
  O2-  O399  1  0.33209145  0.41303767  0.14280607  1
  O2-  O400  1  0.33372982  0.42568035  0.47722846  1
  O2-  O401  1  0.33915133  0.42181598  0.81136871  1
  O2-  O402  1  0.33462250  0.66099970  0.15363615  1
  O2-  O403  1  0.29758545  0.64922212  0.51252879  1
  O2-  O404  1  0.32375819  0.65096893  0.80943564  1
  O2-  O405  1  0.34184829  0.90701416  0.15490798  1
  O2-  O406  1  0.34766542  0.87255915  0.47157978  1
  O2-  O407  1  0.31198238  0.90995463  0.82351408  1
  O2-  O408  1  0.57694055  0.15260678  0.15283864  1
  O2-  O409  1  0.58361578  0.16462800  0.47045598  1
  O2-  O410  1  0.59665773  0.16115859  0.87034957  1
  O2-  O411  1  0.55374939  0.39334583  0.16194267  1
  O2-  O412  1  0.57667831  0.41576206  0.47793080  1
  O2-  O413  1  0.58084920  0.42004925  0.82166090  1
  O2-  O414  1  0.58556100  0.66807020  0.14590516  1
  O2-  O415  1  0.56546286  0.66965308  0.48000178  1
  O2-  O416  1  0.58510458  0.66884041  0.81233587  1
  O2-  O417  1  0.61837483  0.95766808  0.15608989  1
  O2-  O418  1  0.59713754  0.92218622  0.43854201  1
  O2-  O419  1  0.57174949  0.91134884  0.80237999  1
  O2-  O420  1  0.84074866  0.16343181  0.14646742  1
  O2-  O421  1  0.83007509  0.17166326  0.48141271  1
  O2-  O422  1  0.85026328  0.16541270  0.82045502  1
  O2-  O423  1  0.82326289  0.40903830  0.14435280  1
  O2-  O424  1  0.82736076  0.40956507  0.47663236  1
  O2-  O425  1  0.83570831  0.41902119  0.81381314  1
  O2-  O426  1  0.80051679  0.67517748  0.13974901  1
  O2-  O427  1  0.82014914  0.66777575  0.47091634  1
  O2-  O428  1  0.82836105  0.66135980  0.81595243  1
  O2-  O429  1  0.83839369  0.91648738  0.15554047  1
  O2-  O430  1  0.82314810  0.91369655  0.51258735  1
  O2-  O431  1  0.83767770  0.91698255  0.82154191  1
  O2-  O432  1  0.18686464  0.10962310  0.18718044  1
  O2-  O433  1  0.14505131  0.06676129  0.50825426  1
  O2-  O434  1  0.17364466  0.08161482  0.85292344  1
  O2-  O435  1  0.16904812  0.34411022  0.18310959  1
  O2-  O436  1  0.17212061  0.32918132  0.52144368  1
  O2-  O437  1  0.17010605  0.33677578  0.84566147  1
  O2-  O438  1  0.16927338  0.59318005  0.19160945  1
  O2-  O439  1  0.22716259  0.56773576  0.53381922  1
  O2-  O440  1  0.16643614  0.57042677  0.86127138  1
  O2-  O441  1  0.17280540  0.83871917  0.18178262  1
  O2-  O442  1  0.19515975  0.87155446  0.52794539  1
  O2-  O443  1  0.14639390  0.82075618  0.87098545  1
  O2-  O444  1  0.42045725  0.08182877  0.19204889  1
  O2-  O445  1  0.41059305  0.06961638  0.50593935  1
  O2-  O446  1  0.41037814  0.08214317  0.85836335  1
  O2-  O447  1  0.39333940  0.30254063  0.18344110  1
  O2-  O448  1  0.41512240  0.33746913  0.51852773  1
  O2-  O449  1  0.41383807  0.33293778  0.85984338  1
  O2-  O450  1  0.42338326  0.58123025  0.18602549  1
  O2-  O451  1  0.41631127  0.60087943  0.52169015  1
  O2-  O452  1  0.42013978  0.58700748  0.85620552  1
  O2-  O453  1  0.40877086  0.82170912  0.20717921  1
  O2-  O454  1  0.46539469  0.83270346  0.50868586  1
  O2-  O455  1  0.39465737  0.82008571  0.81383279  1
  O2-  O456  1  0.66003039  0.03536135  0.17325696  1
  O2-  O457  1  0.67317531  0.08313786  0.48946460  1
  O2-  O458  1  0.70197067  0.09198204  0.86945908  1
  O2-  O459  1  0.65585617  0.32421983  0.18415703  1
  O2-  O460  1  0.65928324  0.32791941  0.50338938  1
  O2-  O461  1  0.67120689  0.34079828  0.85926202  1
  O2-  O462  1  0.65190304  0.57218023  0.19353098  1
  O2-  O463  1  0.65925114  0.58231091  0.52293833  1
  O2-  O464  1  0.66643134  0.58754188  0.85691283  1
  O2-  O465  1  0.66757947  0.83352059  0.19015223  1
  O2-  O466  1  0.66303871  0.82289296  0.51552882  1
  O2-  O467  1  0.66118720  0.83823838  0.85040141  1
  O2-  O468  1  0.92046461  0.08468065  0.19224525  1
  O2-  O469  1  0.91069798  0.09058584  0.51819641  1
  O2-  O470  1  0.92658736  0.08507793  0.86839696  1
  O2-  O471  1  0.90952663  0.32782481  0.18351616  1
  O2-  O472  1  0.89551482  0.31718798  0.52669423  1
  O2-  O473  1  0.92439898  0.34011490  0.84804112  1
  O2-  O474  1  0.90139228  0.57906932  0.18141170  1
  O2-  O475  1  0.83159735  0.54474917  0.53468288  1
  O2-  O476  1  0.91349414  0.58170532  0.85824864  1
  O2-  O477  1  0.93528505  0.84851789  0.19510929  1
  O2-  O478  1  0.91028442  0.83073913  0.51809191  1
  O2-  O479  1  0.90319770  0.81822820  0.85496208  1
  O2-  O480  1  0.16341064  0.08590413  0.30752397  1
  O2-  O481  1  0.17782703  0.07746699  0.63601477  1
  O2-  O482  1  0.18803191  0.08832658  0.98204359  1
  O2-  O483  1  0.18111969  0.33198759  0.31174295  1
  O2-  O484  1  0.17819289  0.34173463  0.64329171  1
  O2-  O485  1  0.19698720  0.30257078  0.96747657  1
  O2-  O486  1  0.18498483  0.59973088  0.31621262  1
  O2-  O487  1  0.17171006  0.58934734  0.64385475  1
  O2-  O488  1  0.19940447  0.51303765  0.97393935  1
  O2-  O489  1  0.15851803  0.85220053  0.30330904  1
  O2-  O490  1  0.20469889  0.90118569  0.64440970  1
  O2-  O491  1  0.16359210  0.81504618  0.98400411  1
  O2-  O492  1  0.39447196  0.05386100  0.31557044  1
  O2-  O493  1  0.35275893  0.05529777  0.62695232  1
  O2-  O494  1  0.43559185  0.06928393  0.97873790  1
  O2-  O495  1  0.40595618  0.32061333  0.31279469  1
  O2-  O496  1  0.41318997  0.33703815  0.64309541  1
  O2-  O497  1  0.42990958  0.35230886  0.98208063  1
  O2-  O498  1  0.42224243  0.57423654  0.31341962  1
  O2-  O499  1  0.42118360  0.59170000  0.63947877  1
  O2-  O500  1  0.42191914  0.60190936  0.98069785  1
  O2-  O501  1  0.41694234  0.82547260  0.26943729  1
  O2-  O502  1  0.42558969  0.82508623  0.63977052  1
  O2-  O503  1  0.44063669  0.92963706  0.96887496  1
  O2-  O504  1  0.64615621  0.07941455  0.30323362  1
  O2-  O505  1  0.70296581  0.08367663  0.64453701  1
  O2-  O506  1  0.68237019  0.07330197  0.99250684  1
  O2-  O507  1  0.68654273  0.38285236  0.30087639  1
  O2-  O508  1  0.70593951  0.37124020  0.62184792  1
  O2-  O509  1  0.65782051  0.33560800  0.98070656  1
  O2-  O510  1  0.66014833  0.58675098  0.31521716  1
  O2-  O511  1  0.66898233  0.59579878  0.64264715  1
  O2-  O512  1  0.66473027  0.58416933  0.97787843  1
  O2-  O513  1  0.63734911  0.86179745  0.31568211  1
  O2-  O514  1  0.66571003  0.83642019  0.64364570  1
  O2-  O515  1  0.70350419  0.80979092  0.96904979  1
  O2-  O516  1  0.91037188  0.07529657  0.31447800  1
  O2-  O517  1  0.93799403  0.08850333  0.64183440  1
  O2-  O518  1  0.91595060  0.08003729  0.99021371  1
  O2-  O519  1  0.90766343  0.33081232  0.31074000  1
  O2-  O520  1  0.88496467  0.31087281  0.65028843  1
  O2-  O521  1  0.94783647  0.39164812  0.96824799  1
  O2-  O522  1  0.87549656  0.57148156  0.30184628  1
  O2-  O523  1  0.90835225  0.58656898  0.63545132  1
  O2-  O524  1  0.89924190  0.57351417  0.98021559  1
  O2-  O525  1  0.91857046  0.83014029  0.30719453  1
  O2-  O526  1  0.92017659  0.82982842  0.64400417  1
  O2-  O527  1  0.92431008  0.84411449  0.99791417  1
  O2-  O528  1  0.06973553  0.15201941  0.02765393  1
  O2-  O529  1  0.07739224  0.16354968  0.35261393  1
  O2-  O530  1  0.09220481  0.17899081  0.69999669  1
  O2-  O531  1  0.06926706  0.37077997  0.01655768  1
  O2-  O532  1  0.06268269  0.42800628  0.34861177  1
  O2-  O533  1  0.08437549  0.42122094  0.67980122  1
  O2-  O534  1  0.04438901  0.69790087  0.04636074  1
  O2-  O535  1  0.19626075  0.74515261  0.36516688  1
  O2-  O536  1  0.12929864  0.68729611  0.70962350  1
  O2-  O537  1  0.07802640  0.92324346  0.02991008  1
  O2-  O538  1  0.07567575  0.92194679  0.34443850  1
  O2-  O539  1  0.07872056  0.92247803  0.69721202  1
  O2-  O540  1  0.32081367  0.11506790  0.05490350  1
  O2-  O541  1  0.32462400  0.15804072  0.35612985  1
  O2-  O542  1  0.32947589  0.17225682  0.68390018  1
  O2-  O543  1  0.34612944  0.43502203  0.02172425  1
  O2-  O544  1  0.33921426  0.41238156  0.35419669  1
  O2-  O545  1  0.33915462  0.42377423  0.68465653  1
  O2-  O546  1  0.31942024  0.66144715  0.02986421  1
  O2-  O547  1  0.35738156  0.67159287  0.33727978  1
  O2-  O548  1  0.33080965  0.65925073  0.68530667  1
  O2-  O549  1  0.29194384  0.80201008  0.02161260  1
  O2-  O550  1  0.34819240  0.88915046  0.34963381  1
  O2-  O551  1  0.29139211  0.83863105  0.70337991  1
  O2-  O552  1  0.59570842  0.16228775  0.02717444  1
  O2-  O553  1  0.56636584  0.15417322  0.35429909  1
  O2-  O554  1  0.72027889  0.23242831  0.66582380  1
  O2-  O555  1  0.58294086  0.42034819  0.00956433  1
  O2-  O556  1  0.57028181  0.41538368  0.35539006  1
  O2-  O557  1  0.54648036  0.45356052  0.70585250  1
  O2-  O558  1  0.58530377  0.66681856  0.02340831  1
  O2-  O559  1  0.58627768  0.65911243  0.36460507  1
  O2-  O560  1  0.58083812  0.67086924  0.68900050  1
  O2-  O561  1  0.56659126  0.91424453  0.02731700  1
  O2-  O562  1  0.55043031  0.91459805  0.38291291  1
  O2-  O563  1  0.59111949  0.92084672  0.68564403  1
  O2-  O564  1  0.84037327  0.15097456  0.03306393  1
  O2-  O565  1  0.81050380  0.15436213  0.33734538  1
  O2-  O566  1  0.86367668  0.16606760  0.69832823  1
  O2-  O567  1  0.82144187  0.41331439  0.02175068  1
  O2-  O568  1  0.82770072  0.40468181  0.35377347  1
  O2-  O569  1  0.85287733  0.43432445  0.69084201  1
  O2-  O570  1  0.83031092  0.67606042  0.01776279  1
  O2-  O571  1  0.82600598  0.67267306  0.34689678  1
  O2-  O572  1  0.82973610  0.66767910  0.68973968  1
  O2-  O573  1  0.84595013  0.92239478  0.02961673  1
  O2-  O574  1  0.79799133  0.90323245  0.37355834  1
  O2-  O575  1  0.83480172  0.91885403  0.63463493  1
