# generated using pymatgen
data_H2O
_symmetry_space_group_name_H-M   'P 1'
_cell_length_a   17.99407969
_cell_length_b   17.98461100
_cell_length_c   22.00357808
_cell_angle_alpha   90.00137606
_cell_angle_beta   90.01840278
_cell_angle_gamma   120.02828148
_symmetry_Int_Tables_number   1
_chemical_formula_structural   H2O
_chemical_formula_sum   'H384 O192'
_cell_volume   6164.96704558
_cell_formula_units_Z   192
loop_
 _symmetry_equiv_pos_site_id
 _symmetry_equiv_pos_as_xyz
  1  'x, y, z'
loop_
 _atom_type_symbol
 _atom_type_oxidation_number
  H+  1.0
  O2-  -2.0
loop_
 _atom_site_type_symbol
 _atom_site_label
 _atom_site_symmetry_multiplicity
 _atom_site_fract_x
 _atom_site_fract_y
 _atom_site_fract_z
 _atom_site_occupancy
  H+  H0  1  0.10053550  0.10760154  0.47625871  1
  H+  H1  1  0.60753633  0.12950100  1.01814177  1
  H+  H2  1  0.16891683  0.08326863  1.09086140  1
  H+  H3  1  0.23480711  0.61815701  0.16717994  1
  H+  H4  1  0.02343630  0.61408079  0.32777619  1
  H+  H5  1  0.12518191  0.47945934  0.66787036  1
  H+  H6  1  0.87117540  0.89699805  0.00748302  1
  H+  H7  1  0.73902799  0.84359005  0.50345718  1
  H+  H8  1  0.46390544  0.34485561  0.33758191  1
  H+  H9  1  0.04049493  0.64521887  0.16183391  1
  H+  H10  1  0.28014071  0.90638682  0.49951426  1
  H+  H11  1  0.62377942  0.52960591  0.66196395  1
  H+  H12  1  0.62823199  1.01230964  0.00512914  1
  H+  H13  1  0.52604242  0.13410791  0.68173463  1
  H+  H14  1  0.73250702  0.87297452  0.99264178  1
  H+  H15  1  0.01545782  0.12132091  0.32672866  1
  H+  H16  1  0.66921298  0.10065684  0.39035435  1
  H+  H17  1  0.35787610  0.87696634  0.67941263  1
  H+  H18  1  0.14478131  0.86542239  0.50123017  1
  H+  H19  1  0.60667239  0.71808173  0.83213194  1
  H+  H20  1  0.69976198  0.59427468  0.51601681  1
  H+  H21  1  0.16628116  0.16834703  0.78926766  1
  H+  H22  1  0.38225837  0.78194079  0.32554546  1
  H+  H23  1  0.77759855  0.63116060  0.15736617  1
  H+  H24  1  0.45168501  0.83039124  0.16209353  1
  H+  H25  1  0.57885217  0.16638685  0.11031353  1
  H+  H26  1  0.89866124  0.11685728  0.16825787  1
  H+  H27  1  0.51222000  0.38199579  0.17069090  1
  H+  H28  1  0.47697197  0.86364293  0.66692352  1
  H+  H29  1  0.81645729  0.86519273  0.77650314  1
  H+  H30  1  0.95219399  0.90284317  0.56069218  1
  H+  H31  1  0.11323802  0.38866354  -0.01023672  1
  H+  H32  1  0.47637898  0.13252832  0.51225366  1
  H+  H33  1  0.87033933  0.90080676  0.47890427  1
  H+  H34  1  0.39003981  0.52135615  0.49504220  1
  H+  H35  1  0.82259146  0.34599399  0.85291014  1
  H+  H36  1  0.35729625  0.63196422  0.33206327  1
  H+  H37  1  0.37951102  0.26570809  0.18276598  1
  H+  H38  1  0.52356996  0.36335592  0.49585724  1
  H+  H39  1  0.83838875  0.94748549  0.71735824  1
  H+  H40  1  0.15501580  0.29475504  0.49566811  1
  H+  H41  1  0.13915439  0.35887977  0.64973956  1
  H+  H42  1  0.87992461  1.01694946  0.64749695  1
  H+  H43  1  0.38788246  0.52579999  0.68762551  1
  H+  H44  1  0.97354828  0.12676800  0.98667008  1
  H+  H45  1  0.35952469  0.19223717  0.68695182  1
  H+  H46  1  0.47158340  0.60888410  0.84965389  1
  H+  H47  1  0.88291561  0.74054953  0.32446839  1
  H+  H48  1  0.53378501  0.41449932  0.65064938  1
  H+  H49  1  0.08792928  0.37940421  0.89453405  1
  H+  H50  1  0.88806180  0.02720365  0.83499587  1
  H+  H51  1  0.11776231  0.71993791  0.83138720  1
  H+  H52  1  0.30395112  0.34295490  0.71714729  1
  H+  H53  1  0.41908856  0.09888453  0.57151767  1
  H+  H54  1  0.66061557  0.26021258  0.85468780  1
  H+  H55  1  0.40593501  0.31870655  0.65692767  1
  H+  H56  1  0.04914908  0.90891517  0.48668088  1
  H+  H57  1  0.77085710  0.88898843  0.32740423  1
  H+  H58  1  0.02765094  0.63207509  0.83060350  1
  H+  H59  1  0.90572020  0.61480368  0.31243638  1
  H+  H60  1  0.26876659  0.37456361  0.33878020  1
  H+  H61  1  0.88071213  0.11656574  -0.01177734  1
  H+  H62  1  0.90900344  0.36710301  0.49770847  1
  H+  H63  1  0.76880361  0.07932510  0.14292589  1
  H+  H64  1  0.58852722  0.34298553  0.79496173  1
  H+  H65  1  0.29061127  0.38210631  0.48973007  1
  H+  H66  1  0.32890478  0.91556710  0.77168035  1
  H+  H67  1  0.76337985  0.13114751  0.00876240  1
  H+  H68  1  0.88385206  0.85199562  0.85288881  1
  H+  H69  1  0.23694706  0.29958540  0.83655909  1
  H+  H70  1  0.15452852  0.05876368  0.24674713  1
  H+  H71  1  0.23494187  0.35971196  0.17831632  1
  H+  H72  1  0.23149682  0.61478235  0.66533771  1
  H+  H73  1  0.88800987  0.32741326  0.93878219  1
  H+  H74  1  0.24499618  0.63361790  0.50976221  1
  H+  H75  1  0.13273109  0.49002754  0.51150805  1
  H+  H76  1  0.63447348  0.36255946  0.33210894  1
  H+  H77  1  0.03015312  0.22045108  0.52338831  1
  H+  H78  1  0.11980316  0.55027498  0.99104221  1
  H+  H79  1  0.36015216  0.98076503  0.16063519  1
  H+  H80  1  0.27504949  0.14357956  0.84161054  1
  H+  H81  1  0.88015335  0.73897172  1.01610803  1
  H+  H82  1  0.38904806  0.01018478  0.66236362  1
  H+  H83  1  0.13583275  0.24656077  0.82727892  1
  H+  H84  1  0.63633368  1.11180932  0.85558383  1
  H+  H85  1  0.99247347  0.97348850  0.50583441  1
  H+  H86  1  0.86871096  0.63542898  0.83679400  1
  H+  H87  1  0.88745763  0.76479326  0.85331108  1
  H+  H88  1  0.23199276  0.10329348  0.64657872  1
  H+  H89  1  0.50859092  0.14423978  0.34413695  1
  H+  H90  1  0.35799170  0.37639401  0.16448767  1
  H+  H91  1  0.89638375  0.26414796  0.65390568  1
  H+  H92  1  0.39180162  0.39170876  0.63749079  1
  H+  H93  1  0.57673670  0.20126627  0.77098056  1
  H+  H94  1  0.63268303  0.27432388  0.32754392  1
  H+  H95  1  0.84739332  0.12853056  0.82189174  1
  H+  H96  1  0.86854586  -0.01506434  1.00047437  1
  H+  H97  1  0.64323467  0.88622503  0.32315842  1
  H+  H98  1  0.10744316  0.48914941  0.15437683  1
  H+  H99  1  0.72486175  0.11367446  0.65643071  1
  H+  H100  1  0.59593385  0.46357374  0.50258757  1
  H+  H101  1  0.48379681  0.35929765  0.82733721  1
  H+  H102  1  0.33017971  0.66587046  0.74334663  1
  H+  H103  1  0.10852422  0.97055540  0.33021286  1
  H+  H104  1  0.35441120  0.71466683  -0.00059087  1
  H+  H105  1  0.02397425  0.23127142  0.49142922  1
  H+  H106  1  0.52428935  0.40206238  0.01166895  1
  H+  H107  1  0.47368991  0.10221587  -0.00026707  1
  H+  H108  1  0.10994910  0.71605204  0.67364397  1
  H+  H109  1  0.51432087  0.89553616  0.49803067  1
  H+  H110  1  0.02938275  0.15721564  0.15643551  1
  H+  H111  1  0.35396521  0.46375511  0.15875977  1
  H+  H112  1  0.33944940  0.78099615  0.19678496  1
  H+  H113  1  0.61929023  0.62783802  0.66520005  1
  H+  H114  1  0.97410425  0.10456611  0.64233826  1
  H+  H115  1  1.00707190  0.40778798  1.00375098  1
  H+  H116  1  0.11426617  0.46052209  0.32683759  1
  H+  H117  1  0.89168024  0.51927175  0.16795438  1
  H+  H118  1  0.94696013  0.74832714  0.70263529  1
  H+  H119  1  0.98696018  0.87087507  1.00836644  1
  H+  H120  1  0.13278724  0.25580805  0.32759745  1
  H+  H121  1  0.87925617  0.90179862  0.15571462  1
  H+  H122  1  0.85782570  0.13516641  0.48826603  1
  H+  H123  1  0.26850695  0.87694198  0.67534510  1
  H+  H124  1  0.11345830  0.88409415  0.33620809  1
  H+  H125  1  0.75475057  0.60865314  0.31870545  1
  H+  H126  1  0.88943957  0.52194324  0.85623520  1
  H+  H127  1  0.35876344  0.72162567  0.83567969  1
  H+  H128  1  0.51263432  0.89198753  0.33894261  1
  H+  H129  1  0.60609508  0.97741026  0.49229208  1
  H+  H130  1  0.16480156  0.81751188  0.90735939  1
  H+  H131  1  0.86917511  0.22971526  0.48819758  1
  H+  H132  1  0.89010054  0.61323039  0.49804642  1
  H+  H133  1  0.14256331  0.69853763  -0.01195684  1
  H+  H134  1  0.26071764  0.63562292  -0.00250152  1
  H+  H135  1  0.88633774  0.89504246  0.65560369  1
  H+  H136  1  0.41248605  0.08333290  0.24192200  1
  H+  H137  1  0.37137681  0.59925141  0.16279154  1
  H+  H138  1  0.36555900  1.00044721  0.50029697  1
  H+  H139  1  0.36480607  0.13677300  0.17489464  1
  H+  H140  1  0.59707912  0.61845053  0.32765391  1
  H+  H141  1  0.05869445  0.87826898  0.74205735  1
  H+  H142  1  0.60727191  0.46621914  0.34800573  1
  H+  H143  1  0.38195890  0.61020654  0.67904242  1
  H+  H144  1  0.88772485  0.10852305  0.32034770  1
  H+  H145  1  1.03952014  0.64537787  0.47906671  1
  H+  H146  1  0.88444156  0.35593061  0.32084325  1
  H+  H147  1  0.38074392  0.09151840  0.67028515  1
  H+  H148  1  0.73206768  0.87328340  0.66245971  1
  H+  H149  1  0.14915929  0.11645788  0.62583008  1
  H+  H150  1  0.35796457  0.88976656  0.16715844  1
  H+  H151  1  0.91920151  0.08256106  0.25884947  1
  H+  H152  1  0.36875349  0.11044164  0.33653195  1
  H+  H153  1  0.61574660  0.60169287  0.50294517  1
  H+  H154  1  0.22812384  0.87523552  0.33372986  1
  H+  H155  1  0.25792620  0.37409399  0.67212800  1
  H+  H156  1  0.13185137  0.34611340  0.32566144  1
  H+  H157  1  0.77740412  0.13136190  0.34151164  1
  H+  H158  1  0.82711515  0.69685650  0.47304094  1
  H+  H159  1  0.37098278  0.36809570  0.48294937  1
  H+  H160  1  0.41346914  0.22638663  0.51640400  1
  H+  H161  1  0.13407896  0.84722732  0.84779774  1
  H+  H162  1  0.87068210  0.48637711  1.01243104  1
  H+  H163  1  0.90809621  0.63111135  -0.00095564  1
  H+  H164  1  0.98743472  0.35326602  0.65418138  1
  H+  H165  1  0.38376398  0.86247201  0.83945618  1
  H+  H166  1  0.86418065  -0.02970962  0.33052533  1
  H+  H167  1  0.61620078  0.44490920  0.80080988  1
  H+  H168  1  0.97903722  0.86571414  0.32276899  1
  H+  H169  1  0.88726234  0.77583864  0.16776917  1
  H+  H170  1  0.12292677  0.61006501  0.32520525  1
  H+  H171  1  0.37516253  0.38924030  0.83375023  1
  H+  H172  1  0.38054371  0.02803908  0.33596355  1
  H+  H173  1  0.38260867  0.88148338  0.51579660  1
  H+  H174  1  0.27131031  0.12318338  0.16903104  1
  H+  H175  1  0.12862534  0.64621597  0.48481967  1
  H+  H176  1  0.41601297  0.08331090  0.90355485  1
  H+  H177  1  0.22874620  0.11618030  1.03209056  1
  H+  H178  1  0.50976803  0.61939615  0.33257355  1
  H+  H179  1  0.36232118  0.13151328  -0.00600446  1
  H+  H180  1  0.61861919  0.22349756  0.68315017  1
  H+  H181  1  0.51702307  0.56972900  0.10731230  1
  H+  H182  1  0.89362321  0.64778119  0.69185827  1
  H+  H183  1  0.40086315  0.57298136  0.26304784  1
  H+  H184  1  0.01540577  0.87343263  0.84124911  1
  H+  H185  1  0.63633070  0.11394197  0.66447033  1
  H+  H186  1  0.76457866  0.87161515  0.83203484  1
  H+  H187  1  0.62586956  0.35454239  0.01225397  1
  H+  H188  1  0.92888881  0.57682885  0.25430785  1
  H+  H189  1  0.36482947  0.89541614  0.34529207  1
  H+  H190  1  0.16128062  0.82519368  0.60115212  1
  H+  H191  1  0.38932219  0.71205962  0.13053928  1
  H+  H192  1  0.56739755  -0.08579230  0.40187140  1
  H+  H193  1  0.31568689  0.34987014  0.99991958  1
  H+  H194  1  0.68957377  0.56940463  0.95055403  1
  H+  H195  1  0.63022948  0.28115344  0.17410554  1
  H+  H196  1  0.04579061  0.39611751  0.51014396  1
  H+  H197  1  0.64138349  0.27786710  0.52399896  1
  H+  H198  1  0.58074378  0.65365277  0.42228478  1
  H+  H199  1  0.89253328  0.35263177  0.78177857  1
  H+  H200  1  0.12342567  0.21791975  0.64817075  1
  H+  H201  1  0.86507743  0.47034482  0.32843493  1
  H+  H202  1  0.77308718  0.38415351  0.33510659  1
  H+  H203  1  0.47757691  0.60840415  0.49531826  1
  H+  H204  1  0.37706316  0.78954744  0.51251750  1
  H+  H205  1  0.33341962  0.20976555  0.34958682  1
  H+  H206  1  0.86470434  1.01352007  0.49576197  1
  H+  H207  1  0.38330765  0.01339297  0.99525318  1
  H+  H208  1  0.12274351  0.97746235  0.03084676  1
  H+  H209  1  0.59443781  0.13779053  0.34499764  1
  H+  H210  1  0.51478702  0.64275186  0.68160527  1
  H+  H211  1  0.38306103  0.52102313  0.85563775  1
  H+  H212  1  0.87927850  0.44503763  0.71646202  1
  H+  H213  1  0.10805258  0.95743822  0.83821646  1
  H+  H214  1  0.15177453  0.87909001  0.18447457  1
  H+  H215  1  0.88474185  0.27018467  0.16854702  1
  H+  H216  1  0.68157875  0.33003719  0.62168082  1
  H+  H217  1  0.15036693  0.78006725  0.49927718  1
  H+  H218  1  0.63468568  0.58679010  0.80956149  1
  H+  H219  1  0.17226042  0.01486061  0.49003019  1
  H+  H220  1  0.79517594  0.64369277  0.01473220  1
  H+  H221  1  0.60953448  0.75010857  0.17784763  1
  H+  H222  1  0.88494673  0.26659046  0.32221513  1
  H+  H223  1  0.26391162  0.87309507  0.00935157  1
  H+  H224  1  0.38753121  1.02937676  0.84180247  1
  H+  H225  1  0.08954357  0.65097231  0.38875136  1
  H+  H226  1  0.14059646  0.61066196  0.66257603  1
  H+  H227  1  0.63077397  0.51591728  0.17047711  1
  H+  H228  1  0.23590803  0.87294921  0.17617233  1
  H+  H229  1  0.24827367  0.12057287  0.33412266  1
  H+  H230  1  0.12567827  0.73693783  0.16721485  1
  H+  H231  1  0.74585170  0.16275669  0.19588890  1
  H+  H232  1  0.62107500  0.16447176  0.17535107  1
  H+  H233  1  0.89019238  0.80938450  0.63797142  1
  H+  H234  1  0.01079976  0.87590429  0.67904350  1
  H+  H235  1  0.37958309  0.85650707  0.99498060  1
  H+  H236  1  0.88973494  0.48031762  0.48311458  1
  H+  H237  1  0.60829882  0.97279423  0.83086308  1
  H+  H238  1  0.01773496  0.40093389  0.15392476  1
  H+  H239  1  0.37078441  0.22231383  0.00390079  1
  H+  H240  1  0.88572198  0.86036689  0.32010155  1
  H+  H241  1  0.72694607  0.59569812  0.81270931  1
  H+  H242  1  0.38468800  0.64356676  0.48487197  1
  H+  H243  1  0.97876554  0.59172001  0.68150356  1
  H+  H244  1  0.15063234  0.62982826  0.17309488  1
  H+  H245  1  0.50651881  0.58841343  -0.00682653  1
  H+  H246  1  0.45945998  0.60011787  0.17269451  1
  H+  H247  1  0.11218369  0.14602303  0.69755015  1
  H+  H248  1  0.22276504  0.60090896  0.84005229  1
  H+  H249  1  0.27375947  0.88577812  0.83312268  1
  H+  H250  1  0.73942140  0.34032574  0.68014351  1
  H+  H251  1  0.61954126  0.71406798  0.48357818  1
  H+  H252  1  0.60703457  0.73548240  0.67778939  1
  H+  H253  1  0.09547958  0.07136064  0.77708559  1
  H+  H254  1  0.64429413  0.64528635  1.00454666  1
  H+  H255  1  0.90683425  0.03140839  0.16646364  1
  H+  H256  1  0.86254797  0.12958908  0.66460357  1
  H+  H257  1  0.12230768  0.84053158  0.66294119  1
  H+  H258  1  0.60441850  0.88015462  1.01017321  1
  H+  H259  1  0.60922560  0.14194639  0.49495928  1
  H+  H260  1  0.56074095  0.80235950  0.17436277  1
  H+  H261  1  0.09310101  0.25342977  -0.00332282  1
  H+  H262  1  0.64598380  -0.02018090  0.15466713  1
  H+  H263  1  0.61207008  0.98715677  0.16882325  1
  H+  H264  1  0.64676181  0.36678702  0.52646315  1
  H+  H265  1  0.72631804  0.12058190  0.50442181  1
  H+  H266  1  0.20048888  0.08271254  0.57019227  1
  H+  H267  1  0.11828597  0.88568501  0.01907345  1
  H+  H268  1  0.88237656  0.36602423  0.68586457  1
  H+  H269  1  0.47557304  0.11555547  0.18383547  1
  H+  H270  1  0.36302935  0.72594148  0.68332668  1
  H+  H271  1  0.11485790  0.17861255  0.01040807  1
  H+  H272  1  0.47184941  0.86015403  0.83877556  1
  H+  H273  1  0.22865165  0.60982429  0.32166124  1
  H+  H274  1  0.60445824  0.38581023  0.16751543  1
  H+  H275  1  0.44141879  0.44327519  0.97551498  1
  H+  H276  1  0.84085969  0.16729618  0.39716678  1
  H+  H277  1  0.18874586  0.36691356  -0.02136882  1
  H+  H278  1  1.02407422  0.37517826  0.32815969  1
  H+  H279  1  0.09726553  0.41679545  0.72515680  1
  H+  H280  1  0.51839666  0.18191576  0.82933382  1
  H+  H281  1  0.12391705  0.09462338  0.30441776  1
  H+  H282  1  0.13084966  0.26781961  0.16813941  1
  H+  H283  1  0.64876596  0.51686317  1.01090003  1
  H+  H284  1  0.37521717  0.51440253  0.32307288  1
  H+  H285  1  0.63654302  0.86272357  0.84054296  1
  H+  H286  1  0.13341206  0.60000978  0.83420051  1
  H+  H287  1  0.37928853  0.35229868  0.33230000  1
  H+  H288  1  0.08104577  0.20388333  0.09401895  1
  H+  H289  1  0.84932669  0.22494561  0.00885617  1
  H+  H290  1  0.69763953  0.68157766  0.89475187  1
  H+  H291  1  0.58326837  0.91847168  0.76894448  1
  H+  H292  1  0.57297435  0.66538012  0.77139785  1
  H+  H293  1  0.83320206  0.42421892  0.07034452  1
  H+  H294  1  1.00036938  0.64230905  0.99137106  1
  H+  H295  1  0.92277607  0.83987966  0.22234736  1
  H+  H296  1  0.33393163  0.66567487  0.39178989  1
  H+  H297  1  0.90961870  0.08566145  0.89439296  1
  H+  H298  1  0.90955356  0.32433917  0.23000981  1
  H+  H299  1  0.92743449  0.33019721  0.55916398  1
  H+  H300  1  0.00204242  0.09060077  0.48312234  1
  H+  H301  1  0.41350825  0.83479340  0.60957944  1
  H+  H302  1  0.35765772  0.13186215  0.83666174  1
  H+  H303  1  0.36149727  0.63345635  0.83927089  1
  H+  H304  1  0.71464796  0.35726956  1.00576431  1
  H+  H305  1  0.62332085  0.01872617  0.34763536  1
  H+  H306  1  0.72186476  0.77211717  0.55105117  1
  H+  H307  1  0.99897090  0.19147304  0.81880439  1
  H+  H308  1  0.60112296  0.67045345  0.05709102  1
  H+  H309  1  0.85509393  0.41893907  0.42549493  1
  H+  H310  1  0.17112802  0.32275397  0.24011277  1
  H+  H311  1  0.65924528  0.07157549  0.94535678  1
  H+  H312  1  0.24906165  0.14214539  0.43414462  1
  H+  H313  1  0.42892647  0.73694449  0.45778222  1
  H+  H314  1  0.92900817  0.58948072  0.91018097  1
  H+  H315  1  0.82336298  0.90826705  0.41844818  1
  H+  H316  1  0.28439594  0.36916872  0.06058456  1
  H+  H317  1  0.16120805  0.38468749  0.51100862  1
  H+  H318  1  0.85370485  0.37903317  0.16100267  1
  H+  H319  1  0.64940600  0.77995553  0.99092365  1
  H+  H320  1  0.86818857  0.36462264  0.99803272  1
  H+  H321  1  0.40997037  0.32604040  0.24126150  1
  H+  H322  1  0.41544669  0.30113749  0.55576813  1
  H+  H323  1  0.42723935  0.55457303  0.95019319  1
  H+  H324  1  0.72026197  0.10779000  0.84347160  1
  H+  H325  1  0.65630669  0.64101872  0.90105948  1
  H+  H326  1  0.32528567  0.64625982  0.08267115  1
  H+  H327  1  0.89424641  0.52988634  0.64287288  1
  H+  H328  1  0.67077478  0.58550691  0.22336529  1
  H+  H329  1  0.60598591  0.21865699  0.01962265  1
  H+  H330  1  0.17284524  0.04921377  0.91232514  1
  H+  H331  1  0.51010882  0.84486797  0.09966401  1
  H+  H332  1  0.92779418  0.83756199  0.94796561  1
  H+  H333  1  0.85850557  0.67924868  0.77640762  1
  H+  H334  1  0.66524365  0.08962125  0.56321367  1
  H+  H335  1  -0.03932174  0.35739373  0.83311261  1
  H+  H336  1  0.17867513  0.33699254  0.59084884  1
  H+  H337  1  0.43417070  0.36842259  0.93124095  1
  H+  H338  1  0.88887765  0.68716740  0.37997311  1
  H+  H339  1  0.61242039  -0.02018839  0.67302434  1
  H+  H340  1  0.09771414  0.94211744  0.12206338  1
  H+  H341  1  0.82953167  0.15710227  0.72450897  1
  H+  H342  1  0.32688877  0.91077996  0.06773335  1
  H+  H343  1  0.61476300  0.89183029  0.67448425  1
  H+  H344  1  0.10497303  0.45743061  0.85208287  1
  H+  H345  1  0.64420796  0.59311030  0.60051373  1
  H+  H346  1  0.33401011  0.42357025  0.78455008  1
  H+  H347  1  0.41080804  0.83118382  0.93392047  1
  H+  H348  1  0.66768856  0.83359426  0.60636592  1
  H+  H349  1  0.08834667  0.66230522  0.73645259  1
  H+  H350  1  0.66747751  0.83676944  0.90162047  1
  H+  H351  1  0.76781079  0.38652260  0.16261902  1
  H+  H352  1  0.84989163  0.93600752  0.09884021  1
  H+  H353  1  0.51469700  0.87882313  0.00472686  1
  H+  H354  1  0.57311825  0.41619665  0.07644171  1
  H+  H355  1  0.15858177  0.59506616  0.92813567  1
  H+  H356  1  0.17462446  0.58576770  0.25699611  1
  H+  H357  1  0.66298042  0.33840871  0.23445962  1
  H+  H358  1  0.71388415  0.52145084  0.28479885  1
  H+  H359  1  0.78137935  0.61109289  0.43614269  1
  H+  H360  1  0.06723131  0.12384832  0.38503991  1
  H+  H361  1  0.57762002  0.17628275  0.43888543  1
  H+  H362  1  0.39389564  0.27618146  0.84186245  1
  H+  H363  1  0.06852596  0.44159897  0.06253290  1
  H+  H364  1  0.04824190  0.29374712  0.81856095  1
  H+  H365  1  0.40433656  0.84408317  0.26609539  1
  H+  H366  1  0.34054566  0.93003841  0.40602839  1
  H+  H367  1  0.89334991  0.60942698  0.17007785  1
  H+  H368  1  0.33495053  0.40956221  0.39529982  1
  H+  H369  1  0.58586886  0.42184341  0.71166743  1
  H+  H370  1  0.59891459  0.60863999  0.14980925  1
  H+  H371  1  0.09699705  0.92105947  0.42208589  1
  H+  H372  1  0.82035847  0.15218200  0.09470855  1
  H+  H373  1  0.17447424  0.84322971  0.27245644  1
  H+  H374  1  0.69077615  0.13692424  0.25589734  1
  H+  H375  1  0.84719188  0.66805289  0.10417649  1
  H+  H376  1  0.58046757  0.40966013  0.40881704  1
  H+  H377  1  0.90241657  0.07312590  0.55604918  1
  H+  H378  1  0.94024102  0.60496292  0.55352843  1
  H+  H379  1  0.18435354  0.60325919  0.56819456  1
  H+  H380  1  0.65613906  0.84339416  0.26399341  1
  H+  H381  1  0.16525026  0.08479154  0.90171200  1
  H+  H382  1  0.84635907  0.21702824  0.81418142  1
  H+  H383  1  0.30804873  0.13766286  0.74246775  1
  O2-  O384  1  0.08762521  0.19889151  0.13876095  1
  O2-  O385  1  0.04008850  0.07184918  0.46374893  1
  O2-  O386  1  0.04757673  0.24309182  0.80067663  1
  O2-  O387  1  0.07387848  0.43309004  0.13347916  1
  O2-  O388  1  0.10950667  0.42760272  0.51534518  1
  O2-  O389  1  0.06861089  0.39353161  0.85619499  1
  O2-  O390  1  0.10235869  0.67691641  0.15244144  1
  O2-  O391  1  0.09888520  0.67282440  0.46283047  1
  O2-  O392  1  0.08644876  0.66069773  0.81283426  1
  O2-  O393  1  0.11391143  0.95279599  0.16563554  1
  O2-  O394  1  0.10613933  0.92469303  0.46839182  1
  O2-  O395  1  0.07445814  0.89948305  0.82185333  1
  O2-  O396  1  0.33257866  0.16670692  0.16382986  1
  O2-  O397  1  0.21738628  0.14079115  0.47281383  1
  O2-  O398  1  0.32777514  0.16232568  0.81835272  1
  O2-  O399  1  0.32434323  0.40189540  0.14673209  1
  O2-  O400  1  0.34969834  0.40690148  0.47189424  1
  O2-  O401  1  0.33434186  0.41174734  0.82798791  1
  O2-  O402  1  0.33642882  0.65369967  0.12858270  1
  O2-  O403  1  0.37191519  0.69021713  0.46886881  1
  O2-  O404  1  0.32977501  0.66075608  0.82095594  1
  O2-  O405  1  0.33030829  0.92111397  0.14441422  1
  O2-  O406  1  0.34143072  0.93957782  0.48629553  1
  O2-  O407  1  0.33359308  0.91987971  0.81696958  1
  O2-  O408  1  0.57876020  0.17680658  0.15527614  1
  O2-  O409  1  0.57909714  0.17398094  0.48400931  1
  O2-  O410  1  0.57189868  0.22712938  0.81023125  1
  O2-  O411  1  0.57238138  0.41537595  0.15357614  1
  O2-  O412  1  0.58287280  0.40839737  0.48336596  1
  O2-  O413  1  0.57239908  0.38681121  0.78541536  1
  O2-  O414  1  0.55730283  0.62240198  0.12848310  1
  O2-  O415  1  0.58207471  0.65437262  0.46835023  1
  O2-  O416  1  0.57377481  0.65841950  0.81624953  1
  O2-  O417  1  0.48437235  0.80757870  0.13538633  1
  O2-  O418  1  0.57058936  0.91744896  0.47776462  1
  O2-  O419  1  0.58036280  0.91327086  0.81434410  1
  O2-  O420  1  0.81466961  0.13925017  0.14035064  1
  O2-  O421  1  0.83142341  0.16933946  0.47290095  1
  O2-  O422  1  0.81388730  0.15429420  0.80454793  1
  O2-  O423  1  0.82799811  0.41413919  0.14685011  1
  O2-  O424  1  0.86571871  0.42069201  0.46986010  1
  O2-  O425  1  0.77650211  0.35548177  0.86986895  1
  O2-  O426  1  0.84019898  0.66108705  0.14955056  1
  O2-  O427  1  0.80624724  0.63525358  0.47582261  1
  O2-  O428  1  0.84167080  0.66807825  0.82065068  1
  O2-  O429  1  0.85732092  0.94121935  0.14354687  1
  O2-  O430  1  0.82262783  0.90949279  0.46470084  1
  O2-  O431  1  0.82518998  0.89373551  0.81582882  1
  O2-  O432  1  0.15556419  0.04670524  0.17226818  1
  O2-  O433  1  0.21967182  0.07306243  0.50875164  1
  O2-  O434  1  0.14595728  0.11912851  0.75860563  1
  O2-  O435  1  0.17302197  0.33081694  0.19432571  1
  O2-  O436  1  0.19252375  0.34931440  0.51577907  1
  O2-  O437  1  0.18727183  0.24078960  0.83750563  1
  O2-  O438  1  0.17775444  0.59410161  0.18718524  1
  O2-  O439  1  0.18490300  0.60611805  0.52252710  1
  O2-  O440  1  0.16078007  0.56860531  0.85225067  1
  O2-  O441  1  0.17639542  0.84238919  0.19499488  1
  O2-  O442  1  0.17352818  0.83595522  0.52063928  1
  O2-  O443  1  0.16806034  0.82039447  0.86050742  1
  O2-  O444  1  0.41424968  0.08223924  0.19665595  1
  O2-  O445  1  0.41641267  0.10983608  0.52749057  1
  O2-  O446  1  0.41320723  0.08907645  0.85812546  1
  O2-  O447  1  0.41133522  0.32859335  0.19590190  1
  O2-  O448  1  0.42167995  0.28498274  0.51414415  1
  O2-  O449  1  0.42886238  0.33848441  0.85067330  1
  O2-  O450  1  0.39867014  0.56912781  0.18535623  1
  O2-  O451  1  0.41624764  0.58197623  0.50749624  1
  O2-  O452  1  0.41314092  0.58211919  0.86856992  1
  O2-  O453  1  0.38884834  0.83861860  0.20100470  1
  O2-  O454  1  0.40804930  0.84644872  0.53175971  1
  O2-  O455  1  0.41167867  0.82975433  0.85434442  1
  O2-  O456  1  0.70506950  0.17255426  0.21946334  1
  O2-  O457  1  0.66502620  0.09013900  0.51772595  1
  O2-  O458  1  0.66231922  0.07653846  0.86393108  1
  O2-  O459  1  0.66297693  0.34236610  0.18907391  1
  O2-  O460  1  0.67136176  0.33407239  0.54495942  1
  O2-  O461  1  0.70918019  0.26513718  0.88011805  1
  O2-  O462  1  0.66437488  0.58016141  0.17880279  1
  O2-  O463  1  0.63985517  0.57125659  0.52907973  1
  O2-  O464  1  0.66509606  0.55428174  0.80616022  1
  O2-  O465  1  0.60694206  0.79757283  0.19650759  1
  O2-  O466  1  0.69238543  0.79773590  0.53004957  1
  O2-  O467  1  0.66678989  0.83254122  0.85589912  1
  O2-  O468  1  0.93505162  0.09417330  0.18359501  1
  O2-  O469  1  0.90109284  0.07376293  0.51024954  1
  O2-  O470  1  0.90736513  0.08607668  0.84868532  1
  O2-  O471  1  0.90817783  0.32851016  0.18419147  1
  O2-  O472  1  0.93456349  0.33227154  0.51420777  1
  O2-  O473  1  0.89897182  0.32809017  0.82123073  1
  O2-  O474  1  0.92527496  0.57966793  0.18340039  1
  O2-  O475  1  0.93401504  0.59790242  0.50959136  1
  O2-  O476  1  0.92370258  0.58347410  0.86404670  1
  O2-  O477  1  0.91648299  0.83759166  0.17776062  1
  O2-  O478  1  0.96203318  0.91099251  0.51569654  1
  O2-  O479  1  0.91778741  0.82605321  0.86862056  1
  O2-  O480  1  0.15626068  0.06519062  0.29284894  1
  O2-  O481  1  0.18326028  0.08462536  0.61670662  1
  O2-  O482  1  0.16778595  0.08688269  1.04576274  1
  O2-  O483  1  0.16544740  0.31678707  0.31346379  1
  O2-  O484  1  0.17010078  0.32858433  0.63614017  1
  O2-  O485  1  0.13003272  0.35212921  0.96527820  1
  O2-  O486  1  0.16849781  0.57854334  0.30373992  1
  O2-  O487  1  0.17319196  0.58366333  0.64548181  1
  O2-  O488  1  0.15643865  0.60798911  0.97199811  1
  O2-  O489  1  0.16867549  0.84393763  0.31763479  1
  O2-  O490  1  0.16043345  0.81978634  0.64633790  1
  O2-  O491  1  0.16085194  0.81779690  0.97992428  1
  O2-  O492  1  0.40694363  0.08935476  0.32130850  1
  O2-  O493  1  0.41791447  0.07254041  0.65104752  1
  O2-  O494  1  0.41598692  0.07376500  0.97965925  1
  O2-  O495  1  0.40457325  0.31544102  0.32116061  1
  O2-  O496  1  0.42423194  0.36275519  0.62569478  1
  O2-  O497  1  0.43330166  0.38341110  0.97448768  1
  O2-  O498  1  0.40466271  0.57537370  0.30855102  1
  O2-  O499  1  0.41614440  0.58217179  0.66823681  1
  O2-  O500  1  0.44848015  0.53827164  0.98641159  1
  O2-  O501  1  0.41156858  0.84328984  0.31427551  1
  O2-  O502  1  0.41485370  0.83039521  0.65478977  1
  O2-  O503  1  0.41218387  0.82880891  0.97913743  1
  O2-  O504  1  0.66001726  0.08557840  0.34727297  1
  O2-  O505  1  0.66342956  0.08380242  0.64354503  1
  O2-  O506  1  0.66036795  0.07380851  0.99052525  1
  O2-  O507  1  0.66578421  0.33555681  0.31323206  1
  O2-  O508  1  0.68046258  0.32074949  0.66662959  1
  O2-  O509  1  0.65226941  0.31966795  1.00106999  1
  O2-  O510  1  0.69906193  0.56253530  0.30186735  1
  O2-  O511  1  0.65002986  0.59695517  0.64649486  1
  O2-  O512  1  0.68856366  0.57729838  0.99431011  1
  O2-  O513  1  0.68242705  0.86990257  0.30377311  1
  O2-  O514  1  0.66736211  0.83881296  0.65098819  1
  O2-  O515  1  0.67164174  0.84060708  0.97779191  1
  O2-  O516  1  0.91611668  0.07701257  0.30445650  1
  O2-  O517  1  0.91308848  0.08034001  0.63151081  1
  O2-  O518  1  0.91346704  0.09010159  0.97106596  1
  O2-  O519  1  0.91430981  0.32577353  0.30459889  1
  O2-  O520  1  0.92723395  0.32554551  0.63956874  1
  O2-  O521  1  0.89527000  0.33020954  0.98278928  1
  O2-  O522  1  0.92891575  0.57696908  0.30104623  1
  O2-  O523  1  0.91385698  0.55630535  0.68263155  1
  O2-  O524  1  0.93883109  0.60149066  0.98278406  1
  O2-  O525  1  0.91885393  0.83197773  0.30614309  1
  O2-  O526  1  0.92568636  0.87197241  0.63674123  1
  O2-  O527  1  0.92584998  0.84100817  0.99306541  1
  O2-  O528  1  0.07151216  0.19571143  0.01688454  1
  O2-  O529  1  0.07594103  0.14560208  0.34287327  1
  O2-  O530  1  0.09928165  0.15485165  0.65411854  1
  O2-  O531  1  0.06770148  0.44491407  0.01616279  1
  O2-  O532  1  0.08468609  0.40091822  0.34175839  1
  O2-  O533  1  0.09624676  0.41714875  0.68083773  1
  O2-  O534  1  0.11177440  0.72830038  0.00293763  1
  O2-  O535  1  0.08479792  0.63971860  0.34351071  1
  O2-  O536  1  0.08342157  0.65638534  0.69083993  1
  O2-  O537  1  0.08719451  0.91360223  0.03628317  1
  O2-  O538  1  0.07971134  0.91308645  0.35118801  1
  O2-  O539  1  0.04541141  0.85430612  0.70025470  1
  O2-  O540  1  0.32940765  0.16251524  -0.00507671  1
  O2-  O541  1  0.29688105  0.14945213  0.36401742  1
  O2-  O542  1  0.31292415  0.13502540  0.69687923  1
  O2-  O543  1  0.26490837  0.34673328  0.01932471  1
  O2-  O544  1  0.33104381  0.40998937  0.34993570  1
  O2-  O545  1  0.31413690  0.39462423  0.69555655  1
  O2-  O546  1  0.32005631  0.65318268  0.01088044  1
  O2-  O547  1  0.32669148  0.66245858  0.34692506  1
  O2-  O548  1  0.32977801  0.66502409  0.69764663  1
  O2-  O549  1  0.32599337  0.90726524  0.02206932  1
  O2-  O550  1  0.33701100  0.92835344  0.36087331  1
  O2-  O551  1  0.32780480  0.90872413  0.69229426  1
  O2-  O552  1  0.57481058  0.15662758  0.03371033  1
  O2-  O553  1  0.57074485  0.17468934  0.35737508  1
  O2-  O554  1  0.58418344  0.16245153  0.70025369  1
  O2-  O555  1  0.58159681  0.42144365  0.03132640  1
  O2-  O556  1  0.57628213  0.40674448  0.36287288  1
  O2-  O557  1  0.59140275  0.44493395  0.66938860  1
  O2-  O558  1  0.61084776  0.67472044  0.01250974  1
  O2-  O559  1  0.56944657  0.64526954  0.34912630  1
  O2-  O560  1  0.57848590  0.67455294  0.69276558  1
  O2-  O561  1  0.57177178  0.90719124  0.02607229  1
  O2-  O562  1  0.57261420  0.92183406  0.35638353  1
  O2-  O563  1  0.58259131  0.92007279  0.69006221  1
  O2-  O564  1  0.82535125  0.16399950  0.02235931  1
  O2-  O565  1  0.83945937  0.16362314  0.35124813  1
  O2-  O566  1  0.83412779  0.16211396  0.67932050  1
  O2-  O567  1  0.83374385  0.42583234  0.02475992  1
  O2-  O568  1  0.83529857  0.41154037  0.34609976  1
  O2-  O569  1  0.85638445  0.38263218  0.71999816  1
  O2-  O570  1  0.85574738  0.67710679  0.02891972  1
  O2-  O571  1  0.86072935  0.67776804  0.34063118  1
  O2-  O572  1  0.88789332  0.69801577  0.70295680  1
  O2-  O573  1  0.83732374  0.92564660  0.01744750  1
  O2-  O574  1  0.83127000  0.90941725  0.34455006  1
  O2-  O575  1  0.83030195  0.92787993  0.67539634  1
