# generated using pymatgen
data_H2O
_symmetry_space_group_name_H-M   'P 1'
_cell_length_a   17.96595611
_cell_length_b   17.97104873
_cell_length_c   21.98166482
_cell_angle_alpha   90.01137579
_cell_angle_beta   89.99535692
_cell_angle_gamma   119.98564402
_symmetry_Int_Tables_number   1
_chemical_formula_structural   H2O
_chemical_formula_sum   'H384 O192'
_cell_volume   6147.20600979
_cell_formula_units_Z   192
loop_
 _symmetry_equiv_pos_site_id
 _symmetry_equiv_pos_as_xyz
  1  'x, y, z'
loop_
 _atom_type_symbol
 _atom_type_oxidation_number
  H+  1.0
  O2-  -2.0
loop_
 _atom_site_type_symbol
 _atom_site_label
 _atom_site_symmetry_multiplicity
 _atom_site_fract_x
 _atom_site_fract_y
 _atom_site_fract_z
 _atom_site_occupancy
  H+  H0  1  0.14270873  0.77349487  0.84109008  1
  H+  H1  1  0.89640448  0.28417282  0.20388039  1
  H+  H2  1  0.11358228  0.26231104  0.18250348  1
  H+  H3  1  0.86453899  0.77842955  0.02974163  1
  H+  H4  1  0.38138122  0.37666933  0.50657311  1
  H+  H5  1  0.24074579  0.11739016  1.00281293  1
  H+  H6  1  0.26854162  0.39243584  0.48072660  1
  H+  H7  1  0.17595881  0.07621146  0.22937322  1
  H+  H8  1  0.57941455  0.70332338  -0.09901055  1
  H+  H9  1  1.04998532  0.37665015  0.68037763  1
  H+  H10  1  0.11072824  0.63644778  0.00681055  1
  H+  H11  1  0.90298473  0.06870943  0.33391775  1
  H+  H12  1  0.86757051  0.23102846  0.03094724  1
  H+  H13  1  0.32666799  0.74441054  0.65240611  1
  H+  H14  1  0.78368492  0.38663890  0.17152725  1
  H+  H15  1  0.16078043  0.35112257  0.65935182  1
  H+  H16  1  0.49624418  0.61227577  0.66943107  1
  H+  H17  1  0.31704716  0.82890275  0.65231826  1
  H+  H18  1  0.34404280  0.39794552  0.76056914  1
  H+  H19  1  0.85646987  0.64681723  0.66073825  1
  H+  H20  1  0.85224078  0.39416257  0.49629954  1
  H+  H21  1  0.12978839  0.46976361  0.67392585  1
  H+  H22  1  0.61987940  0.77146470  0.47880303  1
  H+  H23  1  -0.02325596  0.61876586  0.32307248  1
  H+  H24  1  0.13609939  0.27885754  0.49833758  1
  H+  H25  1  0.89570029  0.11923184  0.49012084  1
  H+  H26  1  0.36711996  0.38643540  0.33382528  1
  H+  H27  1  0.60027433  0.46264607  0.67951614  1
  H+  H28  1  0.23267751  0.61882324  0.84805524  1
  H+  H29  1  0.35427109  0.76041576  0.50069769  1
  H+  H30  1  0.12211129  0.76452919  0.65547630  1
  H+  H31  1  0.64266183  0.26444813  0.84755463  1
  H+  H32  1  0.13495563  0.60786468  0.15871153  1
  H+  H33  1  0.87813276  0.99725660  -0.00228263  1
  H+  H34  1  0.76710764  0.13646570  0.17995420  1
  H+  H35  1  0.12474618  0.14330447  0.01700484  1
  H+  H36  1  0.73877966  0.11477583  0.63693708  1
  H+  H37  1  0.61239254  0.35363753  0.65957696  1
  H+  H38  1  0.13031570  0.98231639  0.01342014  1
  H+  H39  1  0.61946617  0.21881925  0.01918230  1
  H+  H40  1  0.16774491  0.06998254  0.56199926  1
  H+  H41  1  0.61465277  0.57028620  0.98962570  1
  H+  H42  1  0.87056523  0.47906188  0.17004920  1
  H+  H43  1  0.79337336  0.37613420  0.01962543  1
  H+  H44  1  0.39644164  0.99627019  0.65431708  1
  H+  H45  1  0.10746145  0.63270196  0.49081761  1
  H+  H46  1  0.15530685  1.02308807  0.16631557  1
  H+  H47  1  0.48070184  0.87747001  0.67261756  1
  H+  H48  1  0.60555350  0.39782171  0.50647076  1
  H+  H49  1  0.61041890  0.13052143  0.17679178  1
  H+  H50  1  0.61694733  0.14030755  0.34680917  1
  H+  H51  1  0.92315461  0.91675689  0.96557493  1
  H+  H52  1  0.48328389  0.87384818  0.99741906  1
  H+  H53  1  0.86379316  0.72271618  0.15651942  1
  H+  H54  1  0.33480332  0.66868920  0.74192450  1
  H+  H55  1  0.60936502  0.62692067  0.33839696  1
  H+  H56  1  0.17674341  0.83308393  0.93647873  1
  H+  H57  1  0.86578146  0.83172963  0.34545586  1
  H+  H58  1  0.12103344  0.88577143  0.15841047  1
  H+  H59  1  0.11283523  0.73041066  0.33758369  1
  H+  H60  1  0.91728907  0.09036798  0.22876920  1
  H+  H61  1  0.14591915  0.25721065  0.64921445  1
  H+  H62  1  0.38598727  0.25918954  0.99706791  1
  H+  H63  1  0.64250731  0.85929863  0.18383822  1
  H+  H64  1  0.65358252  0.11230239  0.84891051  1
  H+  H65  1  0.76493134  0.60425694  0.81475223  1
  H+  H66  1  0.29517326  0.36041872  0.65653288  1
  H+  H67  1  0.48026583  0.11359913  0.18577672  1
  H+  H68  1  0.84084790  0.72655953  0.66493831  1
  H+  H69  1  1.02587869  0.63360136  0.82821554  1
  H+  H70  1  0.84517066  0.90188577  0.65716199  1
  H+  H71  1  0.88368940  0.53766789  0.50133209  1
  H+  H72  1  0.40552072  0.79127245  0.35132708  1
  H+  H73  1  0.86594259  -0.01366756  0.48077160  1
  H+  H74  1  0.63611585  0.10627379  1.00565267  1
  H+  H75  1  0.16626078  0.57775405  0.93743780  1
  H+  H76  1  0.10106699  0.41865053  0.77682878  1
  H+  H77  1  0.15232371  0.28263986  0.32674574  1
  H+  H78  1  0.12192896  0.88882646  0.00438176  1
  H+  H79  1  0.11283641  0.64130705  0.32914539  1
  H+  H80  1  0.15263627  0.36846820  0.00062723  1
  H+  H81  1  0.18403590  0.33676603  0.90065741  1
  H+  H82  1  0.65933010  0.02404854  0.64517464  1
  H+  H83  1  0.64359275  0.60285455  0.20526685  1
  H+  H84  1  0.85799608  0.50479041  0.66244246  1
  H+  H85  1  0.51435113  0.36450397  0.83852914  1
  H+  H86  1  0.43710562  0.18824168  0.78665983  1
  H+  H87  1  0.73320185  0.36384335  0.33506676  1
  H+  H88  1  1.00758599  0.90931860  0.97290655  1
  H+  H89  1  0.64909497  0.66076293  0.96341517  1
  H+  H90  1  0.61194296  0.89946503  0.46416282  1
  H+  H91  1  0.23386248  0.21566888  0.67905761  1
  H+  H92  1  0.12162369  0.13783793  0.49191870  1
  H+  H93  1  0.97665213  0.62330296  0.65269725  1
  H+  H94  1  0.27898609  1.12988416  0.17013625  1
  H+  H95  1  0.91072377  0.13252593  0.63109021  1
  H+  H96  1  0.37613369  1.13201582  0.17581893  1
  H+  H97  1  0.37907825  0.23153819  0.17221557  1
  H+  H98  1  0.13958334  0.77380123  0.99549708  1
  H+  H99  1  0.28462614  0.37872361  0.82051653  1
  H+  H100  1  0.83080623  0.36166130  0.65582071  1
  H+  H101  1  0.35476041  0.12265309  0.34359733  1
  H+  H102  1  0.37595657  0.73187972  0.83311377  1
  H+  H103  1  0.61473872  0.59285335  0.67175383  1
  H+  H104  1  0.35537687  0.61014653  -0.00747141  1
  H+  H105  1  0.11581455  0.72435349  0.16052244  1
  H+  H106  1  0.27512291  0.88595463  0.01299296  1
  H+  H107  1  0.77756969  0.88675640  0.15643068  1
  H+  H108  1  0.61345036  0.21931494  0.67410758  1
  H+  H109  1  0.31837833  0.66180952  0.43009092  1
  H+  H110  1  0.77327028  0.14486186  0.02680415  1
  H+  H111  1  0.86005394  0.12439209  0.17411831  1
  H+  H112  1  0.67269339  0.08794528  0.25171835  1
  H+  H113  1  0.87436832  0.58837043  0.99839119  1
  H+  H114  1  0.21515035  0.86297620  0.50122246  1
  H+  H115  1  0.22250229  0.60453093  0.65753262  1
  H+  H116  1  0.98949701  0.12511247  0.83344796  1
  H+  H117  1  0.02961307  0.13136768  0.66148911  1
  H+  H118  1  0.61546096  0.72202422  0.33328021  1
  H+  H119  1  0.87801139  0.40890139  0.35390460  1
  H+  H120  1  0.89308055  0.03698422  0.64160645  1
  H+  H121  1  0.53070719  0.88876144  0.18630805  1
  H+  H122  1  0.27585594  0.38587409  0.33221075  1
  H+  H123  1  0.34961463  0.55247601  0.65261643  1
  H+  H124  1  0.70859670  0.37221609  0.65778687  1
  H+  H125  1  0.37145857  0.89250787  0.17860308  1
  H+  H126  1  0.64155490  0.76949184  0.19082155  1
  H+  H127  1  0.12864303  0.02929721  0.86507911  1
  H+  H128  1  0.64215957  0.98308998  0.82760876  1
  H+  H129  1  0.59839166  0.45137532  0.35441235  1
  H+  H130  1  0.86187557  0.89392826  0.48623257  1
  H+  H131  1  0.71630949  0.61543221  0.49162973  1
  H+  H132  1  0.23875557  0.36506864  -0.00270615  1
  H+  H133  1  0.23057873  0.86069738  0.17995101  1
  H+  H134  1  0.41465943  0.00577396  0.84693134  1
  H+  H135  1  0.11106566  0.13890942  0.83358915  1
  H+  H136  1  0.71750692  0.59766719  0.36192416  1
  H+  H137  1  0.96669155  0.86429904  0.49737231  1
  H+  H138  1  0.60970162  0.46175688  0.83352669  1
  H+  H139  1  0.03158778  0.13545818  0.48332052  1
  H+  H140  1  0.37620354  0.52120716  0.49042644  1
  H+  H141  1  0.80391860  0.62382385  0.07796606  1
  H+  H142  1  0.13261637  0.39128166  0.83576955  1
  H+  H143  1  0.49764646  0.86710484  0.83818240  1
  H+  H144  1  0.40611598  0.14221026  0.77875591  1
  H+  H145  1  0.16041999  0.87096092  0.84309519  1
  H+  H146  1  0.70590145  0.80795271  0.62612365  1
  H+  H147  1  0.37422665  0.87618689  0.82348804  1
  H+  H148  1  0.62738422  0.13766559  0.66991004  1
  H+  H149  1  0.51310500  0.40141879  0.50999388  1
  H+  H150  1  0.85007735  0.76531156  0.99750494  1
  H+  H151  1  0.52671051  0.14063108  0.49522801  1
  H+  H152  1  0.65992424  0.04470464  0.35205954  1
  H+  H153  1  0.41670784  0.32083452  0.89881681  1
  H+  H154  1  0.66937727  0.36211005  1.00993809  1
  H+  H155  1  0.87579511  1.02468953  0.16982954  1
  H+  H156  1  0.63883910  0.88358291  0.66076077  1
  H+  H157  1  0.70822867  0.60267604  0.67065301  1
  H+  H158  1  0.12350857  0.51613523  0.50395464  1
  H+  H159  1  0.47557569  0.62310879  0.97109553  1
  H+  H160  1  0.04216979  0.39127873  0.03303767  1
  H+  H161  1  0.78013334  0.14137588  0.48390861  1
  H+  H162  1  0.38884670  0.51471625  0.82636646  1
  H+  H163  1  0.61613611  0.36999190  0.84216238  1
  H+  H164  1  0.00066467  0.13835474  0.32339800  1
  H+  H165  1  0.14756739  0.52625859  0.84591013  1
  H+  H166  1  0.84919808  0.23475269  0.65265030  1
  H+  H167  1  0.10739712  0.62879151  0.67181785  1
  H+  H168  1  0.37497882  0.47414699  1.00411492  1
  H+  H169  1  0.22956661  0.10357003  0.50425598  1
  H+  H170  1  0.87261532  0.47180726  0.84194900  1
  H+  H171  1  0.00622218  0.38305942  0.49405835  1
  H+  H172  1  0.37748931  0.25138547  0.49719509  1
  H+  H173  1  0.11616773  0.86279573  0.32757024  1
  H+  H174  1  0.37267663  0.38109884  0.16199370  1
  H+  H175  1  0.61310131  0.88925010  0.02653194  1
  H+  H176  1  0.26504714  0.63936943  0.33337318  1
  H+  H177  1  0.28472723  0.87574745  0.83157240  1
  H+  H178  1  0.39371284  0.78639073  0.22065037  1
  H+  H179  1  0.88354935  0.32605184  0.56065059  1
  H+  H180  1  0.66415981  0.86874771  0.82794980  1
  H+  H181  1  0.12718654  0.48106629  0.12252634  1
  H+  H182  1  0.76585458  0.40017119  0.49879068  1
  H+  H183  1  0.26701212  0.18154453  0.76445606  1
  H+  H184  1  0.50959646  0.63188584  0.47937829  1
  H+  H185  1  0.11570646  0.63669315  0.82865000  1
  H+  H186  1  0.14016210  0.52334887  1.00216690  1
  H+  H187  1  0.35236237  0.85619036  0.50082333  1
  H+  H188  1  0.07040187  0.92277962  0.81236888  1
  H+  H189  1  0.61655935  0.97845280  0.02460452  1
  H+  H190  1  0.92151083  0.60169892  0.59005430  1
  H+  H191  1  0.34969300  0.63258211  0.33749718  1
  H+  H192  1  0.62587479  0.61566029  0.48923328  1
  H+  H193  1  0.72787593  0.94910196  0.68306645  1
  H+  H194  1  0.30348232  0.87094631  0.33621570  1
  H+  H195  1  0.22218791  0.60306561  0.15971410  1
  H+  H196  1  0.12807076  1.00115775  0.65353616  1
  H+  H197  1  0.36581039  0.63753614  0.82925472  1
  H+  H198  1  0.64078531  1.02265221  0.19442471  1
  H+  H199  1  0.61330762  0.50211893  0.50195647  1
  H+  H200  1  0.38451665  0.48752991  0.64569149  1
  H+  H201  1  0.85948462  0.64421519  0.48475055  1
  H+  H202  1  0.39643229  0.35636511  0.83697455  1
  H+  H203  1  0.09598120  0.38402325  0.48706551  1
  H+  H204  1  0.38748474  1.01329383  0.33489815  1
  H+  H205  1  0.47527521  0.60637470  0.82847756  1
  H+  H206  1  0.85409853  0.70895953  0.38406814  1
  H+  H207  1  -0.02490075  0.62416613  0.49566813  1
  H+  H208  1  0.61833618  0.47008065  0.18294183  1
  H+  H209  1  0.62917568  0.59796693  0.82561244  1
  H+  H210  1  0.12872390  0.35480497  0.16595218  1
  H+  H211  1  0.25859166  0.61341551  -0.00055414  1
  H+  H212  1  0.11672288  0.13292213  0.33471988  1
  H+  H213  1  0.40541861  0.88244738  0.35450955  1
  H+  H214  1  0.02056391  0.63406796  0.00497847  1
  H+  H215  1  0.70564284  0.49748650  0.04488802  1
  H+  H216  1  0.93297101  0.85171954  0.21779739  1
  H+  H217  1  0.39258620  0.10790371  0.51948676  1
  H+  H218  1  0.54687595  0.12505526  0.83575989  1
  H+  H219  1  0.75914294  0.62000149  0.01331435  1
  H+  H220  1  0.09872522  0.87801975  0.48866909  1
  H+  H221  1  0.99066579  0.11879490  0.99284671  1
  H+  H222  1  0.15089139  0.27779021  0.84042298  1
  H+  H223  1  0.47142465  0.34798530  0.99542513  1
  H+  H224  1  0.39577236  0.87334343  0.99003334  1
  H+  H225  1  0.47481821  0.34722776  0.32587225  1
  H+  H226  1  0.94380654  0.85865082  0.64619610  1
  H+  H227  1  0.25161785  0.88582708  0.67966350  1
  H+  H228  1  0.37749843  0.51763724  0.32647930  1
  H+  H229  1  0.58373879  0.70066607  0.65914593  1
  H+  H230  1  0.36806579  0.70020961  0.13860101  1
  H+  H231  1  0.76123479  0.27992684  0.62236979  1
  H+  H232  1  0.49444197  0.89718582  0.64156875  1
  H+  H233  1  0.82819660  0.64485398  0.75882983  1
  H+  H234  1  0.63028737  0.73026911  0.81432468  1
  H+  H235  1  0.74420712  0.11943560  0.85900157  1
  H+  H236  1  0.39447017  0.68093327  0.68550279  1
  H+  H237  1  0.58477892  0.16015409  0.07907525  1
  H+  H238  1  0.74522024  0.13641958  0.33929798  1
  H+  H239  1  0.10740339  0.11381503  0.66484639  1
  H+  H240  1  0.75342360  0.90215246  0.98181152  1
  H+  H241  1  0.88330497  0.59379266  0.83618165  1
  H+  H242  1  0.60604326  0.36880943  0.34216524  1
  H+  H243  1  0.35313296  0.63536217  0.48888220  1
  H+  H244  1  0.12787083  0.14120132  0.16282907  1
  H+  H245  1  0.87605236  0.27165592  0.50131404  1
  H+  H246  1  0.91186168  0.36853491  1.01798922  1
  H+  H247  1  0.86572908  0.76647172  0.29619232  1
  H+  H248  1  0.93113233  0.90038289  0.80475389  1
  H+  H249  1  0.12242550  0.23072369  1.01084023  1
  H+  H250  1  0.64534761  0.35782376  0.18533400  1
  H+  H251  1  0.38095841  0.26179124  0.32261887  1
  H+  H252  1  0.61560447  0.22174803  0.17426455  1
  H+  H253  1  0.47432234  0.10712348  0.33369979  1
  H+  H254  1  0.60274697  0.16417774  0.77406469  1
  H+  H255  1  0.48049294  0.10663969  0.00477586  1
  H+  H256  1  0.00011674  0.86828856  0.33975186  1
  H+  H257  1  0.08279612  0.86297189  0.65991084  1
  H+  H258  1  0.80055936  0.89977337  0.81203766  1
  H+  H259  1  0.16723862  0.34087677  0.26929759  1
  H+  H260  1  0.90094060  0.12566495  0.84101746  1
  H+  H261  1  0.88720721  0.24659051  0.85704157  1
  H+  H262  1  0.71020800  0.85927320  0.48320550  1
  H+  H263  1  0.36949852  0.38243194  0.00648752  1
  H+  H264  1  0.62105276  0.15295136  0.49031624  1
  H+  H265  1  0.83761286  0.91487322  0.40386849  1
  H+  H266  1  0.11920179  0.52211013  0.31433456  1
  H+  H267  1  0.89268711  0.17573057  0.33502543  1
  H+  H268  1  0.57371992  0.65294959  0.25119072  1
  H+  H269  1  0.88647645  0.53350149  0.32518632  1
  H+  H270  1  0.72965384  0.35547435  0.85146093  1
  H+  H271  1  0.35689256  0.97091553  0.49024461  1
  H+  H272  1  0.21550566  0.09401375  0.32438648  1
  H+  H273  1  0.41705476  0.08002375  0.24526592  1
  H+  H274  1  0.15663531  0.57592415  0.25363669  1
  H+  H275  1  0.91213332  0.37325103  0.86732947  1
  H+  H276  1  0.61291663  0.44342685  0.01645824  1
  H+  H277  1  0.89540687  0.37123073  0.19737035  1
  H+  H278  1  0.49015221  0.08124480  0.65573159  1
  H+  H279  1  0.21528562  0.60344384  0.50451021  1
  H+  H280  1  0.72912305  0.84791252  0.33697044  1
  H+  H281  1  0.38904426  1.01925124  0.00279246  1
  H+  H282  1  0.21054807  0.88053053  0.33637914  1
  H+  H283  1  0.38210215  0.50752831  0.17515654  1
  H+  H284  1  0.16609249  0.98238702  0.78322676  1
  H+  H285  1  0.87162683  0.94721323  0.33281441  1
  H+  H286  1  0.31790954  0.20762942  0.82472680  1
  H+  H287  1  0.12069268  0.01048264  0.31987731  1
  H+  H288  1  0.36092608  0.60911020  0.15454874  1
  H+  H289  1  0.91947604  0.58842315  0.23462654  1
  H+  H290  1  0.67825886  0.32860885  0.24257736  1
  H+  H291  1  0.16218099  0.08450264  0.95322139  1
  H+  H292  1  0.60573243  0.42131164  0.11988114  1
  H+  H293  1  0.84908590  0.18202734  0.42917076  1
  H+  H294  1  0.64381466  0.03883905  0.48482073  1
  H+  H295  1  0.88596094  0.83263243  0.58770713  1
  H+  H296  1  0.37659003  0.13161974  1.01014371  1
  H+  H297  1  0.58159238  0.17134134  0.40219934  1
  H+  H298  1  0.21223414  0.09990130  0.65594119  1
  H+  H299  1  0.42910812  0.06259466  0.56520088  1
  H+  H300  1  0.43943358  0.84517212  0.89915315  1
  H+  H301  1  0.69984333  0.84618990  0.88584346  1
  H+  H302  1  0.33265745  0.25608315  0.66805201  1
  H+  H303  1  0.85253547  0.17030546  0.70034614  1
  H+  H304  1  0.36741005  0.97757217  0.17031754  1
  H+  H305  1  0.67929126  0.32405584  0.94646429  1
  H+  H306  1  0.69625913  0.93505343  0.94639114  1
  H+  H307  1  0.31936571  0.90430102  0.73527301  1
  H+  H308  1  0.62959430  0.28626880  0.50542311  1
  H+  H309  1  0.09545133  0.16697090  0.39681566  1
  H+  H310  1  0.40443357  0.35093927  0.57287228  1
  H+  H311  1  0.67562198  0.83150900  0.27666686  1
  H+  H312  1  0.65995402  0.58000865  0.88862327  1
  H+  H313  1  0.08100225  0.66199925  0.73105041  1
  H+  H314  1  0.39692261  0.56974080  0.23394475  1
  H+  H315  1  0.34894473  0.80303165  0.56788119  1
  H+  H316  1  0.08455418  0.66470926  0.42872219  1
  H+  H317  1  0.03918815  0.88320249  0.71567985  1
  H+  H318  1  0.83331259  0.43279451  0.40664585  1
  H+  H319  1  0.85046297  0.39912463  0.79149155  1
  H+  H320  1  0.95042023  0.36581108  0.28851506  1
  H+  H321  1  0.86713531  0.63519233  0.16505353  1
  H+  H322  1  0.32473320  0.16293557  0.39650420  1
  H+  H323  1  0.89361643  0.51229848  0.99940786  1
  H+  H324  1  1.00180942  0.37401800  0.85925150  1
  H+  H325  1  0.05015053  0.01241530  0.90615704  1
  H+  H326  1  -0.00986472  0.87024874  0.15984900  1
  H+  H327  1  0.87031065  0.89679995  0.14914005  1
  H+  H328  1  0.50759961  0.38081854  0.67324913  1
  H+  H329  1  0.73333863  0.60656258  0.19203502  1
  H+  H330  1  0.09005503  0.16795833  0.10788382  1
  H+  H331  1  0.83862008  0.92701130  0.05290228  1
  H+  H332  1  0.12931376  0.77116659  0.50044982  1
  H+  H333  1  0.17147200  0.33972322  0.55541160  1
  H+  H334  1  0.09667301  0.16653678  0.76718516  1
  H+  H335  1  0.84122429  0.94458434  0.71921842  1
  H+  H336  1  0.93597002  0.09004986  0.93055150  1
  H+  H337  1  0.43881277  0.85777316  0.26910264  1
  H+  H338  1  0.67158806  0.07947628  0.94722181  1
  H+  H339  1  0.41966659  0.31946671  0.23598459  1
  H+  H340  1  0.64582706  0.80617459  0.57326100  1
  H+  H341  1  0.67987530  0.57272179  0.29391283  1
  H+  H342  1  0.51979770  0.62195652  0.19160244  1
  H+  H343  1  0.48360378  0.35004664  0.17710489  1
  H+  H344  1  0.16492963  0.83322235  0.23573490  1
  H+  H345  1  0.88197951  0.99545563  0.81364728  1
  H+  H346  1  0.58294406  0.91767976  0.12299760  1
  H+  H347  1  0.34943984  0.16401568  0.07047053  1
  H+  H348  1  0.89540497  0.26401705  0.34927762  1
  H+  H349  1  0.09442252  0.91589339  0.09628104  1
  H+  H350  1  0.08193388  0.66852191  0.09911860  1
  H+  H351  1  0.40372053  0.57157555  0.55283993  1
  H+  H352  1  0.40927952  0.56983711  0.92039273  1
  H+  H353  1  0.65382049  0.33902269  0.56798177  1
  H+  H354  1  0.34553603  0.41437235  0.10377578  1
  H+  H355  1  0.96203103  0.87840717  0.86456869  1
  H+  H356  1  0.82643883  0.17261451  0.11596982  1
  H+  H357  1  0.54022050  0.90916823  0.37141884  1
  H+  H358  1  0.57729352  0.66386925  0.76099630  1
  H+  H359  1  0.32755793  0.91218376  0.42775748  1
  H+  H360  1  0.91610238  0.57516178  0.90072333  1
  H+  H361  1  0.94659878  0.33975894  0.96117596  1
  H+  H362  1  0.15040278  0.82591353  0.59632356  1
  H+  H363  1  0.06374003  0.90976244  0.39628712  1
  H+  H364  1  0.46295030  0.60891749  0.32327855  1
  H+  H365  1  0.32673788  0.63268774  0.06060950  1
  H+  H366  1  0.62843896  0.93270482  0.76447959  1
  H+  H367  1  0.61290163  0.76781109  -0.04435981  1
  H+  H368  1  0.16098496  0.57105117  0.59932804  1
  H+  H369  1  0.87401210  0.77907394  0.49154898  1
  H+  H370  1  0.04788819  0.41183436  0.39490378  1
  H+  H371  1  0.80793249  0.46131897  0.72334889  1
  H+  H372  1  0.33299020  0.41739794  0.42289336  1
  H+  H373  1  0.84925256  0.41511366  0.08081159  1
  H+  H374  1  0.92801380  0.08672455  0.54663183  1
  H+  H375  1  0.10551532  0.97003482  0.48871034  1
  H+  H376  1  0.44216537  0.06456185  0.90730310  1
  H+  H377  1  0.33555373  0.91217954  0.07248816  1
  H+  H378  1  0.97833143  0.61475457  0.17353899  1
  H+  H379  1  0.84373202  0.20522401  0.79520874  1
  H+  H380  1  0.67147344  0.08635822  0.54964647  1
  H+  H381  1  0.42699342  0.21706927  0.46010851  1
  H+  H382  1  0.56509398  0.65636945  0.41769978  1
  H+  H383  1  0.64452874  0.27151032  0.33305101  1
  O2-  O384  1  0.09130627  0.16568007  0.15297619  1
  O2-  O385  1  0.09464104  0.16961375  0.47416059  1
  O2-  O386  1  0.09205334  0.17479843  0.81127676  1
  O2-  O387  1  0.12115047  0.42677419  0.10465267  1
  O2-  O388  1  0.06418620  0.41375225  0.47451600  1
  O2-  O389  1  0.10055774  0.42106727  0.82193412  1
  O2-  O390  1  0.08424286  0.66450843  0.14441271  1
  O2-  O391  1  0.08111398  0.66602752  0.47424824  1
  O2-  O392  1  0.08569028  0.66609342  0.81179852  1
  O2-  O393  1  0.09387646  0.91876868  0.14232442  1
  O2-  O394  1  0.06947273  0.90989386  0.47360293  1
  O2-  O395  1  0.13483266  0.94816122  0.81849922  1
  O2-  O396  1  0.34551500  0.16380754  0.15756993  1
  O2-  O397  1  0.36958840  0.19771897  0.47642086  1
  O2-  O398  1  0.26005127  0.17072566  0.80876673  1
  O2-  O399  1  0.34642580  0.41519482  0.14880841  1
  O2-  O400  1  0.33043725  0.42087763  0.46897256  1
  O2-  O401  1  0.34545888  0.40758950  0.80509925  1
  O2-  O402  1  0.33177702  0.63882274  0.13126218  1
  O2-  O403  1  0.31948618  0.66360137  0.47586828  1
  O2-  O404  1  0.33767635  0.67132778  0.81802378  1
  O2-  O405  1  0.33926857  0.91622774  0.15728467  1
  O2-  O406  1  0.32045584  0.91055404  0.47544974  1
  O2-  O407  1  0.34161628  0.90509827  0.81048730  1
  O2-  O408  1  0.58069340  0.16046254  0.15990450  1
  O2-  O409  1  0.58607531  0.18027489  0.47943870  1
  O2-  O410  1  0.60691768  0.16691159  0.81929713  1
  O2-  O411  1  0.58927685  0.41165241  0.16346456  1
  O2-  O412  1  0.57539142  0.43096960  0.49540061  1
  O2-  O413  1  0.58108752  0.39715356  0.82672695  1
  O2-  O414  1  0.58063596  0.65308182  0.20645480  1
  O2-  O415  1  0.56967799  0.66247273  0.46288392  1
  O2-  O416  1  0.58875311  0.66811125  0.80615718  1
  O2-  O417  1  0.58937689  0.91720507  0.16814158  1
  O2-  O418  1  0.59116018  0.93977980  0.45206135  1
  O2-  O419  1  0.61617799  0.92458968  0.80876425  1
  O2-  O420  1  0.82847386  0.16675059  0.16403447  1
  O2-  O421  1  0.84339726  0.17332717  0.47458227  1
  O2-  O422  1  0.85087807  0.18897621  0.83610051  1
  O2-  O423  1  0.84447629  0.41750942  0.15683724  1
  O2-  O424  1  0.82676401  0.43031141  0.48443867  1
  O2-  O425  1  0.84324714  0.40643306  0.83467009  1
  O2-  O426  1  0.83030748  0.65978947  0.14994485  1
  O2-  O427  1  0.82410935  0.67030957  0.46877761  1
  O2-  O428  1  0.82403051  0.62379690  0.80116295  1
  O2-  O429  1  0.83569853  0.92388566  0.13807278  1
  O2-  O430  1  0.83161721  0.92366534  0.46853358  1
  O2-  O431  1  0.85689205  0.93830456  0.79232966  1
  O2-  O432  1  0.18902592  0.08232861  0.18444372  1
  O2-  O433  1  0.16904767  0.07510052  0.51610612  1
  O2-  O434  1  0.10544471  0.05959161  0.88940590  1
  O2-  O435  1  0.12263237  0.31745159  0.20019377  1
  O2-  O436  1  0.16269780  0.34029398  0.51089662  1
  O2-  O437  1  0.18500918  0.33861315  0.85510659  1
  O2-  O438  1  0.16048295  0.57129210  0.17046966  1
  O2-  O439  1  0.15599415  0.57530169  0.52203604  1
  O2-  O440  1  0.17183694  0.58587008  0.86259334  1
  O2-  O441  1  0.16813790  0.83074915  0.19062362  1
  O2-  O442  1  0.15446482  0.83125059  0.51645387  1
  O2-  O443  1  0.18030716  0.83174013  0.85879446  1
  O2-  O444  1  0.41793189  0.08402005  0.19894255  1
  O2-  O445  1  0.42211778  0.07445188  0.52038404  1
  O2-  O446  1  0.46195540  0.05697227  0.86703133  1
  O2-  O447  1  0.42117050  0.31602720  0.18924326  1
  O2-  O448  1  0.41290172  0.35028030  0.52683446  1
  O2-  O449  1  0.42530734  0.32533970  0.85394469  1
  O2-  O450  1  0.40567255  0.57008209  0.18868879  1
  O2-  O451  1  0.40575284  0.58128523  0.50831837  1
  O2-  O452  1  0.41518812  0.57424471  0.84371678  1
  O2-  O453  1  0.43011315  0.84858709  0.22309079  1
  O2-  O454  1  0.37345518  0.81736958  0.52251126  1
  O2-  O455  1  0.43788239  0.83632687  0.85336260  1
  O2-  O456  1  0.66934149  0.08484553  0.20608273  1
  O2-  O457  1  0.67548858  0.09678477  0.50482587  1
  O2-  O458  1  0.68190183  0.08115488  0.86709246  1
  O2-  O459  1  0.67635689  0.32684865  0.19653173  1
  O2-  O460  1  0.65690887  0.34601134  0.52225508  1
  O2-  O461  1  0.66840729  0.32507724  0.86458073  1
  O2-  O462  1  0.67670778  0.57270478  0.21299658  1
  O2-  O463  1  0.65638317  0.58689726  0.50720135  1
  O2-  O464  1  0.65290021  0.56388548  0.84497911  1
  O2-  O465  1  0.67819403  0.83288437  0.19475258  1
  O2-  O466  1  0.64917641  0.83141908  0.49570656  1
  O2-  O467  1  0.69339654  0.83582195  0.84126812  1
  O2-  O468  1  0.89860501  0.08455503  0.18564984  1
  O2-  O469  1  0.92509796  0.08580218  0.50101011  1
  O2-  O470  1  0.92873309  0.09087135  0.84873958  1
  O2-  O471  1  0.92273227  0.34289695  0.21977754  1
  O2-  O472  1  0.89963548  0.33206793  0.51735097  1
  O2-  O473  1  0.94489564  0.34478682  0.88070599  1
  O2-  O474  1  0.91759652  0.58609764  0.18794540  1
  O2-  O475  1  0.91527266  0.60021815  0.51217871  1
  O2-  O476  1  0.91891164  0.57047925  0.85558921  1
  O2-  O477  1  0.92811210  0.84176146  0.17404563  1
  O2-  O478  1  0.90445647  0.83781979  0.50931638  1
  O2-  O479  1  0.96785519  0.87727556  0.81972105  1
  O2-  O480  1  0.15795186  0.07026461  0.30451169  1
  O2-  O481  1  0.15630501  0.05987840  0.63568804  1
  O2-  O482  1  0.17735748  0.08753458  0.99766329  1
  O2-  O483  1  0.18355840  0.34299058  0.31326765  1
  O2-  O484  1  0.18364011  0.31886577  0.63710884  1
  O2-  O485  1  0.17898094  0.33770810  0.98066516  1
  O2-  O486  1  0.15624319  0.58126260  0.29875263  1
  O2-  O487  1  0.16195898  0.56910776  0.64524147  1
  O2-  O488  1  0.17080035  0.58232380  0.98349136  1
  O2-  O489  1  0.15651571  0.84117525  0.31582361  1
  O2-  O490  1  0.14496357  0.82516789  0.64169233  1
  O2-  O491  1  0.17381063  0.83488893  0.98199534  1
  O2-  O492  1  0.41327035  0.07506667  0.31924314  1
  O2-  O493  1  0.44507837  0.03826216  0.62897847  1
  O2-  O494  1  0.42156675  0.07974764  0.98675251  1
  O2-  O495  1  0.41477147  0.32142613  0.30683871  1
  O2-  O496  1  0.39746229  0.34581058  0.64678282  1
  O2-  O497  1  0.41318829  0.31960744  0.97922427  1
  O2-  O498  1  0.40144048  0.57857645  0.31114394  1
  O2-  O499  1  0.39633765  0.54722263  0.63432558  1
  O2-  O500  1  0.41489961  0.57728215  0.96596585  1
  O2-  O501  1  0.44159301  0.85320449  0.34213132  1
  O2-  O502  1  0.31104046  0.77962214  0.62668679  1
  O2-  O503  1  0.43025002  0.84923839  0.97277315  1
  O2-  O504  1  0.68355594  0.09958360  0.32853756  1
  O2-  O505  1  0.67616752  0.08195438  0.62864676  1
  O2-  O506  1  0.66917213  0.07760192  0.99265408  1
  O2-  O507  1  0.67416699  0.33177910  0.31713379  1
  O2-  O508  1  0.65059908  0.32928214  0.64359587  1
  O2-  O509  1  0.68637033  0.32236214  0.99129072  1
  O2-  O510  1  0.66400917  0.57183432  0.33749547  1
  O2-  O511  1  0.64675073  0.56314169  0.66174220  1
  O2-  O512  1  0.66483766  0.61508416  0.96847427  1
  O2-  O513  1  0.66965167  0.81976999  0.32105340  1
  O2-  O514  1  0.64726763  0.79505498  0.61791641  1
  O2-  O515  1  0.69308631  0.88263136  0.96200579  1
  O2-  O516  1  0.93934367  0.11645827  0.30728277  1
  O2-  O517  1  0.93453867  0.09447841  0.62266630  1
  O2-  O518  1  0.93131015  0.08782073  0.97547020  1
  O2-  O519  1  0.95354532  0.37135819  0.33540074  1
  O2-  O520  1  0.82200766  0.30936308  0.63357160  1
  O2-  O521  1  0.94431831  0.33825986  1.00641481  1
  O2-  O522  1  0.91766146  0.59115277  0.30602933  1
  O2-  O523  1  0.91742673  0.59895845  0.63563174  1
  O2-  O524  1  0.91407052  0.57057337  0.98111812  1
  O2-  O525  1  0.89182992  0.79421054  0.33467376  1
  O2-  O526  1  0.88303169  0.83466459  0.63301724  1
  O2-  O527  1  0.97122937  0.91792521  0.94264910  1
  O2-  O528  1  0.08996541  0.17097320  0.02674440  1
  O2-  O529  1  0.09149042  0.16714583  0.35129677  1
  O2-  O530  1  0.08785849  0.15378372  0.68009113  1
  O2-  O531  1  0.10722453  0.42926390  0.03889256  1
  O2-  O532  1  0.04620487  0.41540136  0.34919773  1
  O2-  O533  1  0.10972508  0.41163808  0.69311637  1
  O2-  O534  1  0.08098257  0.66738249  0.02046512  1
  O2-  O535  1  0.08445469  0.66949543  0.35076126  1
  O2-  O536  1  0.07896140  0.66113529  0.68554662  1
  O2-  O537  1  0.09234908  0.91903962  0.02139554  1
  O2-  O538  1  0.06141597  0.90785901  0.35053570  1
  O2-  O539  1  0.05141914  0.89468732  0.67234073  1
  O2-  O540  1  0.34819063  0.16525155  0.02565197  1
  O2-  O541  1  0.32036413  0.15166951  0.35227466  1
  O2-  O542  1  0.27844209  0.20028830  0.68384833  1
  O2-  O543  1  0.34338498  0.41600576  0.02232637  1
  O2-  O544  1  0.33849255  0.41772194  0.34917477  1
  O2-  O545  1  0.35504177  0.39247186  0.67312276  1
  O2-  O546  1  0.32302800  0.63611984  0.01416341  1
  O2-  O547  1  0.32284628  0.66631420  0.35263000  1
  O2-  O548  1  0.33517664  0.66328725  0.69601836  1
  O2-  O549  1  0.33617881  0.91700117  0.02756352  1
  O2-  O550  1  0.34579236  0.91741772  0.36152326  1
  O2-  O551  1  0.31242105  0.90567320  0.68995529  1
  O2-  O552  1  0.58445111  0.15822873  0.03366217  1
  O2-  O553  1  0.58144515  0.16730644  0.35666441  1
  O2-  O554  1  0.59595384  0.16193936  0.69176427  1
  O2-  O555  1  0.65097756  0.43841913  0.04564327  1
  O2-  O556  1  0.56605670  0.38813581  0.35704200  1
  O2-  O557  1  0.56661715  0.39872326  0.68721383  1
  O2-  O558  1  0.58396995  0.70574034  -0.05451208  1
  O2-  O559  1  0.57471830  0.65676541  0.33774557  1
  O2-  O560  1  0.55486820  0.64959963  0.68621579  1
  O2-  O561  1  0.58370846  0.91885328  0.04239999  1
  O2-  O562  1  0.60194759  0.94409106  0.38558435  1
  O2-  O563  1  0.66812759  0.93844846  0.68351429  1
  O2-  O564  1  0.82721699  0.17559274  0.05068444  1
  O2-  O565  1  0.85984782  0.20019045  0.35485276  1
  O2-  O566  1  0.84918134  0.17918823  0.65697528  1
  O2-  O567  1  0.85301935  0.41366550  0.03492709  1
  O2-  O568  1  0.83673836  0.42914574  0.36137104  1
  O2-  O569  1  0.82120590  0.44695160  0.68359593  1
  O2-  O570  1  0.78529775  0.59285910  0.03763968  1
  O2-  O571  1  0.82043723  0.65099625  0.40339848  1
  O2-  O572  1  0.82187849  0.66842192  0.68156678  1
  O2-  O573  1  0.84102663  0.93197361  0.00790865  1
  O2-  O574  1  0.83549092  0.89727886  0.35766806  1
  O2-  O575  1  0.82870521  0.94342886  0.67425593  1
