# generated using pymatgen
data_H2O
_symmetry_space_group_name_H-M   'P 1'
_cell_length_a   17.98159294
_cell_length_b   17.97766864
_cell_length_c   21.99993109
_cell_angle_alpha   89.99948465
_cell_angle_beta   89.99669056
_cell_angle_gamma   120.01201431
_symmetry_Int_Tables_number   1
_chemical_formula_structural   H2O
_chemical_formula_sum   'H384 O192'
_cell_volume   6158.30074651
_cell_formula_units_Z   192
loop_
 _symmetry_equiv_pos_site_id
 _symmetry_equiv_pos_as_xyz
  1  'x, y, z'
loop_
 _atom_type_symbol
 _atom_type_oxidation_number
  H+  1.0
  O2-  -2.0
loop_
 _atom_site_type_symbol
 _atom_site_label
 _atom_site_symmetry_multiplicity
 _atom_site_fract_x
 _atom_site_fract_y
 _atom_site_fract_z
 _atom_site_occupancy
  H+  H0  1  0.37034558  0.73014479  0.15759374  1
  H+  H1  1  0.23588941  0.61771764  0.16993372  1
  H+  H2  1  0.77184353  0.13860311  0.82448858  1
  H+  H3  1  0.73684110  0.15040518  0.65748576  1
  H+  H4  1  0.50208578  0.88415734  0.01035481  1
  H+  H5  1  0.87444716  -0.00506179  0.82653121  1
  H+  H6  1  0.97431884  0.86082684  0.50742173  1
  H+  H7  1  0.89688485  0.83098996  0.91915683  1
  H+  H8  1  0.02137087  0.12514243  0.14824610  1
  H+  H9  1  0.11714226  0.72789402  0.49356166  1
  H+  H10  1  0.89316771  0.11503093  0.15681070  1
  H+  H11  1  0.98256720  0.37030844  0.50187323  1
  H+  H12  1  0.64947121  0.27013170  0.97422612  1
  H+  H13  1  0.15653162  0.32594992  0.20120399  1
  H+  H14  1  0.88435437  0.52602859  0.32724136  1
  H+  H15  1  0.37075158  0.38968536  0.34429400  1
  H+  H16  1  0.36457381  0.48606502  -0.00859881  1
  H+  H17  1  0.36837387  0.48341349  0.67429797  1
  H+  H18  1  -0.01654493  0.10377815  0.33680978  1
  H+  H19  1  0.75112127  0.61255043  0.32303448  1
  H+  H20  1  0.35615569  0.22398520  0.67457581  1
  H+  H21  1  0.35800354  0.27226768  1.01367346  1
  H+  H22  1  0.61039002  0.15687447  0.67532917  1
  H+  H23  1  0.90803055  0.07998729  0.57460173  1
  H+  H24  1  0.88332878  0.28620630  0.99517793  1
  H+  H25  1  0.13391232  0.76574703  0.83980670  1
  H+  H26  1  0.64211226  0.53287577  0.51060666  1
  H+  H27  1  0.13724417  0.10744914  0.17121938  1
  H+  H28  1  0.70616253  0.28626572  0.55622594  1
  H+  H29  1  0.87297212  0.23704830  0.50668845  1
  H+  H30  1  0.40055258  0.53073190  0.33348673  1
  H+  H31  1  0.12810390  0.48127113  -0.00412962  1
  H+  H32  1  0.10926835  0.87907482  0.49166827  1
  H+  H33  1  0.13848489  0.48444131  0.34087971  1
  H+  H34  1  0.93578306  0.39970797  0.64735025  1
  H+  H35  1  0.13932821  0.35435171  0.36345822  1
  H+  H36  1  0.73695242  0.36066775  0.51030882  1
  H+  H37  1  0.86994481  0.48041724  0.49812898  1
  H+  H38  1  0.16899210  0.08392210  0.26921564  1
  H+  H39  1  0.52603170  0.14087948  0.14094586  1
  H+  H40  1  0.33458465  0.90913651  0.76676171  1
  H+  H41  1  0.96874418  0.10589596  0.51480800  1
  H+  H42  1  0.07729802  0.89519632  -0.00505753  1
  H+  H43  1  0.41135418  0.07349094  0.06956572  1
  H+  H44  1  0.51301832  0.88460303  0.84486675  1
  H+  H45  1  0.27418305  0.13156284  0.16156196  1
  H+  H46  1  0.63263340  0.85958285  0.51146911  1
  H+  H47  1  0.52613222  0.63963024  -0.01394943  1
  H+  H48  1  0.37989117  0.10185485  0.12752754  1
  H+  H49  1  0.13296375  1.01124189  0.66553703  1
  H+  H50  1  0.92379464  0.83014827  0.25736802  1
  H+  H51  1  0.77053359  0.88349648  0.15047712  1
  H+  H52  1  0.88308220  0.08456048  0.33765789  1
  H+  H53  1  0.36985237  0.72770728  0.70417997  1
  H+  H54  1  0.27816142  0.86342974  0.98848839  1
  H+  H55  1  0.08198447  0.66176363  0.76569067  1
  H+  H56  1  0.46720670  0.35688870  0.50990335  1
  H+  H57  1  0.88959541  -0.00502517  0.32288049  1
  H+  H58  1  0.09620176  0.20009770  0.00100877  1
  H+  H59  1  0.13676757  0.60450798  0.83442318  1
  H+  H60  1  0.66870488  0.58636871  0.60634691  1
  H+  H61  1  0.04568221  0.40496873  0.33453988  1
  H+  H62  1  0.17847695  0.32684818  0.56760691  1
  H+  H63  1  0.13904722  0.01974549  0.17408092  1
  H+  H64  1  0.64890272  0.78511216  0.31977428  1
  H+  H65  1  0.38836175  0.61051406  0.67866774  1
  H+  H66  1  0.90242632  0.26785577  0.34850549  1
  H+  H67  1  0.18006610  0.87494996  0.99033331  1
  H+  H68  1  0.41882042  0.24634299  0.89656790  1
  H+  H69  1  0.10747111  0.96503993  0.83049683  1
  H+  H70  1  0.89024552  0.61569718  0.50720612  1
  H+  H71  1  0.52206095  0.13179165  0.49408257  1
  H+  H72  1  0.37453670  0.60485709  0.51183835  1
  H+  H73  1  0.27852898  0.64783997  0.49532786  1
  H+  H74  1  0.11327081  0.38862456  0.14278742  1
  H+  H75  1  0.37968911  0.35438338  0.51391865  1
  H+  H76  1  0.36779498  0.22194649  0.33704431  1
  H+  H77  1  0.71580870  0.13594567  0.31811835  1
  H+  H78  1  0.83127788  0.86929431  0.99406738  1
  H+  H79  1  0.02414504  0.87925392  0.67616876  1
  H+  H80  1  1.02151387  0.13309809  0.64827365  1
  H+  H81  1  0.04497122  0.39042914  0.67095687  1
  H+  H82  1  0.77217360  0.39297879  0.14519963  1
  H+  H83  1  0.02440385  0.63172837  0.16444950  1
  H+  H84  1  0.49189178  0.38345806  -0.00227788  1
  H+  H85  1  0.37821176  0.76775597  0.86013974  1
  H+  H86  1  0.88798055  0.36157224  0.50806810  1
  H+  H87  1  0.63299733  0.24978144  0.33948318  1
  H+  H88  1  0.64258846  0.12067394  0.17158830  1
  H+  H89  1  0.11523781  0.63215335  0.16289621  1
  H+  H90  1  0.71963027  0.85710511  0.51639503  1
  H+  H91  1  0.61279163  0.63867722  0.67931436  1
  H+  H92  1  0.39668077  0.87197857  0.50724914  1
  H+  H93  1  0.63647106  0.62900860  0.15933789  1
  H+  H94  1  -0.01175696  0.12542456  0.82702696  1
  H+  H95  1  0.36706963  0.87768973  0.14743919  1
  H+  H96  1  0.85954736  0.73000472  0.82759076  1
  H+  H97  1  1.02788065  0.63894105  0.49705673  1
  H+  H98  1  0.37346345  0.40428989  0.99576423  1
  H+  H99  1  0.03248675  0.38127555  0.82550770  1
  H+  H100  1  0.62614958  0.02743760  0.83539490  1
  H+  H101  1  0.87863916  0.23839803  0.67403144  1
  H+  H102  1  0.84236517  0.67475913  0.40167595  1
  H+  H103  1  0.03037536  0.88908454  0.33499051  1
  H+  H104  1  0.50689709  0.78023264  0.72495143  1
  H+  H105  1  0.52848869  0.64981950  0.15789252  1
  H+  H106  1  0.36954540  0.63177176  0.85591611  1
  H+  H107  1  0.88100056  0.21989933  0.34498447  1
  H+  H108  1  0.27049944  0.87910360  0.82422385  1
  H+  H109  1  0.64432067  0.52116420  0.84339480  1
  H+  H110  1  0.11296898  0.12892704  0.34954496  1
  H+  H111  1  0.14687293  0.52816821  0.16823317  1
  H+  H112  1  0.14656002  0.27202304  0.65665533  1
  H+  H113  1  0.76927025  0.38725839  -0.01339702  1
  H+  H114  1  0.22728564  0.85486923  0.15916550  1
  H+  H115  1  0.14269365  0.77092500  0.65961790  1
  H+  H116  1  0.15276602  0.52767051  0.66867052  1
  H+  H117  1  0.36148071  -0.02972773  0.67422286  1
  H+  H118  1  0.88842354  0.37112346  0.15588703  1
  H+  H119  1  0.47852714  0.83626209  0.68098102  1
  H+  H120  1  0.88602621  0.87181135  0.83365727  1
  H+  H121  1  0.61245625  0.21924710  0.48989026  1
  H+  H122  1  0.77985688  0.63876185  0.49647677  1
  H+  H123  1  0.78332412  0.90571654  0.83147017  1
  H+  H124  1  0.38622079  0.11199684  0.50635390  1
  H+  H125  1  0.15436897  0.35920660  0.83782572  1
  H+  H126  1  0.78066993  0.14595215  0.15985062  1
  H+  H127  1  0.52844756  0.63873522  0.84138683  1
  H+  H128  1  0.15297351  -0.00927524  1.00211711  1
  H+  H129  1  0.10930607  0.96742865  0.49266358  1
  H+  H130  1  0.88781475  0.86696791  0.66448761  1
  H+  H131  1  0.88072063  0.40706508  0.33566609  1
  H+  H132  1  0.37854631  0.38097072  0.85244803  1
  H+  H133  1  0.88697478  0.61444760  0.16899531  1
  H+  H134  1  0.61362341  0.48702730  0.00548829  1
  H+  H135  1  0.02578603  0.63158222  0.67343896  1
  H+  H136  1  0.61665736  0.64416615  0.99822721  1
  H+  H137  1  0.91956612  0.35567450  0.77442481  1
  H+  H138  1  0.85004591  0.96746028  0.50368860  1
  H+  H139  1  0.27371883  0.25072525  0.04911302  1
  H+  H140  1  0.87346180  0.88282401  0.32029300  1
  H+  H141  1  0.77395731  0.64245687  0.15045335  1
  H+  H142  1  0.48210275  0.87037583  0.17215944  1
  H+  H143  1  0.02714452  0.62182048  0.34112609  1
  H+  H144  1  0.46837499  0.36544068  0.17265927  1
  H+  H145  1  0.38534029  0.27135322  0.17538156  1
  H+  H146  1  0.36353377  0.77787632  0.63295761  1
  H+  H147  1  0.60783966  0.67500782  0.43350830  1
  H+  H148  1  0.47687323  0.61026764  0.67052540  1
  H+  H149  1  0.52175316  0.47650810  0.45633279  1
  H+  H150  1  0.61991463  0.84679697  0.67046772  1
  H+  H151  1  0.11979339  0.47007846  0.82969295  1
  H+  H152  1  0.63749836  0.52965023  0.66817748  1
  H+  H153  1  0.78242828  0.38055810  0.34956355  1
  H+  H154  1  0.62804329  0.01869837  0.98864844  1
  H+  H155  1  0.01948993  0.53170582  0.04142349  1
  H+  H156  1  0.66928873  0.58888047  0.93284087  1
  H+  H157  1  0.88969512  0.77479566  0.16294688  1
  H+  H158  1  0.64670738  1.02785838  0.50532097  1
  H+  H159  1  0.88453589  0.52466595  0.16592844  1
  H+  H160  1  0.88719553  0.11590557  0.66651274  1
  H+  H161  1  0.11058115  0.21573292  0.36521340  1
  H+  H162  1  0.14188193  0.02409675  0.32834046  1
  H+  H163  1  0.85407008  0.88151730  0.50049831  1
  H+  H164  1  0.53124684  0.89687463  0.49384442  1
  H+  H165  1  0.60914219  0.11920317  0.33271397  1
  H+  H166  1  0.39353890  0.78147490  0.32683748  1
  H+  H167  1  0.64087292  0.78221960  0.84230523  1
  H+  H168  1  0.09852335  0.33761451  -0.01777728  1
  H+  H169  1  0.62948727  0.27846063  0.15960527  1
  H+  H170  1  0.08350365  0.16663590  0.59257943  1
  H+  H171  1  0.78416362  0.88973540  0.32041911  1
  H+  H172  1  0.36542231  0.97898108  0.49251036  1
  H+  H173  1  0.63261450  0.11976638  0.83765034  1
  H+  H174  1  0.11386309  0.87859478  0.67507231  1
  H+  H175  1  0.13588731  0.61941842  0.99481390  1
  H+  H176  1  0.13808502  0.76870049  0.16701127  1
  H+  H177  1  0.38329045  0.01187825  0.33059869  1
  H+  H178  1  0.80790186  0.42680088  0.76763051  1
  H+  H179  1  0.88738572  0.61672112  0.66313439  1
  H+  H180  1  0.53639992  0.64386157  0.33754023  1
  H+  H181  1  0.86579559  0.15490450  -0.00050909  1
  H+  H182  1  0.86756756  0.72871524  0.49645292  1
  H+  H183  1  0.73466638  0.38374896  0.67569066  1
  H+  H184  1  0.35742280  0.22031272  0.49515831  1
  H+  H185  1  0.84031742  0.39643326  0.82433170  1
  H+  H186  1  0.12940724  0.09829362  0.65097746  1
  H+  H187  1  0.48049207  0.87179093  0.32444237  1
  H+  H188  1  0.40333200  0.14162662  -0.01261965  1
  H+  H189  1  0.88599943  0.77706902  0.66328649  1
  H+  H190  1  0.87485940  0.61999870  0.83881526  1
  H+  H191  1  0.86540527  0.14476040  0.82284358  1
  H+  H192  1  0.61799654  -0.01356695  0.15933477  1
  H+  H193  1  0.65177149  0.62464408  0.51036745  1
  H+  H194  1  0.32777260  0.41134128  0.08460754  1
  H+  H195  1  0.29145091  0.64520928  0.33911181  1
  H+  H196  1  0.60775304  0.26980229  0.66555294  1
  H+  H197  1  0.58669124  0.87663093  0.00425859  1
  H+  H198  1  0.48022165  0.35875835  0.32429578  1
  H+  H199  1  0.11072025  0.12852230  0.82470230  1
  H+  H200  1  0.86644465  0.51996497  0.83437781  1
  H+  H201  1  0.62314907  0.76485734  -0.01086074  1
  H+  H202  1  0.87651499  0.52376850  0.66206779  1
  H+  H203  1  0.26668996  0.13307190  0.67054310  1
  H+  H204  1  0.37020090  0.73446474  0.49685332  1
  H+  H205  1  0.87014102  0.51219964  0.98106493  1
  H+  H206  1  0.36695021  0.88262465  0.67224713  1
  H+  H207  1  0.74232523  0.05457877  0.34916292  1
  H+  H208  1  0.97027861  0.11517673  0.98527871  1
  H+  H209  1  0.40332315  0.62159094  0.33351757  1
  H+  H210  1  0.11011504  0.21554855  0.14390251  1
  H+  H211  1  0.60487283  0.48778072  0.15624436  1
  H+  H212  1  0.11680636  0.88272668  0.15710106  1
  H+  H213  1  0.21900503  0.35335001  0.14360900  1
  H+  H214  1  0.85978160  0.88144213  0.14592109  1
  H+  H215  1  0.23149894  0.86002615  0.66092827  1
  H+  H216  1  0.24131449  0.35770874  0.85300810  1
  H+  H217  1  0.77312750  0.63898909  0.67398868  1
  H+  H218  1  0.61939441  0.89905394  0.33327844  1
  H+  H219  1  0.27757166  0.13279826  0.33659416  1
  H+  H220  1  0.12365777  0.22238030  0.82532132  1
  H+  H221  1  0.40241988  0.62520453  0.17801442  1
  H+  H222  1  0.15178490  0.87783006  0.32092986  1
  H+  H223  1  0.46657826  0.11004451  0.66162168  1
  H+  H224  1  0.08419047  0.64607903  0.40122156  1
  H+  H225  1  1.02197738  0.63202231  0.82454443  1
  H+  H226  1  0.34900053  0.37518916  0.14706934  1
  H+  H227  1  -0.02123439  0.86414900  0.16297438  1
  H+  H228  1  0.07907965  0.90470680  0.77126875  1
  H+  H229  1  0.94480827  0.87018600  0.98193557  1
  H+  H230  1  0.36275683  0.96267299  0.12676418  1
  H+  H231  1  0.38734167  0.11143587  0.32980680  1
  H+  H232  1  0.51240456  0.13851836  0.83202242  1
  H+  H233  1  0.48171053  0.10918516  0.33127629  1
  H+  H234  1  0.34366951  0.88887670  0.05596729  1
  H+  H235  1  0.86154509  0.39446759  -0.00329595  1
  H+  H236  1  0.37722303  0.10732723  0.65846860  1
  H+  H237  1  0.14988676  0.36372911  0.66612170  1
  H+  H238  1  0.72922684  0.61892334  0.99199485  1
  H+  H239  1  0.10567860  0.48422229  0.49656354  1
  H+  H240  1  0.86453696  0.63698438  -0.00304131  1
  H+  H241  1  0.61874290  0.37763037  0.34489103  1
  H+  H242  1  0.63938451  0.33119297  0.60560071  1
  H+  H243  1  0.99568308  0.47191217  0.27851105  1
  H+  H244  1  0.10381930  0.11535244  0.50303318  1
  H+  H245  1  0.23700802  0.61806403  0.67687727  1
  H+  H246  1  0.34624643  0.67803769  0.40050837  1
  H+  H247  1  0.35939255  0.46736393  0.50206469  1
  H+  H248  1  0.99099014  0.19976020  0.95614505  1
  H+  H249  1  0.11677323  0.63317334  0.67691868  1
  H+  H250  1  0.77009866  0.89012003  0.67836553  1
  H+  H251  1  0.05828522  0.62111482  0.07513044  1
  H+  H252  1  0.38103364  1.00965193  0.84567913  1
  H+  H253  1  0.37409303  0.85446953  0.84734951  1
  H+  H254  1  0.14158746  0.61984830  0.51342540  1
  H+  H255  1  0.27897523  0.89644899  0.33214511  1
  H+  H256  1  0.37922057  0.63130998  0.99748053  1
  H+  H257  1  0.28446947  0.60515274  0.01198800  1
  H+  H258  1  0.83421274  0.17571157  0.09789296  1
  H+  H259  1  0.21928685  0.09715125  0.83565675  1
  H+  H260  1  0.15078468  0.60726828  0.32762131  1
  H+  H261  1  0.60027312  0.39055098  0.68182155  1
  H+  H262  1  0.81139752  0.36666470  0.68158814  1
  H+  H263  1  0.87562541  0.64542526  0.34299042  1
  H+  H264  1  0.61221103  0.72712668  0.67885802  1
  H+  H265  1  0.27749489  0.62555542  0.84378657  1
  H+  H266  1  0.22340336  0.10314566  0.50708586  1
  H+  H267  1  0.13420099  0.10188098  0.99092574  1
  H+  H268  1  0.37226095  0.09321798  0.84284253  1
  H+  H269  1  0.62090678  0.72631396  0.49533383  1
  H+  H270  1  -0.03635294  0.59497414  -0.01542406  1
  H+  H271  1  0.22626464  0.35178948  0.36199694  1
  H+  H272  1  0.61751495  0.13603647  0.00117414  1
  H+  H273  1  0.77027951  0.13994254  0.00293872  1
  H+  H274  1  0.63858144  0.78217514  0.16398812  1
  H+  H275  1  0.88309986  1.02328381  0.66798689  1
  H+  H276  1  0.62864348  0.46952519  0.33354314  1
  H+  H277  1  0.62530120  0.64578021  0.33132327  1
  H+  H278  1  0.89106933  0.28338196  0.16469892  1
  H+  H279  1  0.86147281  0.72531296  -0.00312724  1
  H+  H280  1  0.73153002  0.86557130  -0.00149280  1
  H+  H281  1  0.77454304  0.14011681  0.50515202  1
  H+  H282  1  0.36933842  0.89420924  0.33513766  1
  H+  H283  1  0.89517230  0.77470856  0.32013628  1
  H+  H284  1  0.42096332  0.33512397  0.60703425  1
  H+  H285  1  0.27409571  0.38362850  0.67197701  1
  H+  H286  1  0.63298514  0.60616600  0.83968912  1
  H+  H287  1  0.02779483  0.39607123  0.14662221  1
  H+  H288  1  0.18533994  0.58647513  0.26614285  1
  H+  H289  1  0.18928083  0.83263786  0.92735114  1
  H+  H290  1  0.81056916  0.89990161  0.06065588  1
  H+  H291  1  0.47518093  0.36887870  0.67072299  1
  H+  H292  1  0.33086835  0.16299450  0.43410236  1
  H+  H293  1  0.16701888  0.07503175  0.89789960  1
  H+  H294  1  0.97192872  0.86264457  0.83657154  1
  H+  H295  1  0.35891652  0.20637279  0.82210337  1
  H+  H296  1  0.22958179  0.86500757  0.50383513  1
  H+  H297  1  0.66930558  0.60075974  0.21850340  1
  H+  H298  1  0.83306547  0.92262941  0.73635696  1
  H+  H299  1  0.17149347  0.83393041  0.56396605  1
  H+  H300  1  0.83800022  0.17761153  0.73258729  1
  H+  H301  1  0.86997840  0.13755558  0.51071880  1
  H+  H302  1  0.91739673  0.83452675  0.56832502  1
  H+  H303  1  0.64214301  0.87349127  0.16694430  1
  H+  H304  1  0.13086873  0.30382325  0.92571146  1
  H+  H305  1  0.55521263  0.89318577  0.78032989  1
  H+  H306  1  0.77023337  0.63828435  0.82905747  1
  H+  H307  1  0.32388177  0.18313229  0.10250337  1
  H+  H308  1  0.34188635  0.66287230  0.76036725  1
  H+  H309  1  0.57801054  0.66374281  0.77643569  1
  H+  H310  1  0.84458041  0.42192403  0.43818252  1
  H+  H311  1  0.69551077  0.42337391  0.82359944  1
  H+  H312  1  0.97393780  0.37280581  0.99199156  1
  H+  H313  1  0.18169687  0.84800194  0.26157701  1
  H+  H314  1  0.58853126  0.42130028  0.74586361  1
  H+  H315  1  0.58413894  0.23673313  0.82836070  1
  H+  H316  1  0.64276093  0.11492215  0.50162548  1
  H+  H317  1  0.23410743  0.67923732  0.97670623  1
  H+  H318  1  0.09692092  0.41472953  0.73461713  1
  H+  H319  1  0.32425675  0.15063702  0.76163347  1
  H+  H320  1  0.91423383  0.58279590  0.26603024  1
  H+  H321  1  0.87776749  0.28087979  0.82110937  1
  H+  H322  1  0.16691007  0.06712587  0.56822160  1
  H+  H323  1  0.61496660  0.98687603  0.33405711  1
  H+  H324  1  0.58149324  0.92427633  0.10067267  1
  H+  H325  1  0.59805827  0.17922775  0.09249940  1
  H+  H326  1  0.56737651  0.43073728  0.42633629  1
  H+  H327  1  0.94367718  0.38166000  0.24681288  1
  H+  H328  1  0.66629665  0.08880028  0.23300293  1
  H+  H329  1  0.41606246  0.33154164  0.26745929  1
  H+  H330  1  0.91823733  0.58592151  0.56756149  1
  H+  H331  1  0.07969191  0.42844135  0.43469581  1
  H+  H332  1  0.07911797  0.14461581  0.06232750  1
  H+  H333  1  0.50190454  0.31625313  0.86016177  1
  H+  H334  1  0.27659699  0.37410134  0.49571088  1
  H+  H335  1  0.83732484  0.66784946  0.09374936  1
  H+  H336  1  0.09216483  0.42848627  0.05791917  1
  H+  H337  1  0.41871068  0.83902912  0.22966256  1
  H+  H338  1  0.57895650  0.67482659  0.09264172  1
  H+  H339  1  0.92909449  0.10672162  0.88593975  1
  H+  H340  1  0.13130667  0.85393281  0.84215362  1
  H+  H341  1  0.72912180  0.54831352  0.26970705  1
  H+  H342  1  0.43311374  0.34384746  0.93702142  1
  H+  H343  1  0.34768751  0.42026375  0.40629765  1
  H+  H344  1  0.16748429  0.58685286  0.89717468  1
  H+  H345  1  0.37174840  0.38843063  0.67027815  1
  H+  H346  1  0.53379087  0.14611500  1.00305496  1
  H+  H347  1  0.33710893  0.92076854  0.43257662  1
  H+  H348  1  0.65788804  0.83161296  0.60791831  1
  H+  H349  1  0.60618294  0.39895348  0.15175030  1
  H+  H350  1  0.17583624  0.59126868  0.57141780  1
  H+  H351  1  0.64964030  0.33275992  0.92227186  1
  H+  H352  1  0.59003221  0.92414292  0.43400528  1
  H+  H353  1  0.23205996  0.13195770  0.99302138  1
  H+  H354  1  0.82904331  0.42378693  0.08511772  1
  H+  H355  1  0.38641753  0.83662297  0.94487714  1
  H+  H356  1  0.14353080  0.26273381  0.51093086  1
  H+  H357  1  0.07236158  0.14691445  0.44629817  1
  H+  H358  1  0.63182781  0.86675980  0.84421989  1
  H+  H359  1  0.34631287  0.66384200  0.10190152  1
  H+  H360  1  0.69096054  0.30469321  0.28582977  1
  H+  H361  1  0.67657325  0.11636489  0.59922541  1
  H+  H362  1  0.56993291  0.17382686  0.73656604  1
  H+  H363  1  0.21190532  0.28093400  0.26201915  1
  H+  H364  1  0.93566418  0.34257841  0.59296779  1
  H+  H365  1  0.67372535  0.84238474  0.25940574  1
  H+  H366  1  0.57876533  0.42953516  0.06528715  1
  H+  H367  1  0.66154757  0.07956492  0.92942264  1
  H+  H368  1  0.08397117  0.91440853  0.39726689  1
  H+  H369  1  0.41453683  0.08150252  0.56631096  1
  H+  H370  1  0.83309111  0.66911860  0.73284686  1
  H+  H371  1  0.57451588  0.14691468  0.39695577  1
  H+  H372  1  0.88706080  1.02354640  0.15022169  1
  H+  H373  1  0.90580008  0.58047999  0.90126422  1
  H+  H374  1  0.09903307  0.92064164  0.09787135  1
  H+  H375  1  0.43054026  0.84878383  0.56803814  1
  H+  H376  1  0.16351114  0.25625922  0.26282386  1
  H+  H377  1  0.65698565  0.83388698  0.93151596  1
  H+  H378  1  0.43865191  0.60040874  0.23622559  1
  H+  H379  1  0.39879154  0.57446852  0.57292002  1
  H+  H380  1  0.65510367  0.34601929  0.21396295  1
  H+  H381  1  0.37931044  0.46870895  0.85998303  1
  H+  H382  1  0.76912225  0.00905218  0.39755096  1
  H+  H383  1  0.41206897  0.08010960  0.94092354  1
  O2-  O384  1  0.08458540  0.15279485  0.13570950  1
  O2-  O385  1  0.07215304  0.14638252  0.49213812  1
  O2-  O386  1  0.08629783  0.16340733  0.80897671  1
  O2-  O387  1  0.08893426  0.42696832  0.13264016  1
  O2-  O388  1  0.06741182  0.42627855  0.47905332  1
  O2-  O389  1  0.09309618  0.41050613  0.81243676  1
  O2-  O390  1  0.08223721  0.65847064  0.14475952  1
  O2-  O391  1  0.08812265  0.66575066  0.48206394  1
  O2-  O392  1  0.08243413  0.66072342  0.81169780  1
  O2-  O393  1  0.08772868  0.91467063  0.14209854  1
  O2-  O394  1  0.07725231  0.90755446  0.47625554  1
  O2-  O395  1  0.07496084  0.90307056  0.81684342  1
  O2-  O396  1  0.33299717  0.16405303  0.14302918  1
  O2-  O397  1  0.32802611  0.16003291  0.47934115  1
  O2-  O398  1  0.32281178  0.14642423  0.80734961  1
  O2-  O399  1  0.31034683  0.39239358  0.12771143  1
  O2-  O400  1  0.33959593  0.40859024  0.48410841  1
  O2-  O401  1  0.34831163  0.41125562  0.84087451  1
  O2-  O402  1  0.34013059  0.66802871  0.14667965  1
  O2-  O403  1  0.33861937  0.67528555  0.47961674  1
  O2-  O404  1  0.34037742  0.66071769  0.83561219  1
  O2-  O405  1  0.33410328  0.89856035  0.12191644  1
  O2-  O406  1  0.33567260  0.91813112  0.47772813  1
  O2-  O407  1  0.33231323  0.90811294  0.81274743  1
  O2-  O408  1  0.58926565  0.17789491  0.13798876  1
  O2-  O409  1  0.58134752  0.15853216  0.47608352  1
  O2-  O410  1  0.57076278  0.17791189  0.81530685  1
  O2-  O411  1  0.57107465  0.42631979  0.14338309  1
  O2-  O412  1  0.55120764  0.44482472  0.46633898  1
  O2-  O413  1  0.63743061  0.41587301  0.82169069  1
  O2-  O414  1  0.58814553  0.67988538  0.13731313  1
  O2-  O415  1  0.60594754  0.66924850  0.47812196  1
  O2-  O416  1  0.58615988  0.66674130  0.82149871  1
  O2-  O417  1  0.58678864  0.92469636  0.14572088  1
  O2-  O418  1  0.59260635  0.92620323  0.47921254  1
  O2-  O419  1  0.56968929  0.91222384  0.82367885  1
  O2-  O420  1  0.84028298  0.17801438  0.14324844  1
  O2-  O421  1  0.84004036  0.17179032  0.49646245  1
  O2-  O422  1  0.83202770  0.17311926  0.80934289  1
  O2-  O423  1  0.83257126  0.42323920  0.13080642  1
  O2-  O424  1  0.83984000  0.41910771  0.48351166  1
  O2-  O425  1  0.81495512  0.43274405  0.81292757  1
  O2-  O426  1  0.83590943  0.66860050  0.13914230  1
  O2-  O427  1  0.83966444  0.66868921  0.47945967  1
  O2-  O428  1  0.83226046  0.66783049  0.81539636  1
  O2-  O429  1  0.82735455  0.90835456  0.12850451  1
  O2-  O430  1  0.81823861  0.90743549  0.48968246  1
  O2-  O431  1  0.84243295  0.93152559  0.81494795  1
  O2-  O432  1  0.16913888  0.08012625  0.18927199  1
  O2-  O433  1  0.16322264  0.06987299  0.52289004  1
  O2-  O434  1  0.15984023  0.06742395  0.85298881  1
  O2-  O435  1  0.15435477  0.32550173  0.15689001  1
  O2-  O436  1  0.18005506  0.32328482  0.52301618  1
  O2-  O437  1  0.17696816  0.32476248  0.85703166  1
  O2-  O438  1  0.17517239  0.58728644  0.18582130  1
  O2-  O439  1  0.17319314  0.58961009  0.52648124  1
  O2-  O440  1  0.16562744  0.57482339  0.85272669  1
  O2-  O441  1  0.16990558  0.83075663  0.17833751  1
  O2-  O442  1  0.16876975  0.83367738  0.51860396  1
  O2-  O443  1  0.16521274  0.82611531  0.85529662  1
  O2-  O444  1  0.41058192  0.07078196  0.11435122  1
  O2-  O445  1  0.41832842  0.08319544  0.52066007  1
  O2-  O446  1  0.40561967  0.06910501  0.86274030  1
  O2-  O447  1  0.40917338  0.33153461  0.18982839  1
  O2-  O448  1  0.41014197  0.32301858  0.52957887  1
  O2-  O449  1  0.43392063  0.29365048  0.86828024  1
  O2-  O450  1  0.44143696  0.60412005  0.19127033  1
  O2-  O451  1  0.38946760  0.56307302  0.52913667  1
  O2-  O452  1  0.42799044  0.58783792  0.88686877  1
  O2-  O453  1  0.42000236  0.83836789  0.18417634  1
  O2-  O454  1  0.43025658  0.84518911  0.52204234  1
  O2-  O455  1  0.40293194  0.82915573  0.87245100  1
  O2-  O456  1  0.67142436  0.08959991  0.18683971  1
  O2-  O457  1  0.67736899  0.09007617  0.51864611  1
  O2-  O458  1  0.66206664  0.08790976  0.84975094  1
  O2-  O459  1  0.66062417  0.34211874  0.17022722  1
  O2-  O460  1  0.68372251  0.31617632  0.53194130  1
  O2-  O461  1  0.58800012  0.33408210  0.85643535  1
  O2-  O462  1  0.66675696  0.59708043  0.17389294  1
  O2-  O463  1  0.67815669  0.59046230  0.52860415  1
  O2-  O464  1  0.67003474  0.58255411  0.85449797  1
  O2-  O465  1  0.67253867  0.84232604  0.18044359  1
  O2-  O466  1  0.65778445  0.82707378  0.53064981  1
  O2-  O467  1  0.66832180  0.84211783  0.85811928  1
  O2-  O468  1  0.92341087  0.08272703  0.16524536  1
  O2-  O469  1  0.90789521  0.08364057  0.52885361  1
  O2-  O470  1  0.92537230  0.09813808  0.84092187  1
  O2-  O471  1  0.92262753  0.34685203  0.17405361  1
  O2-  O472  1  0.92028574  0.33226113  0.52156742  1
  O2-  O473  1  0.90820540  0.34540256  0.81785228  1
  O2-  O474  1  0.91511515  0.58272582  0.18541311  1
  O2-  O475  1  0.91966317  0.58421537  0.52236216  1
  O2-  O476  1  0.90277016  0.58339238  0.85231200  1
  O2-  O477  1  0.91806608  0.83556647  0.17780897  1
  O2-  O478  1  0.91396693  0.83101593  0.52307702  1
  O2-  O479  1  0.90949311  0.83464626  0.84922685  1
  O2-  O480  1  0.17266644  0.08573423  0.31462280  1
  O2-  O481  1  0.16438526  0.06975849  0.64639220  1
  O2-  O482  1  0.17704665  0.08384173  0.97706908  1
  O2-  O483  1  0.16387866  0.31630832  0.36954340  1
  O2-  O484  1  0.18287094  0.33554812  0.65147579  1
  O2-  O485  1  0.09488057  0.28563296  0.96362313  1
  O2-  O486  1  0.18875555  0.58529758  0.31133981  1
  O2-  O487  1  0.17972375  0.58943497  0.65699230  1
  O2-  O488  1  0.18483863  0.62134071  0.97175370  1
  O2-  O489  1  0.18825195  0.85441601  0.30620365  1
  O2-  O490  1  0.17101609  0.83113367  0.64457886  1
  O2-  O491  1  0.20165824  0.83771541  0.97274340  1
  O2-  O492  1  0.41783650  0.07885096  0.31644856  1
  O2-  O493  1  0.40768001  0.07705212  0.64388121  1
  O2-  O494  1  0.42079282  0.09843807  0.98486491  1
  O2-  O495  1  0.41859438  0.32853407  0.31303520  1
  O2-  O496  1  0.41616079  0.33769879  0.65257418  1
  O2-  O497  1  0.42924101  0.35304365  0.98110613  1
  O2-  O498  1  0.43395253  0.59144943  0.31875958  1
  O2-  O499  1  0.41412234  0.57849093  0.65930002  1
  O2-  O500  1  0.43223937  0.59008941  0.94919162  1
  O2-  O501  1  0.41964828  0.84143044  0.30995230  1
  O2-  O502  1  0.41148150  0.83370290  0.64440226  1
  O2-  O503  1  0.37950883  0.83113476  0.99133998  1
  O2-  O504  1  0.65893064  0.08814215  0.30831985  1
  O2-  O505  1  0.68491053  0.14611138  0.63852259  1
  O2-  O506  1  0.66261277  0.07938698  0.97485572  1
  O2-  O507  1  0.67221166  0.31252875  0.32571530  1
  O2-  O508  1  0.63704870  0.33219818  0.65047232  1
  O2-  O509  1  0.68671492  0.32299241  0.95072158  1
  O2-  O510  1  0.70111452  0.57010962  0.29660901  1
  O2-  O511  1  0.66893908  0.58941990  0.65204754  1
  O2-  O512  1  0.66852869  0.59310257  0.97804766  1
  O2-  O513  1  0.67886230  0.84567815  0.30479932  1
  O2-  O514  1  0.66215814  0.83167329  0.65364210  1
  O2-  O515  1  0.65371315  0.82978909  0.97777829  1
  O2-  O516  1  0.92463770  0.07149781  0.31652847  1
  O2-  O517  1  0.91430573  0.08307458  0.65041419  1
  O2-  O518  1  0.94135193  0.13969365  0.96074146  1
  O2-  O519  1  0.96002331  0.41090204  0.28774516  1
  O2-  O520  1  0.94148767  0.34948933  0.63931541  1
  O2-  O521  1  0.91280147  0.34666514  0.98061676  1
  O2-  O522  1  0.91579600  0.58592561  0.31134120  1
  O2-  O523  1  0.91529355  0.58341531  0.64880486  1
  O2-  O524  1  0.90667066  0.57606781  0.96541883  1
  O2-  O525  1  0.92567854  0.83410077  0.30277607  1
  O2-  O526  1  0.91907335  0.83791129  0.64911337  1
  O2-  O527  1  0.88889761  0.82799155  0.96581502  1
  O2-  O528  1  0.07690837  0.14087171  0.01627811  1
  O2-  O529  1  0.07678779  0.15017758  0.36889186  1
  O2-  O530  1  0.08422806  0.16343635  0.63700571  1
  O2-  O531  1  0.08764654  0.42455493  0.01205423  1
  O2-  O532  1  0.09927271  0.42543225  0.35780891  1
  O2-  O533  1  0.10345995  0.41906903  0.68918559  1
  O2-  O534  1  0.04340937  0.59294935  0.03327001  1
  O2-  O535  1  0.08202184  0.63108449  0.35765213  1
  O2-  O536  1  0.08503918  0.66297378  0.69042788  1
  O2-  O537  1  0.13143104  0.92905816  0.01640643  1
  O2-  O538  1  0.08961320  0.92066017  0.35198407  1
  O2-  O539  1  0.08384751  0.90776220  0.69303643  1
  O2-  O540  1  0.30576413  0.22312608  0.03529972  1
  O2-  O541  1  0.33862392  0.16094886  0.35193796  1
  O2-  O542  1  0.32716320  0.16247640  0.68638787  1
  O2-  O543  1  0.33702135  0.42821206  0.00964280  1
  O2-  O544  1  0.34535661  0.42343963  0.36082428  1
  O2-  O545  1  0.33843862  0.41830044  0.68505742  1
  O2-  O546  1  0.34340325  0.64547330  0.02409840  1
  O2-  O547  1  0.35157581  0.67905287  0.35512410  1
  O2-  O548  1  0.34167847  0.66619475  0.71437716  1
  O2-  O549  1  0.34803641  0.88997136  0.00734519  1
  O2-  O550  1  0.34073938  0.92681970  0.35002725  1
  O2-  O551  1  0.33357389  0.91050099  0.69029317  1
  O2-  O552  1  0.59441637  0.17317050  0.01663943  1
  O2-  O553  1  0.57358537  0.15007278  0.35168479  1
  O2-  O554  1  0.56915042  0.17491138  0.69099694  1
  O2-  O555  1  0.58214785  0.42675437  0.02030329  1
  O2-  O556  1  0.59118604  0.41250090  0.35263300  1
  O2-  O557  1  0.57783875  0.42540304  0.70216707  1
  O2-  O558  1  0.58197963  0.67218157  0.00924152  1
  O2-  O559  1  0.59988201  0.67824583  0.34790936  1
  O2-  O560  1  0.58040958  0.66659275  0.69503965  1
  O2-  O561  1  0.56412568  0.91313556  0.02008845  1
  O2-  O562  1  0.58833373  0.92665011  0.35107242  1
  O2-  O563  1  0.52828024  0.83878520  0.71055481  1
  O2-  O564  1  0.82946484  0.17548225  0.01941433  1
  O2-  O565  1  0.79040188  0.06259323  0.37497945  1
  O2-  O566  1  0.84196283  0.17818910  0.68693737  1
  O2-  O567  1  0.82743003  0.42426622  0.00748879  1
  O2-  O568  1  0.84307412  0.42237050  0.35974661  1
  O2-  O569  1  0.79647695  0.41071809  0.69071585  1
  O2-  O570  1  0.83579342  0.66703754  0.01497558  1
  O2-  O571  1  0.84325038  0.67489420  0.35587153  1
  O2-  O572  1  0.83490266  0.66930086  0.68775914  1
  O2-  O573  1  0.80117151  0.89745559  0.01386211  1
  O2-  O574  1  0.84633574  0.91798813  0.33305419  1
  O2-  O575  1  0.83193328  0.92042772  0.69091503  1
