# generated using pymatgen
data_H2O
_symmetry_space_group_name_H-M   'P 1'
_cell_length_a   17.98879758
_cell_length_b   17.99124156
_cell_length_c   21.99777692
_cell_angle_alpha   90.02674306
_cell_angle_beta   89.96967323
_cell_angle_gamma   119.98423409
_symmetry_Int_Tables_number   1
_chemical_formula_structural   H2O
_chemical_formula_sum   'H384 O192'
_cell_volume   6166.54060321
_cell_formula_units_Z   192
loop_
 _symmetry_equiv_pos_site_id
 _symmetry_equiv_pos_as_xyz
  1  'x, y, z'
loop_
 _atom_type_symbol
 _atom_type_oxidation_number
  H+  1.0
  O2-  -2.0
loop_
 _atom_site_type_symbol
 _atom_site_label
 _atom_site_symmetry_multiplicity
 _atom_site_fract_x
 _atom_site_fract_y
 _atom_site_fract_z
 _atom_site_occupancy
  H+  H0  1  0.63550017  0.61181819  0.99830020  1
  H+  H1  1  0.11086593  0.70230423  0.68433057  1
  H+  H2  1  0.82601918  0.61316745  0.46633452  1
  H+  H3  1  0.40953203  0.31237471  0.65537800  1
  H+  H4  1  0.43459607  0.85210744  0.22607813  1
  H+  H5  1  0.22704827  0.86981423  0.83764649  1
  H+  H6  1  0.22363076  0.36993625  0.50513109  1
  H+  H7  1  0.58503090  0.09861640  0.67463455  1
  H+  H8  1  0.92609713  0.36932483  0.30712630  1
  H+  H9  1  0.50110610  0.38091817  0.33258443  1
  H+  H10  1  0.12422672  0.50900336  0.49315280  1
  H+  H11  1  0.74231154  0.92554909  0.34624184  1
  H+  H12  1  0.56255854  -0.04489501  0.31157981  1
  H+  H13  1  0.34266235  0.37464973  0.32339686  1
  H+  H14  1  0.27892571  0.37377398  1.00264639  1
  H+  H15  1  0.62256719  0.52111716  0.30950407  1
  H+  H16  1  0.78210444  0.89742521  0.15449915  1
  H+  H17  1  0.53771681  0.19624061  0.16375623  1
  H+  H18  1  0.96414600  0.36935196  0.50739410  1
  H+  H19  1  0.62143398  0.30876047  0.25002151  1
  H+  H20  1  0.99441109  0.11759038  0.16684792  1
  H+  H21  1  0.65423022  0.08101427  0.59181773  1
  H+  H22  1  0.21815244  0.84511972  0.66562997  1
  H+  H23  1  0.30869073  0.19395546  0.67465132  1
  H+  H24  1  0.36921110  0.48204613  0.15286663  1
  H+  H25  1  0.58730218  0.37475505  0.32971105  1
  H+  H26  1  0.86734027  0.59564689  0.15233008  1
  H+  H27  1  0.79410907  0.40067660  0.69786296  1
  H+  H28  1  0.88361242  0.34771273  0.85601751  1
  H+  H29  1  0.86958072  0.75296959  0.50403392  1
  H+  H30  1  0.77717438  0.67460914  -0.00636652  1
  H+  H31  1  0.65612933  0.04173532  0.65614933  1
  H+  H32  1  0.47310797  0.12062354  0.49548898  1
  H+  H33  1  0.41641833  0.08341036  0.90549882  1
  H+  H34  1  0.86698066  0.46042364  0.02303237  1
  H+  H35  1  0.60092392  0.37915159  0.48158394  1
  H+  H36  1  0.13859175  0.35508616  1.01467408  1
  H+  H37  1  0.70951964  0.12018473  0.49801863  1
  H+  H38  1  0.16067409  0.33896498  0.60315388  1
  H+  H39  1  0.87608935  0.38969085  0.68772573  1
  H+  H40  1  0.07128496  0.87041979  0.68083636  1
  H+  H41  1  0.68110061  0.20715038  0.61335337  1
  H+  H42  1  0.13652347  0.37546381  0.50833506  1
  H+  H43  1  0.72317655  0.35478829  1.00193912  1
  H+  H44  1  0.74762305  0.86726757  0.51132539  1
  H+  H45  1  0.13731640  0.87134466  0.83666663  1
  H+  H46  1  0.36783236  0.51549175  0.32882215  1
  H+  H47  1  0.34934011  0.38186645  0.48076703  1
  H+  H48  1  0.90105517  0.08465279  0.45336963  1
  H+  H49  1  0.41274252  0.70885029  0.74651823  1
  H+  H50  1  0.12410785  0.72230382  0.49566157  1
  H+  H51  1  0.37126885  0.11627656  0.32275789  1
  H+  H52  1  0.56335497  0.40080302  0.41207445  1
  H+  H53  1  0.86505163  0.63849422  0.69085556  1
  H+  H54  1  0.52768218  0.88606313  0.83317186  1
  H+  H55  1  0.76079508  0.62988007  0.31765970  1
  H+  H56  1  0.87528180  0.01637445  0.98745241  1
  H+  H57  1  0.88725415  0.52803826  0.85758265  1
  H+  H58  1  0.88888350  0.84923238  0.50976706  1
  H+  H59  1  0.36806914  0.05922266  0.65036685  1
  H+  H60  1  0.37984785  0.02590097  0.99649990  1
  H+  H61  1  0.36810061  0.13321695  0.00715606  1
  H+  H62  1  0.88148506  0.86991396  0.84507821  1
  H+  H63  1  0.14900346  0.76972850  0.31506630  1
  H+  H64  1  0.13149238  0.00301496  0.31428667  1
  H+  H65  1  0.40669286  0.58739543  0.60303173  1
  H+  H66  1  0.48998040  0.87749607  0.16516135  1
  H+  H67  1  0.13764118  0.50673224  0.34726991  1
  H+  H68  1  0.14784445  0.40253241  0.85854828  1
  H+  H69  1  0.45741897  0.11108924  0.31847213  1
  H+  H70  1  0.16710519  0.07260484  0.21376546  1
  H+  H71  1  0.45277596  0.99551699  0.69964948  1
  H+  H72  1  0.64088174  0.52717921  0.99082144  1
  H+  H73  1  0.02233626  0.37576542  0.02072971  1
  H+  H74  1  0.64008730  0.34792664  0.84045618  1
  H+  H75  1  0.09490718  0.13805992  0.68003738  1
  H+  H76  1  0.87122077  0.22610305  0.69908810  1
  H+  H77  1  0.98073422  0.36865436  0.16367676  1
  H+  H78  1  0.51980919  0.63076855  0.67856557  1
  H+  H79  1  0.86875521  0.09748631  0.32088934  1
  H+  H80  1  0.11167043  0.73477066  0.83309822  1
  H+  H81  1  0.13678676  0.26883721  1.03585208  1
  H+  H82  1  0.97430334  0.35951037  0.66823565  1
  H+  H83  1  0.38568717  0.10779490  0.84446213  1
  H+  H84  1  0.85798459  0.72148008  0.14865139  1
  H+  H85  1  0.49970072  0.62193702  0.33004457  1
  H+  H86  1  0.91112359  1.04020535  0.32888704  1
  H+  H87  1  0.78115636  0.38098833  0.84261704  1
  H+  H88  1  0.61708640  0.64034075  0.12459730  1
  H+  H89  1  0.56722579  0.61392467  0.83740426  1
  H+  H90  1  0.12530505  0.19039711  0.41012182  1
  H+  H91  1  0.47419298  0.87167329  0.48968211  1
  H+  H92  1  0.37220899  0.22926612  1.00758357  1
  H+  H93  1  0.90646341  0.54251206  0.30234525  1
  H+  H94  1  0.46440426  0.33833983  0.84090695  1
  H+  H95  1  0.37841659  0.61005638  0.33329070  1
  H+  H96  1  0.00644994  0.90647634  0.00967353  1
  H+  H97  1  0.86987020  0.13757056  0.69191446  1
  H+  H98  1  0.21349216  0.01538844  0.28057800  1
  H+  H99  1  0.38751620  0.86017226  0.84950554  1
  H+  H100  1  0.67257554  0.27762787  0.64841961  1
  H+  H101  1  0.50901784  0.38753145  0.15194752  1
  H+  H102  1  0.64467466  0.02101589  0.84195516  1
  H+  H103  1  0.26579970  0.13140692  0.14743571  1
  H+  H104  1  0.85714715  0.98057717  0.82988750  1
  H+  H105  1  0.23220506  0.64333711  0.15722837  1
  H+  H106  1  0.37553585  0.27431346  0.31818673  1
  H+  H107  1  0.61893433  0.72850877  0.02619504  1
  H+  H108  1  0.41686442  0.88731531  0.32177011  1
  H+  H109  1  0.60725916  0.90983748  0.44565811  1
  H+  H110  1  0.71910159  0.37597469  0.50235649  1
  H+  H111  1  0.61797151  0.43769988  0.67078214  1
  H+  H112  1  0.67362074  0.83040022  0.90369710  1
  H+  H113  1  0.26207859  0.38636414  0.66469977  1
  H+  H114  1  0.26547311  0.13518738  0.33644450  1
  H+  H115  1  0.74940486  0.63266090  0.45908472  1
  H+  H116  1  0.27653662  0.15287484  0.50118110  1
  H+  H117  1  0.38703731  0.61060630  0.67167532  1
  H+  H118  1  0.13712781  0.10938843  0.15717532  1
  H+  H119  1  0.36172424  0.39605317  0.65902509  1
  H+  H120  1  0.85017671  0.68164831  0.78636790  1
  H+  H121  1  0.37846010  0.89588799  0.49405715  1
  H+  H122  1  0.31452876  0.65668403  0.73854167  1
  H+  H123  1  0.77211440  0.88792994  0.83524063  1
  H+  H124  1  0.02719579  0.65076084  0.33430240  1
  H+  H125  1  0.73660072  0.10663302  0.17024103  1
  H+  H126  1  0.89357537  0.52478794  0.67727669  1
  H+  H127  1  0.52385104  0.88423304  1.00713407  1
  H+  H128  1  0.46862066  0.62529062  0.52060238  1
  H+  H129  1  0.96490401  0.96044313  0.37551716  1
  H+  H130  1  0.41080644  0.77684431  0.64887546  1
  H+  H131  1  0.61336985  0.50978888  0.70968857  1
  H+  H132  1  0.91858894  0.65268929  0.53637514  1
  H+  H133  1  0.84881923  0.23914234  0.50036371  1
  H+  H134  1  0.38498691  0.77049132  0.86150169  1
  H+  H135  1  0.62028350  0.52836741  0.45942101  1
  H+  H136  1  0.87757672  -0.02640537  0.50087689  1
  H+  H137  1  0.72057722  0.10508143  0.99682132  1
  H+  H138  1  0.11625868  0.16156669  0.50770785  1
  H+  H139  1  0.48634382  0.40770300  0.65325517  1
  H+  H140  1  0.21385975  0.59841913  0.64374095  1
  H+  H141  1  0.09161774  0.92705923  0.47856769  1
  H+  H142  1  0.22484403  0.93122091  0.64864873  1
  H+  H143  1  0.23965067  0.84808371  0.29454735  1
  H+  H144  1  0.10866539  0.13728735  0.05586523  1
  H+  H145  1  0.54687147  0.89820644  0.67219952  1
  H+  H146  1  0.67606385  0.83054483  0.61094387  1
  H+  H147  1  0.10230461  0.97972907  0.83520076  1
  H+  H148  1  0.98304079  0.60740021  0.01204410  1
  H+  H149  1  0.76672692  0.63663992  0.14133802  1
  H+  H150  1  0.67819493  0.07394016  0.32919459  1
  H+  H151  1  -0.02489308  0.87149406  0.84653306  1
  H+  H152  1  0.99120904  0.63033087  0.51858778  1
  H+  H153  1  0.37303652  0.99156625  0.49347990  1
  H+  H154  1  0.83941094  0.41000004  0.25641897  1
  H+  H155  1  0.03322795  0.33038333  0.45699100  1
  H+  H156  1  0.85882187  0.72479203  0.68522762  1
  H+  H157  1  0.61428477  0.97146876  0.00182111  1
  H+  H158  1  0.63655613  0.77776618  0.14864711  1
  H+  H159  1  0.60930692  0.64320079  0.70664776  1
  H+  H160  1  0.18375072  0.08491221  0.68458394  1
  H+  H161  1  0.28156644  0.89320401  0.49076619  1
  H+  H162  1  0.52839081  0.29319650  0.77827619  1
  H+  H163  1  0.88164428  0.37887600  0.51820779  1
  H+  H164  1  0.36485547  0.14503962  0.15306813  1
  H+  H165  1  0.37893203  0.62371068  0.51429256  1
  H+  H166  1  0.62062014  0.03396346  0.48455318  1
  H+  H167  1  0.68599629  0.38015068  0.68963399  1
  H+  H168  1  0.33454558  0.44645429  0.85433531  1
  H+  H169  1  0.61573981  0.12957217  0.82923982  1
  H+  H170  1  0.40823733  0.05756987  0.16427753  1
  H+  H171  1  0.88300870  0.77040263  0.84776970  1
  H+  H172  1  0.60093539  0.12729223  1.00238369  1
  H+  H173  1  0.62549389  0.52290239  0.15262896  1
  H+  H174  1  0.97458191  0.61743419  0.85529979  1
  H+  H175  1  0.76925546  0.88458243  0.68295120  1
  H+  H176  1  0.13836024  0.05746701  0.51425300  1
  H+  H177  1  0.12745750  0.87475518  0.98906984  1
  H+  H178  1  0.86511603  0.50282105  0.51204969  1
  H+  H179  1  0.16350096  0.84716679  0.93199134  1
  H+  H180  1  0.36771447  0.97619960  0.83743544  1
  H+  H181  1  0.60377749  0.21714700  0.00591381  1
  H+  H182  1  0.86441754  0.21578832  0.01199228  1
  H+  H183  1  0.87282394  0.65320953  0.84996127  1
  H+  H184  1  0.80060563  0.18345697  0.34136890  1
  H+  H185  1  0.11201773  0.61553030  0.00600804  1
  H+  H186  1  0.11781379  0.40356436  0.17098552  1
  H+  H187  1  0.66513791  0.87687417  0.52098226  1
  H+  H188  1  0.48223964  0.35715877  0.99476960  1
  H+  H189  1  0.75975417  0.91878104  0.31704254  1
  H+  H190  1  0.86545237  0.85513453  0.66256131  1
  H+  H191  1  0.14364617  0.84885954  0.50184661  1
  H+  H192  1  0.11607673  0.95040595  0.15251143  1
  H+  H193  1  0.59496882  0.50185993  0.85693597  1
  H+  H194  1  0.69753784  0.33875482  0.17257759  1
  H+  H195  1  0.38814920  0.18000806  0.67084671  1
  H+  H196  1  0.63760486  0.85592565  1.00013945  1
  H+  H197  1  0.10927421  0.15076991  0.34432800  1
  H+  H198  1  0.08877161  0.49938161  0.83059080  1
  H+  H199  1  0.38915884  0.60624773  0.00483819  1
  H+  H200  1  0.86579988  0.11193867  0.99903491  1
  H+  H201  1  0.58664191  0.21026812  0.32354225  1
  H+  H202  1  0.88988000  0.86369497  0.16055125  1
  H+  H203  1  1.00730447  0.84154638  0.49332209  1
  H+  H204  1  0.35325629  0.36603428  0.84697311  1
  H+  H205  1  0.88116728  0.34624775  1.01032886  1
  H+  H206  1  0.86942754  0.76628726  0.30820572  1
  H+  H207  1  0.87416117  -0.01527863  0.15700128  1
  H+  H208  1  0.37555904  0.74803533  0.15920015  1
  H+  H209  1  0.35728737  0.48802589  0.66397377  1
  H+  H210  1  0.38841940  0.92401827  0.15865561  1
  H+  H211  1  1.01790701  0.62099224  0.68480329  1
  H+  H212  1  0.61661252  0.38838897  1.00371942  1
  H+  H213  1  0.09797503  1.00611669  0.66502220  1
  H+  H214  1  0.50443671  0.37707092  0.48392459  1
  H+  H215  1  0.12604243  0.61980553  0.85173305  1
  H+  H216  1  0.34751751  0.72857137  0.49182228  1
  H+  H217  1  0.14232550  0.62472178  0.32931102  1
  H+  H218  1  0.66754983  0.59654476  0.78260357  1
  H+  H219  1  0.38867365  0.27952761  0.50357681  1
  H+  H220  1  0.42039701  0.86858936  0.65786985  1
  H+  H221  1  0.48092446  0.62072522  0.14382407  1
  H+  H222  1  0.35556827  0.89364751  0.00969482  1
  H+  H223  1  0.19727186  0.29084359  0.33569519  1
  H+  H224  1  0.11934702  0.36407059  0.83942513  1
  H+  H225  1  0.46835344  0.11494368  0.65938426  1
  H+  H226  1  0.09882934  0.47023412  0.01458647  1
  H+  H227  1  0.70110060  0.40886199  0.66138015  1
  H+  H228  1  0.32134371  0.65921014  -0.04867362  1
  H+  H229  1  0.99559884  0.88454103  0.32842963  1
  H+  H230  1  0.08639705  0.12470821  0.83330850  1
  H+  H231  1  0.36742383  0.46259460  -0.00149897  1
  H+  H232  1  0.24830755  0.33586976  0.86833921  1
  H+  H233  1  0.11152622  0.74316405  1.00674736  1
  H+  H234  1  0.38317533  0.78151983  0.99895446  1
  H+  H235  1  0.59223601  0.65071046  0.55954854  1
  H+  H236  1  0.62055699  0.73112882  0.51819084  1
  H+  H237  1  0.27871979  0.39445071  0.15649481  1
  H+  H238  1  0.10548420  0.62571780  0.49039994  1
  H+  H239  1  0.37780758  0.73904589  0.33927786  1
  H+  H240  1  0.00080559  0.39550951  0.82974314  1
  H+  H241  1  0.90488884  0.83033115  0.25079749  1
  H+  H242  1  0.88943217  0.62157070  0.30896579  1
  H+  H243  1  0.90112295  0.26652535  0.85519864  1
  H+  H244  1  0.60079724  0.09113917  0.31606161  1
  H+  H245  1  0.64317770  0.26243275  0.84327831  1
  H+  H246  1  0.11356116  0.24804617  0.50089594  1
  H+  H247  1  0.20852646  0.10883875  0.84733553  1
  H+  H248  1  0.63264590  0.89801708  0.68063729  1
  H+  H249  1  0.39661776  0.55377502  0.91634932  1
  H+  H250  1  0.94042576  0.29026956  0.32310815  1
  H+  H251  1  0.47369704  0.11402415  0.99525903  1
  H+  H252  1  0.13452230  0.24215168  0.86954411  1
  H+  H253  1  0.21695029  0.11340983  0.99851407  1
  H+  H254  1  0.85230742  0.37363722  0.17444035  1
  H+  H255  1  0.36008492  0.14381460  0.49206417  1
  H+  H256  1  0.58741829  0.74653109  0.29994908  1
  H+  H257  1  0.64938950  0.57967163  0.90025931  1
  H+  H258  1  0.01038306  0.14302283  0.67746788  1
  H+  H259  1  0.35160188  0.21495058  0.83854564  1
  H+  H260  1  0.63412282  0.77070761  0.67034645  1
  H+  H261  1  0.91049682  0.33291910  0.61146888  1
  H+  H262  1  0.54527020  0.91630620  0.40076608  1
  H+  H263  1  0.13147356  0.27578669  0.66242779  1
  H+  H264  1  0.12616128  0.59617788  0.65750653  1
  H+  H265  1  0.10807035  0.46843195  0.67391992  1
  H+  H266  1  0.84340770  0.46157436  0.17395763  1
  H+  H267  1  0.98072467  0.12978635  0.49595792  1
  H+  H268  1  0.14273334  0.27663767  0.17191526  1
  H+  H269  1  1.06672199  0.40878412  0.33356751  1
  H+  H270  1  0.73206604  0.62683154  0.72498449  1
  H+  H271  1  0.68575011  0.34241730  0.30433024  1
  H+  H272  1  0.26710146  0.89627396  0.00827500  1
  H+  H273  1  0.73668333  0.10596456  0.84580168  1
  H+  H274  1  0.89018605  0.08091667  0.92798231  1
  H+  H275  1  0.87687839  0.01657559  0.66565296  1
  H+  H276  1  0.06831521  0.91101281  0.06295135  1
  H+  H277  1  0.64544997  0.86561946  0.84711276  1
  H+  H278  1  0.39742055  0.62230293  0.16331613  1
  H+  H279  1  0.87496490  0.22352130  0.15338994  1
  H+  H280  1  0.62379731  0.61662259  0.47336260  1
  H+  H281  1  0.37848001  0.28050922  0.16579527  1
  H+  H282  1  0.85154971  0.15167650  0.50046440  1
  H+  H283  1  -0.04440872  0.12891871  0.84023830  1
  H+  H284  1  0.72667736  0.85529118  1.00088908  1
  H+  H285  1  0.35538938  0.93405313  0.67539598  1
  H+  H286  1  0.88023222  0.13606179  0.15750789  1
  H+  H287  1  0.36260558  0.98287702  0.32247408  1
  H+  H288  1  0.23350091  0.62986933  0.32587825  1
  H+  H289  1  0.38057702  0.37199914  0.16734456  1
  H+  H290  1  0.32899485  0.16619545  0.77624196  1
  H+  H291  1  0.88340112  0.89979458  0.34204722  1
  H+  H292  1  0.65408327  0.58638033  0.20856391  1
  H+  H293  1  0.33403590  0.16616514  0.07525434  1
  H+  H294  1  0.60215328  0.23321914  0.47599184  1
  H+  H295  1  0.86047178  0.81920200  1.00250904  1
  H+  H296  1  0.57389623  0.83406611  0.29375706  1
  H+  H297  1  0.59367193  0.37984362  0.14998694  1
  H+  H298  1  0.06439304  0.43303368  0.76540776  1
  H+  H299  1  0.35450171  0.91999682  0.77842671  1
  H+  H300  1  0.14747192  0.56057485  0.55532508  1
  H+  H301  1  0.41892548  0.84369131  0.94267998  1
  H+  H302  1  0.67002043  0.32834249  0.93978634  1
  H+  H303  1  0.91489916  0.58697258  0.20973058  1
  H+  H304  1  0.33728747  0.67876973  0.39777099  1
  H+  H305  1  0.60059535  0.14348628  0.48073823  1
  H+  H306  1  0.06598368  0.91982511  0.77509153  1
  H+  H307  1  0.58218840  0.67282959  0.37532009  1
  H+  H308  1  0.82130675  0.39977698  0.07999174  1
  H+  H309  1  0.06839665  0.17010348  0.77711114  1
  H+  H310  1  0.41914622  0.09557794  0.55845421  1
  H+  H311  1  0.82246016  0.40044796  0.32877095  1
  H+  H312  1  0.92830998  0.32381063  0.22106417  1
  H+  H313  1  0.26251815  0.63512161  0.48870476  1
  H+  H314  1  0.34004394  0.61424770  0.86867666  1
  H+  H315  1  0.43685783  0.58063909  0.85022361  1
  H+  H316  1  0.08262163  0.41992053  0.41900201  1
  H+  H317  1  0.25681666  0.62739299  0.86647143  1
  H+  H318  1  0.09134235  0.42826239  0.10938968  1
  H+  H319  1  0.97392856  0.85346980  0.16290651  1
  H+  H320  1  0.34799370  0.94626911  0.10258210  1
  H+  H321  1  0.83317995  0.69947596  0.05285968  1
  H+  H322  1  0.32172185  0.17467489  0.39688202  1
  H+  H323  1  0.13949751  0.56029646  0.16545034  1
  H+  H324  1  0.12758760  0.57037563  0.91156568  1
  H+  H325  1  0.18493033  0.33527344  0.23090631  1
  H+  H326  1  0.63350061  0.86709301  0.15632347  1
  H+  H327  1  0.89347581  0.81664496  0.60395886  1
  H+  H328  1  0.26827582  0.63048525  0.01249652  1
  H+  H329  1  0.12562401  0.02835818  1.00047188  1
  H+  H330  1  0.66512859  0.07523967  0.22252018  1
  H+  H331  1  0.84804625  0.92173790  0.06353825  1
  H+  H332  1  0.40815075  0.33448514  0.25745323  1
  H+  H333  1  0.55663684  0.12412884  0.73844079  1
  H+  H334  1  0.33417557  0.92073060  0.37944639  1
  H+  H335  1  0.19595457  0.84571680  0.56053958  1
  H+  H336  1  0.83369181  0.91733730  0.74001992  1
  H+  H337  1  0.58852446  0.91789500  0.77352032  1
  H+  H338  1  0.10948883  0.38174691  0.68489844  1
  H+  H339  1  0.86130041  0.92017574  0.44094239  1
  H+  H340  1  0.54296207  0.65434049  0.78215874  1
  H+  H341  1  0.41708230  0.10965453  0.22465895  1
  H+  H342  1  0.92831689  0.56945056  0.95105166  1
  H+  H343  1  0.67841777  0.60417914  0.58932753  1
  H+  H344  1  0.07896125  0.66342837  0.77983036  1
  H+  H345  1  0.91737677  0.32428027  0.95009333  1
  H+  H346  1  0.17035871  0.29166990  0.93622024  1
  H+  H347  1  0.84453595  0.45223252  0.45066590  1
  H+  H348  1  0.42835787  0.84553613  0.55651331  1
  H+  H349  1  0.62282790  0.60908857  0.30719293  1
  H+  H350  1  0.16402897  0.09619404  0.57979980  1
  H+  H351  1  0.83790494  0.15367040  0.07180000  1
  H+  H352  1  0.92323223  0.58744917  0.61807464  1
  H+  H353  1  0.67740403  0.56393940  0.57857844  1
  H+  H354  1  0.56350116  0.15913802  0.38643086  1
  H+  H355  1  0.62609506  0.98115574  0.15339687  1
  H+  H356  1  0.10159331  0.71753100  0.07517863  1
  H+  H357  1  0.79705916  0.14987443  0.40761519  1
  H+  H358  1  0.62720295  0.81341056  0.23235432  1
  H+  H359  1  0.10129162  0.85295114  0.14132228  1
  H+  H360  1  0.14113131  0.68421190  0.17689273  1
  H+  H361  1  0.35111652  0.69108376  0.10030338  1
  H+  H362  1  0.52595168  0.12935780  0.83410290  1
  H+  H363  1  0.65464680  0.31059929  0.55002585  1
  H+  H364  1  0.85982879  0.15672708  0.78766625  1
  H+  H365  1  0.15017887  0.76648576  0.22467354  1
  H+  H366  1  0.56281006  0.38883214  0.75889657  1
  H+  H367  1  0.15062665  0.08377795  0.90748952  1
  H+  H368  1  0.47871060  0.60893979  1.01249221  1
  H+  H369  1  0.58120661  0.41951010  0.05945941  1
  H+  H370  1  -0.01437538  0.87381073  0.67584819  1
  H+  H371  1  0.42649886  0.35270020  0.55713203  1
  H+  H372  1  0.58955211  0.91946024  0.09312526  1
  H+  H373  1  0.82093487  0.66350827  0.37649670  1
  H+  H374  1  0.41789861  0.31884388  0.90730769  1
  H+  H375  1  0.30514981  0.39596306  0.42269846  1
  H+  H376  1  0.93330929  0.09033314  0.22749357  1
  H+  H377  1  0.84961959  0.41738845  0.78883110  1
  H+  H378  1  0.66833102  0.07942448  0.93449276  1
  H+  H379  1  0.89730331  0.07698264  0.60725621  1
  H+  H380  1  0.03288586  0.53965746  0.98020024  1
  H+  H381  1  0.38896870  0.35345504  0.98851871  1
  H+  H382  1  0.07875215  0.67302265  0.39801916  1
  H+  H383  1  0.05487737  0.89533339  0.38562337  1
  O2-  O384  1  0.09377908  0.16767246  0.14018684  1
  O2-  O385  1  0.08567112  0.18654976  0.48598152  1
  O2-  O386  1  0.06088880  0.16103685  0.82178679  1
  O2-  O387  1  0.08727872  0.43238170  0.15444216  1
  O2-  O388  1  0.05793163  0.39157651  0.46570987  1
  O2-  O389  1  0.04342679  0.44793941  0.80424859  1
  O2-  O390  1  0.11726373  0.72562233  0.18786249  1
  O2-  O391  1  0.08049239  0.66383213  0.48243933  1
  O2-  O392  1  0.07974154  0.67111749  0.82443057  1
  O2-  O393  1  0.07599602  0.89243962  0.13706788  1
  O2-  O394  1  0.06527788  0.86521563  0.47316427  1
  O2-  O395  1  0.07240173  0.91840095  0.81970425  1
  O2-  O396  1  0.32821971  0.16793846  0.13328148  1
  O2-  O397  1  0.33348446  0.17900849  0.48093430  1
  O2-  O398  1  0.32126547  0.15554413  0.82023298  1
  O2-  O399  1  0.33875272  0.41973998  0.14200003  1
  O2-  O400  1  0.30817004  0.39935085  0.46774829  1
  O2-  O401  1  0.30943478  0.38460727  0.84012704  1
  O2-  O402  1  0.34336945  0.68680603  0.14426532  1
  O2-  O403  1  0.32423083  0.66918471  0.47720691  1
  O2-  O404  1  0.31969827  0.65702517  0.87470223  1
  O2-  O405  1  0.36461098  0.96051889  0.14581182  1
  O2-  O406  1  0.34526049  0.92829386  0.47826602  1
  O2-  O407  1  0.33759062  0.91541692  0.82166940  1
  O2-  O408  1  0.59950215  0.22875678  0.15042379  1
  O2-  O409  1  0.56820036  0.17149902  0.46438691  1
  O2-  O410  1  0.58337449  0.15751890  0.81356375  1
  O2-  O411  1  0.56954067  0.41564752  0.13561546  1
  O2-  O412  1  0.56647339  0.40390713  0.46241486  1
  O2-  O413  1  0.55113574  0.35071434  0.79522295  1
  O2-  O414  1  0.59244429  0.67696712  0.10915741  1
  O2-  O415  1  0.58446413  0.66726316  0.51878961  1
  O2-  O416  1  0.52961491  0.63680043  0.82495735  1
  O2-  O417  1  0.59145884  0.91856567  0.13889300  1
  O2-  O418  1  0.56453154  0.92810655  0.44469494  1
  O2-  O419  1  0.58826008  0.91733708  0.81882711  1
  O2-  O420  1  0.84547783  0.16166193  0.14112123  1
  O2-  O421  1  0.81856265  0.17831416  0.48530390  1
  O2-  O422  1  0.85766308  0.15308529  0.83502461  1
  O2-  O423  1  0.81210401  0.39626821  0.18177264  1
  O2-  O424  1  0.83339364  0.44377652  0.49428229  1
  O2-  O425  1  0.84430486  0.41243995  0.83384801  1
  O2-  O426  1  0.82785587  0.66409304  0.12849554  1
  O2-  O427  1  0.81511923  0.66049706  0.45992612  1
  O2-  O428  1  0.84864273  0.68739990  0.83140454  1
  O2-  O429  1  0.84172681  0.92498429  0.13930168  1
  O2-  O430  1  0.84874810  0.91344509  0.48621528  1
  O2-  O431  1  0.83439619  0.91995010  0.81811769  1
  O2-  O432  1  0.16789561  0.07616394  0.16886250  1
  O2-  O433  1  0.17401353  0.11123607  0.53568292  1
  O2-  O434  1  0.14801136  0.07943602  0.86166026  1
  O2-  O435  1  0.17055265  0.33683033  0.18780793  1
  O2-  O436  1  0.16584976  0.34676948  0.52709796  1
  O2-  O437  1  0.18576442  0.27731822  0.89544167  1
  O2-  O438  1  0.16959402  0.62275875  0.15853432  1
  O2-  O439  1  0.15190680  0.56722161  0.51035796  1
  O2-  O440  1  0.14421890  0.57818286  0.86695508  1
  O2-  O441  1  0.13232151  0.78072265  0.13380075  1
  O2-  O442  1  0.18854601  0.83498627  0.51627632  1
  O2-  O443  1  0.16572418  0.83917597  0.85096479  1
  O2-  O444  1  0.42819580  0.11845047  0.18013140  1
  O2-  O445  1  0.41318815  0.08600760  0.51357041  1
  O2-  O446  1  0.41892642  0.08097294  0.85962525  1
  O2-  O447  1  0.41071524  0.33879690  0.18327771  1
  O2-  O448  1  0.42354338  0.34330750  0.51212381  1
  O2-  O449  1  0.40827035  0.31666598  0.86162036  1
  O2-  O450  1  0.42847458  0.59047158  0.16844941  1
  O2-  O451  1  0.40906086  0.59765132  0.53569102  1
  O2-  O452  1  0.37946179  0.54788744  0.87264012  1
  O2-  O453  1  0.42973555  0.85104831  0.18115671  1
  O2-  O454  1  0.41790585  0.84766566  0.51160019  1
  O2-  O455  1  0.42142841  0.83384391  0.86487170  1
  O2-  O456  1  0.67405998  0.07468120  0.17842295  1
  O2-  O457  1  0.64661787  0.08871265  0.50733296  1
  O2-  O458  1  0.67532361  0.08252912  0.85586005  1
  O2-  O459  1  0.63390002  0.31393468  0.17815361  1
  O2-  O460  1  0.65672675  0.33718433  0.50966450  1
  O2-  O461  1  0.67293722  0.32303015  0.85851613  1
  O2-  O462  1  0.65562669  0.58537961  0.16347116  1
  O2-  O463  1  0.64995265  0.58938747  0.44842806  1
  O2-  O464  1  0.63012947  0.56414930  0.85648950  1
  O2-  O465  1  0.65920856  0.83086388  0.17363088  1
  O2-  O466  1  0.68840392  0.83949278  0.53014573  1
  O2-  O467  1  0.68040076  0.83947639  0.85928778  1
  O2-  O468  1  0.93235251  0.08689454  0.18227533  1
  O2-  O469  1  0.91571872  0.09269539  0.49663482  1
  O2-  O470  1  0.89260743  0.09675329  0.85207826  1
  O2-  O471  1  0.91930644  0.32951284  0.17717593  1
  O2-  O472  1  0.90746258  0.34311925  0.52876544  1
  O2-  O473  1  0.92446389  0.32721801  0.86813553  1
  O2-  O474  1  0.89224635  0.56150696  0.16946530  1
  O2-  O475  1  0.93262553  0.60685894  0.53909895  1
  O2-  O476  1  0.91548976  0.58805725  0.87269776  1
  O2-  O477  1  0.91284125  0.82752300  0.17686121  1
  O2-  O478  1  0.90845628  0.80901409  0.52438513  1
  O2-  O479  1  0.91284048  0.83922116  0.86033843  1
  O2-  O480  1  0.18393710  0.04644141  0.29187018  1
  O2-  O481  1  0.13707970  0.06888459  0.65560130  1
  O2-  O482  1  0.15664654  0.08978989  0.98641465  1
  O2-  O483  1  0.22209721  0.34679493  0.31304932  1
  O2-  O484  1  0.16399824  0.33744347  0.64896209  1
  O2-  O485  1  0.16490525  0.31876640  1.00729727  1
  O2-  O486  1  0.17178582  0.59337097  0.31603798  1
  O2-  O487  1  0.15221036  0.56518311  0.63594787  1
  O2-  O488  1  0.09594348  0.56076427  0.98317268  1
  O2-  O489  1  0.17862821  0.81454055  0.28307749  1
  O2-  O490  1  0.24654666  0.89303640  0.63703526  1
  O2-  O491  1  0.16266070  0.84859080  0.97708959  1
  O2-  O492  1  0.39711041  0.08446852  0.30284693  1
  O2-  O493  1  0.41766930  0.11298093  0.63700968  1
  O2-  O494  1  0.41057748  0.08712536  0.98106426  1
  O2-  O495  1  0.40757081  0.33515966  0.30377881  1
  O2-  O496  1  0.42816836  0.36882022  0.63514045  1
  O2-  O497  1  0.42079940  0.31980299  0.98118436  1
  O2-  O498  1  0.40797144  0.57738860  0.32314640  1
  O2-  O499  1  0.40799820  0.57646909  0.64964654  1
  O2-  O500  1  0.42084694  0.57645338  0.99397443  1
  O2-  O501  1  0.44168616  0.85079060  0.30662203  1
  O2-  O502  1  0.43944348  0.83519772  0.63194631  1
  O2-  O503  1  0.41569236  0.84311043  0.98822005  1
  O2-  O504  1  0.62526021  0.05350930  0.30465458  1
  O2-  O505  1  0.66274019  0.09399474  0.63582405  1
  O2-  O506  1  0.66185854  0.07507224  0.97976667  1
  O2-  O507  1  0.62429114  0.31301875  0.29636895  1
  O2-  O508  1  0.66656265  0.25264110  0.60819129  1
  O2-  O509  1  0.66432683  0.32918354  0.98466563  1
  O2-  O510  1  0.65413496  0.57966668  0.29262180  1
  O2-  O511  1  0.67043354  0.60142990  0.73732180  1
  O2-  O512  1  0.66506789  0.58715681  0.97500291  1
  O2-  O513  1  0.60582711  0.80479002  0.27954504  1
  O2-  O514  1  0.67036478  0.83144824  0.65570503  1
  O2-  O515  1  0.66507958  0.82077410  0.98991492  1
  O2-  O516  1  0.91878001  0.09286031  0.30888141  1
  O2-  O517  1  0.90634365  0.07800690  0.65104359  1
  O2-  O518  1  0.89526655  0.07717734  0.97345036  1
  O2-  O519  1  0.96088017  0.34153043  0.29804203  1
  O2-  O520  1  0.91251049  0.33219383  0.65666113  1
  O2-  O521  1  0.91393728  0.31837110  0.99509747  1
  O2-  O522  1  0.93210126  0.60476275  0.29576270  1
  O2-  O523  1  0.92221256  0.58624795  0.66335471  1
  O2-  O524  1  0.94215421  0.55291117  0.99085947  1
  O2-  O525  1  0.89994765  0.82830099  0.29665539  1
  O2-  O526  1  0.89369956  0.82120430  0.64916105  1
  O2-  O527  1  0.89482569  0.88440679  0.99469540  1
  O2-  O528  1  0.08403870  0.17096310  0.07305742  1
  O2-  O529  1  0.15382779  0.19284788  0.37088261  1
  O2-  O530  1  0.07082387  0.17443258  0.69279018  1
  O2-  O531  1  0.08400485  0.41321742  0.03142377  1
  O2-  O532  1  0.11241248  0.44439810  0.36276036  1
  O2-  O533  1  0.07868915  0.41316030  0.69684055  1
  O2-  O534  1  0.08773654  0.69090734  0.03270073  1
  O2-  O535  1  0.08551394  0.67709319  0.35342590  1
  O2-  O536  1  0.08003906  0.64286403  0.69815776  1
  O2-  O537  1  0.06677675  0.92312102  0.01842365  1
  O2-  O538  1  0.04503103  0.92813843  0.35414875  1
  O2-  O539  1  0.04737645  0.90655779  0.69233642  1
  O2-  O540  1  0.33800960  0.16653276  0.02325178  1
  O2-  O541  1  0.32457530  0.17333124  0.35192059  1
  O2-  O542  1  0.36581221  0.21466133  0.69164942  1
  O2-  O543  1  0.33855672  0.40129367  -0.01289399  1
  O2-  O544  1  0.30699823  0.39816310  0.34160952  1
  O2-  O545  1  0.32621855  0.42134449  0.67615275  1
  O2-  O546  1  0.32698891  0.66246173  -0.00280491  1
  O2-  O547  1  0.34098157  0.67913975  0.35262857  1
  O2-  O548  1  0.36805508  0.68308098  0.71540927  1
  O2-  O549  1  0.32798747  0.92726279  0.02250082  1
  O2-  O550  1  0.34690400  0.92307701  0.33607131  1
  O2-  O551  1  0.40139073  0.93552592  0.70047534  1
  O2-  O552  1  0.56785393  0.15510057  0.01498359  1
  O2-  O553  1  0.55951601  0.15139655  0.34128628  1
  O2-  O554  1  0.53553770  0.09733211  0.69730480  1
  O2-  O555  1  0.58543586  0.42000906  0.01390636  1
  O2-  O556  1  0.56207397  0.40695217  0.35012126  1
  O2-  O557  1  0.57773156  0.44771478  0.69457522  1
  O2-  O558  1  0.58814083  0.66669693  0.04232132  1
  O2-  O559  1  0.56776403  0.66153922  0.33228171  1
  O2-  O560  1  0.57438097  0.67129804  0.69901114  1
  O2-  O561  1  0.58590694  0.91118487  0.01809936  1
  O2-  O562  1  0.53154385  0.89181250  0.32706730  1
  O2-  O563  1  0.60301523  0.93018500  0.69277666  1
  O2-  O564  1  0.83343213  0.15320603  0.02478257  1
  O2-  O565  1  0.78461052  0.13115057  0.36419320  1
  O2-  O566  1  0.85277314  0.17047628  0.71899133  1
  O2-  O567  1  0.82778025  0.39920434  0.03576801  1
  O2-  O568  1  0.86750663  0.42397333  0.29810576  1
  O2-  O569  1  0.85524911  0.42696527  0.70798440  1
  O2-  O570  1  0.83180360  0.71971648  0.01090786  1
  O2-  O571  1  0.82201184  0.66126628  0.33157169  1
  O2-  O572  1  0.83871421  0.67061297  0.70884238  1
  O2-  O573  1  0.84094181  0.91902073  0.01746251  1
  O2-  O574  1  0.90476294  0.94810232  0.37200904  1
  O2-  O575  1  0.83186742  0.91622019  0.69425902  1
