# generated using pymatgen
data_H2O
_symmetry_space_group_name_H-M   'P 1'
_cell_length_a   17.99090072
_cell_length_b   17.98934453
_cell_length_c   22.01494827
_cell_angle_alpha   90.01517039
_cell_angle_beta   89.99164583
_cell_angle_gamma   120.01833867
_symmetry_Int_Tables_number   1
_chemical_formula_structural   H2O
_chemical_formula_sum   'H384 O192'
_cell_volume   6169.30509377
_cell_formula_units_Z   192
loop_
 _symmetry_equiv_pos_site_id
 _symmetry_equiv_pos_as_xyz
  1  'x, y, z'
loop_
 _atom_type_symbol
 _atom_type_oxidation_number
  H+  1.0
  O2-  -2.0
loop_
 _atom_site_type_symbol
 _atom_site_label
 _atom_site_symmetry_multiplicity
 _atom_site_fract_x
 _atom_site_fract_y
 _atom_site_fract_z
 _atom_site_occupancy
  H+  H0  1  0.13462201  0.00092113  1.00328786  1
  H+  H1  1  0.77750098  0.89145201  0.67661478  1
  H+  H2  1  0.12736256  0.51710743  0.32565075  1
  H+  H3  1  0.47834124  0.31490229  0.49309261  1
  H+  H4  1  0.42184109  0.59102896  0.22473730  1
  H+  H5  1  0.72149772  0.37285335  0.85740087  1
  H+  H6  1  0.61237257  0.22337639  0.84985151  1
  H+  H7  1  0.50605484  0.61047357  1.01868914  1
  H+  H8  1  0.88744117  0.27817703  1.03208402  1
  H+  H9  1  0.89401237  0.36564979  0.64852887  1
  H+  H10  1  0.86479227  0.00680051  1.00357267  1
  H+  H11  1  0.87012916  0.26457905  0.82718954  1
  H+  H12  1  0.35206452  0.22939254  0.15900423  1
  H+  H13  1  0.88506733  0.77245985  0.98805567  1
  H+  H14  1  0.61378678  -0.01889997  0.66699297  1
  H+  H15  1  0.22703064  0.87561661  0.16746805  1
  H+  H16  1  0.33651976  0.12376139  0.33160466  1
  H+  H17  1  0.53500632  0.64533698  0.66149354  1
  H+  H18  1  0.14183882  0.65034526  0.66954694  1
  H+  H19  1  0.11153925  0.97867165  0.15724389  1
  H+  H20  1  0.36268197  0.16688438  0.83069245  1
  H+  H21  1  0.63662468  0.11787266  1.00766204  1
  H+  H22  1  0.61157625  0.08060012  0.15500470  1
  H+  H23  1  0.32614696  0.18630111  0.77106171  1
  H+  H24  1  0.36583981  0.22511608  0.67155058  1
  H+  H25  1  0.35581666  1.00343202  0.16361624  1
  H+  H26  1  0.66332130  0.41027134  0.58265153  1
  H+  H27  1  0.61549862  0.74832886  0.48151503  1
  H+  H28  1  0.38777623  0.61098255  0.49522024  1
  H+  H29  1  0.46610756  0.86536950  0.52294034  1
  H+  H30  1  0.22321739  0.60873508  0.16507123  1
  H+  H31  1  0.61313448  0.88440486  0.82156604  1
  H+  H32  1  0.62038734  0.84170612  0.17202781  1
  H+  H33  1  0.16745921  0.83426975  0.22553535  1
  H+  H34  1  0.86856916  0.22896855  0.66932078  1
  H+  H35  1  0.62561704  0.64524256  0.81790560  1
  H+  H36  1  0.37293579  0.71797021  0.67435237  1
  H+  H37  1  0.76751121  0.38358208  0.77513296  1
  H+  H38  1  0.47988583  0.12943992  0.84078816  1
  H+  H39  1  0.62890999  0.85227748  1.01119295  1
  H+  H40  1  0.26796358  0.38907979  0.17982913  1
  H+  H41  1  0.10640472  0.97274116  0.29386058  1
  H+  H42  1  0.50422468  0.35481891  0.99021531  1
  H+  H43  1  0.85657053  0.88347188  1.01154869  1
  H+  H44  1  0.90742245  0.52188981  0.19163627  1
  H+  H45  1  0.66335474  0.57195990  0.28194903  1
  H+  H46  1  0.61762755  0.37626809  0.33869215  1
  H+  H47  1  0.72774372  0.87152512  0.83725330  1
  H+  H48  1  0.74536920  0.65156782  0.50446724  1
  H+  H49  1  0.34699954  0.70248248  -0.00888376  1
  H+  H50  1  0.29935807  0.40138922  0.63379989  1
  H+  H51  1  0.88701879  0.86858887  0.66280897  1
  H+  H52  1  0.34504603  0.95061655  0.67881143  1
  H+  H53  1  0.55741149  0.21426081  0.46329832  1
  H+  H54  1  0.87256422  0.02084086  0.84632379  1
  H+  H55  1  1.02609534  0.39671186  0.66175586  1
  H+  H56  1  0.85957140  0.38631124  0.16724005  1
  H+  H57  1  0.82605608  0.67652381  -0.06120045  1
  H+  H58  1  0.48639911  0.62954656  0.49446537  1
  H+  H59  1  0.09386814  0.67024783  0.42780024  1
  H+  H60  1  0.85966747  0.64434499  0.34317818  1
  H+  H61  1  0.09977828  0.50401760  0.82946415  1
  H+  H62  1  0.57698491  0.49633553  0.47246259  1
  H+  H63  1  1.00187935  0.11460698  0.83747312  1
  H+  H64  1  0.89869480  0.61951520  0.49408688  1
  H+  H65  1  0.10790243  0.14209507  0.16544546  1
  H+  H66  1  0.86146549  0.64415203  0.83439688  1
  H+  H67  1  0.13092180  0.85503927  0.84159571  1
  H+  H68  1  0.09245648  0.92229567  0.07044730  1
  H+  H69  1  0.45596540  0.83589764  0.49567475  1
  H+  H70  1  0.51301650  0.38294591  0.16005498  1
  H+  H71  1  0.83136567  0.15829060  1.09009061  1
  H+  H72  1  0.86674682  0.13859023  0.67278954  1
  H+  H73  1  0.23299142  0.10312990  0.50003499  1
  H+  H74  1  0.63495191  0.03037069  0.31675953  1
  H+  H75  1  0.85626211  0.13716753  0.82764596  1
  H+  H76  1  0.98020868  0.35662725  1.01618509  1
  H+  H77  1  0.81624193  0.89750127  0.10936107  1
  H+  H78  1  0.89482339  0.01143194  0.51354149  1
  H+  H79  1  0.65218604  0.28355437  0.71698347  1
  H+  H80  1  0.71795553  0.62054526  0.17885422  1
  H+  H81  1  0.08591540  0.91972512  0.77617334  1
  H+  H82  1  0.21023743  0.59456793  0.98533898  1
  H+  H83  1  0.88040487  0.89107554  0.48964294  1
  H+  H84  1  0.77537875  0.64818886  0.68619721  1
  H+  H85  1  0.63127964  0.39252597  0.67607859  1
  H+  H86  1  0.64476495  0.62038812  0.65659057  1
  H+  H87  1  0.36126624  0.14535111  0.15523792  1
  H+  H88  1  0.25345834  0.41953546  0.88162631  1
  H+  H89  1  0.64088862  0.34811900  0.76175040  1
  H+  H90  1  0.88374935  0.62683135  0.98078838  1
  H+  H91  1  0.36508683  1.02203343  0.30609009  1
  H+  H92  1  0.52520946  0.62778680  0.11689495  1
  H+  H93  1  0.65959470  0.91343490  0.34481393  1
  H+  H94  1  0.57316539  0.58219994  0.34395229  1
  H+  H95  1  0.34702231  0.94804514  0.84687544  1
  H+  H96  1  0.39627928  0.61252089  0.65049753  1
  H+  H97  1  0.38566918  0.85448646  0.67114017  1
  H+  H98  1  0.15085027  0.27020447  0.50936913  1
  H+  H99  1  0.88053804  0.77891778  0.32889355  1
  H+  H100  1  0.13302584  0.27485485  0.19033580  1
  H+  H101  1  0.72204748  0.37290788  0.17103011  1
  H+  H102  1  0.89125992  0.53934918  0.33481440  1
  H+  H103  1  0.65028902  0.38236447  0.01401237  1
  H+  H104  1  0.52232549  0.36466169  0.34034415  1
  H+  H105  1  1.01359204  0.63144647  0.82002511  1
  H+  H106  1  0.86963269  0.89497785  0.83381679  1
  H+  H107  1  0.09234407  0.11319419  0.83776437  1
  H+  H108  1  0.12089113  0.73370317  0.15609583  1
  H+  H109  1  0.40470006  1.04352999  0.50916082  1
  H+  H110  1  0.39145718  0.08837414  0.24905851  1
  H+  H111  1  0.47880283  0.85652643  0.83457004  1
  H+  H112  1  0.15582453  0.55257285  0.65218134  1
  H+  H113  1  0.96967978  0.84949650  0.15882138  1
  H+  H114  1  0.23065160  0.10851739  0.00191428  1
  H+  H115  1  0.36005732  0.47565104  0.16890655  1
  H+  H116  1  0.86688109  0.97995086  0.68088788  1
  H+  H117  1  0.38626179  0.29879946  0.84166907  1
  H+  H118  1  0.66744196  0.07279872  0.50377434  1
  H+  H119  1  0.76564027  0.12880447  0.17175621  1
  H+  H120  1  0.63744147  0.52932267  0.84468092  1
  H+  H121  1  1.01393634  0.63645388  1.00337337  1
  H+  H122  1  0.12084840  0.23266201  0.35394815  1
  H+  H123  1  0.36871774  0.10643754  0.50852250  1
  H+  H124  1  0.08033526  0.47780708  0.48411410  1
  H+  H125  1  1.02603703  0.64412602  0.34089116  1
  H+  H126  1  0.25739044  0.69930773  0.58430011  1
  H+  H127  1  0.89129160  0.22345964  0.47800713  1
  H+  H128  1  0.12380663  0.25551398  0.08313902  1
  H+  H129  1  0.67785784  0.35015217  0.95551932  1
  H+  H130  1  0.61910937  0.58504621  0.18970674  1
  H+  H131  1  0.35020006  0.71624555  0.33956538  1
  H+  H132  1  0.75583347  0.85419668  0.16603001  1
  H+  H133  1  0.26217270  0.77525823  0.54600270  1
  H+  H134  1  0.87954756  0.40547064  0.32268295  1
  H+  H135  1  0.36436855  0.62982642  0.14293025  1
  H+  H136  1  0.59739626  0.48365949  0.49703623  1
  H+  H137  1  0.60841826  0.13072205  0.83984868  1
  H+  H138  1  0.57487171  0.93568033  0.48970014  1
  H+  H139  1  0.99961579  0.38258353  0.32749868  1
  H+  H140  1  0.39173642  0.48307908  0.63511416  1
  H+  H141  1  0.36886649  0.71753040  0.81780601  1
  H+  H142  1  0.91724851  0.32488106  0.59183603  1
  H+  H143  1  0.02146528  0.14324111  0.17825237  1
  H+  H144  1  0.62241728  0.76143973  1.02152296  1
  H+  H145  1  0.21762866  0.11627005  0.32060150  1
  H+  H146  1  0.58236501  0.42117247  0.07572790  1
  H+  H147  1  0.62339256  0.24680959  0.01698703  1
  H+  H148  1  0.41038166  0.35756188  0.63795316  1
  H+  H149  1  0.63253074  0.15664650  0.68865682  1
  H+  H150  1  0.99772777  0.61071154  0.18704292  1
  H+  H151  1  0.36256366  0.41488619  0.54911166  1
  H+  H152  1  0.14062974  0.77319181  0.32084156  1
  H+  H153  1  0.11322669  0.63349004  0.48848608  1
  H+  H154  1  0.34400785  0.43012347  0.02415656  1
  H+  H155  1  0.73615102  0.36990435  0.32062339  1
  H+  H156  1  0.11126559  0.98253153  0.68257863  1
  H+  H157  1  0.62369129  0.66640276  0.48941880  1
  H+  H158  1  0.38731873  0.50580147  0.86088672  1
  H+  H159  1  0.11109493  0.88621966  0.29495936  1
  H+  H160  1  0.45704734  0.63237743  0.88918754  1
  H+  H161  1  0.10215167  0.38275572  -0.04204814  1
  H+  H162  1  0.35657179  0.13765574  0.00937384  1
  H+  H163  1  0.37670759  0.37461446  0.33840125  1
  H+  H164  1  0.51725488  0.39228926  0.83019442  1
  H+  H165  1  0.31728935  0.69037055  0.49601857  1
  H+  H166  1  0.88849137  0.53816779  -0.00584966  1
  H+  H167  1  -0.02118812  0.11980425  0.67168868  1
  H+  H168  1  0.71686659  0.11596118  0.30725629  1
  H+  H169  1  0.44772472  0.58163324  0.31423483  1
  H+  H170  1  0.63132032  0.36828797  0.85881100  1
  H+  H171  1  0.89185999  0.78419397  0.84895498  1
  H+  H172  1  0.13361195  0.36366109  0.18756078  1
  H+  H173  1  0.61122038  0.35181646  0.49249988  1
  H+  H174  1  0.37306345  0.60650873  0.30780292  1
  H+  H175  1  0.60093092  0.15891795  0.48004376  1
  H+  H176  1  0.87796215  0.84152193  0.16626904  1
  H+  H177  1  0.89560957  0.02861124  0.29811176  1
  H+  H178  1  0.31056276  0.90562262  0.49677878  1
  H+  H179  1  0.48899421  0.09494815  0.14290194  1
  H+  H180  1  0.99240732  0.86291965  0.51379245  1
  H+  H181  1  0.76241071  0.87453408  1.01697368  1
  H+  H182  1  0.32192080  0.65086704  0.05280934  1
  H+  H183  1  0.11302722  0.39951004  0.34892032  1
  H+  H184  1  0.31406642  0.15269438  0.42101379  1
  H+  H185  1  0.11413158  0.35459901  0.02212553  1
  H+  H186  1  0.76517090  0.63295541  0.34786080  1
  H+  H187  1  0.60480392  0.38889883  0.16042522  1
  H+  H188  1  0.99098204  0.62302433  0.49133282  1
  H+  H189  1  0.14331901  0.09914844  0.61534947  1
  H+  H190  1  0.11357936  0.60726731  0.83984615  1
  H+  H191  1  0.35084123  0.21040343  0.48335452  1
  H+  H192  1  0.42282922  0.92454983  1.02242476  1
  H+  H193  1  0.94423040  0.19001573  0.44166181  1
  H+  H194  1  0.12607584  0.50382511  0.98823810  1
  H+  H195  1  0.02879042  0.12511638  0.51119227  1
  H+  H196  1  0.61104326  0.98324908  0.01207505  1
  H+  H197  1  0.38089113  0.35977179  0.18698311  1
  H+  H198  1  0.97426829  0.86508069  0.99986634  1
  H+  H199  1  0.25696574  0.86393677  0.83616743  1
  H+  H200  1  0.11058898  0.47703132  0.16060229  1
  H+  H201  1  0.43393100  0.82456802  0.27417391  1
  H+  H202  1  0.64476781  0.27806570  0.31931946  1
  H+  H203  1  0.22675564  0.46329421  0.60857084  1
  H+  H204  1  0.38972061  0.06620490  0.81138288  1
  H+  H205  1  0.22945378  0.86372280  0.31968056  1
  H+  H206  1  0.11736914  0.88634159  1.00778871  1
  H+  H207  1  0.73127240  0.12051364  0.66038379  1
  H+  H208  1  0.90121572  0.29617410  0.33204571  1
  H+  H209  1  0.53228525  0.16362213  0.00035022  1
  H+  H210  1  0.36775588  0.89222674  0.33144202  1
  H+  H211  1  0.45675773  0.26449505  0.29163560  1
  H+  H212  1  0.23462530  0.36395743  0.34049848  1
  H+  H213  1  0.71577257  0.10966918  0.82996369  1
  H+  H214  1  0.36807128  0.57838430  0.99006025  1
  H+  H215  1  0.52665137  0.88898176  0.66551659  1
  H+  H216  1  0.84060233  0.37601039  0.81572259  1
  H+  H217  1  0.47590368  0.75920444  0.21752367  1
  H+  H218  1  0.10367312  0.88868317  0.67839737  1
  H+  H219  1  0.74149725  0.87480937  0.32192880  1
  H+  H220  1  0.17538678  0.85600915  0.51611630  1
  H+  H221  1  0.64702250  0.78182634  0.65441971  1
  H+  H222  1  0.52503655  0.89158523  -0.00117508  1
  H+  H223  1  0.62802186  0.01942755  0.83012209  1
  H+  H224  1  0.26783081  0.14983565  0.67888044  1
  H+  H225  1  0.20786027  0.58412881  0.50189198  1
  H+  H226  1  0.47581073  0.85636977  0.33916592  1
  H+  H227  1  0.64402840  0.78185300  0.82769328  1
  H+  H228  1  0.12654338  0.76948549  0.99762961  1
  H+  H229  1  0.89795043  0.48981923  0.47675357  1
  H+  H230  1  0.37616859  0.41203107  0.87456375  1
  H+  H231  1  0.20042974  0.05792722  0.56465689  1
  H+  H232  1  0.60082286  0.74546590  0.18348701  1
  H+  H233  1  -0.03082890  0.86001549  0.30307071  1
  H+  H234  1  0.90231020  0.33006498  0.88300469  1
  H+  H235  1  0.38122463  1.06020375  0.60919495  1
  H+  H236  1  0.60779401  0.14464218  0.31990529  1
  H+  H237  1  0.59993016  0.62469096  1.02735848  1
  H+  H238  1  0.87932408  0.73519459  0.49204975  1
  H+  H239  1  0.12796456  0.12774652  0.67921235  1
  H+  H240  1  0.41044400  0.35114297  0.49971314  1
  H+  H241  1  0.49759775  0.84156291  0.18031927  1
  H+  H242  1  0.87694807  0.10774049  0.20359917  1
  H+  H243  1  0.33062003  0.81278914  -0.03259806  1
  H+  H244  1  0.79201622  0.89275799  0.48927110  1
  H+  H245  1  0.78832838  0.40664650  0.02150475  1
  H+  H246  1  0.41191079  0.04533000  0.99437451  1
  H+  H247  1  0.84935345  0.11108540  0.31989498  1
  H+  H248  1  0.40407825  0.63070634  0.82846637  1
  H+  H249  1  0.02801138  0.89068439  0.83640489  1
  H+  H250  1  0.35791279  0.22111102  0.33693556  1
  H+  H251  1  0.38483629  0.84850005  0.83541872  1
  H+  H252  1  0.86258423  0.73675674  0.68766271  1
  H+  H253  1  0.21930356  0.11630898  0.16717268  1
  H+  H254  1  0.72141943  0.11265061  0.01934676  1
  H+  H255  1  0.72652994  0.61841960  0.84712290  1
  H+  H256  1  0.74038798  0.44823084  0.53596863  1
  H+  H257  1  0.39618953  0.90739193  0.48057561  1
  H+  H258  1  0.13780526  0.61546463  0.16644917  1
  H+  H259  1  0.13113413  0.96308944  0.50001059  1
  H+  H260  1  0.67296295  0.89894627  0.50733129  1
  H+  H261  1  0.47306177  0.17481389  0.19125423  1
  H+  H262  1  0.97613257  0.87048160  0.66699344  1
  H+  H263  1  0.41678100  0.31989479  0.23881812  1
  H+  H264  1  -0.00016714  0.39293905  0.81079755  1
  H+  H265  1  0.96794030  0.35420130  0.17240878  1
  H+  H266  1  0.61976377  0.48472198  1.01646155  1
  H+  H267  1  0.43765381  0.33920014  0.90361758  1
  H+  H268  1  0.87602872  0.89856844  0.32912516  1
  H+  H269  1  0.94857740  0.60089870  0.58261415  1
  H+  H270  1  0.11564926  0.89082206  0.15777263  1
  H+  H271  1  0.12906197  0.11605688  0.32369486  1
  H+  H272  1  0.14217682  0.02217178  0.84811368  1
  H+  H273  1  0.87727453  0.40647534  0.02643849  1
  H+  H274  1  0.05798770  0.42968787  0.41450327  1
  H+  H275  1  0.91783241  0.54811974  0.64331823  1
  H+  H276  1  0.87741064  0.52499104  0.83741957  1
  H+  H277  1  0.12128484  0.76540831  0.66443989  1
  H+  H278  1  0.92232841  0.08000488  0.61060192  1
  H+  H279  1  0.10061241  0.89654147  0.44572715  1
  H+  H280  1  0.54035455  0.65069364  0.81392065  1
  H+  H281  1  0.22270903  0.11957605  0.84774939  1
  H+  H282  1  0.87433116  0.33734278  0.50000914  1
  H+  H283  1  0.57550241  0.42916237  0.77049958  1
  H+  H284  1  0.46487398  0.00673177  1.06819431  1
  H+  H285  1  0.40935410  0.27108301  0.98792764  1
  H+  H286  1  0.84670709  0.71205438  0.14085776  1
  H+  H287  1  0.11681910  0.12410187  0.50815228  1
  H+  H288  1  0.85626512  0.42789904  0.38587426  1
  H+  H289  1  0.85466987  0.94198880  0.38480541  1
  H+  H290  1  0.85225412  0.13075176  0.02601810  1
  H+  H291  1  0.73016320  0.62393858  0.99325098  1
  H+  H292  1  0.92375857  0.84603255  0.90725130  1
  H+  H293  1  0.54492500  0.38031473  0.64387520  1
  H+  H294  1  0.66463954  0.83377555  0.27386932  1
  H+  H295  1  0.03372685  0.98378124  0.40518599  1
  H+  H296  1  0.15470677  0.82585468  0.93786678  1
  H+  H297  1  0.58038472  0.91249998  0.76235544  1
  H+  H298  1  0.38988937  0.48218033  0.49802075  1
  H+  H299  1  0.12463551  0.76205106  0.83902205  1
  H+  H300  1  0.34174953  0.65502187  0.75952918  1
  H+  H301  1  0.10972383  0.23894922  0.70349760  1
  H+  H302  1  0.57447629  0.16997972  0.37896058  1
  H+  H303  1  0.07054819  0.16083277  0.75263218  1
  H+  H304  1  0.08210456  0.66838782  0.09953635  1
  H+  H305  1  0.63271781  0.50235144  0.33739855  1
  H+  H306  1  0.95240851  0.09625285  1.00146352  1
  H+  H307  1  0.09765905  0.62664003  0.00488863  1
  H+  H308  1  0.57114025  0.35018725  0.42567686  1
  H+  H309  1  0.15995532  0.57750644  0.26413613  1
  H+  H310  1  0.61147468  0.96614226  0.15671591  1
  H+  H311  1  0.11144953  0.63594440  0.33323017  1
  H+  H312  1  0.59489223  0.67459643  0.72172040  1
  H+  H313  1  0.32555230  0.16968320  0.06842816  1
  H+  H314  1  0.43101446  0.30930838  0.58742778  1
  H+  H315  1  0.80051841  0.65724357  0.08306142  1
  H+  H316  1  0.83303265  0.16601754  0.76361783  1
  H+  H317  1  0.36612971  0.41711808  0.39671026  1
  H+  H318  1  0.34268482  0.92679703  0.38933139  1
  H+  H319  1  0.65038131  0.53368054  0.64740505  1
  H+  H320  1  0.57543799  0.90583255  0.09755638  1
  H+  H321  1  0.32672535  0.89560662  0.73907243  1
  H+  H322  1  0.91412052  0.58377991  0.89778147  1
  H+  H323  1  0.79624169  0.41212508  0.67055521  1
  H+  H324  1  0.71628821  1.01381473  0.36046793  1
  H+  H325  1  0.97928584  0.25735711  0.93272010  1
  H+  H326  1  0.13769841  0.56400048  0.89990911  1
  H+  H327  1  0.59454506  0.16952449  0.75175353  1
  H+  H328  1  0.41231665  0.09273019  0.93201012  1
  H+  H329  1  0.24426392  0.36458515  0.75976043  1
  H+  H330  1  0.64478440  0.87021016  0.65619611  1
  H+  H331  1  0.06430890  0.77968378  0.61869101  1
  H+  H332  1  0.39180247  0.81067365  0.61111054  1
  H+  H333  1  0.64909876  0.07282594  0.21985613  1
  H+  H334  1  0.83907627  0.92118076  0.77276191  1
  H+  H335  1  0.20876434  0.31941727  0.04564769  1
  H+  H336  1  0.84024315  0.67645673  0.43180306  1
  H+  H337  1  0.25946454  0.62787383  0.33420397  1
  H+  H338  1  0.19916658  0.84820638  0.58225787  1
  H+  H339  1  0.85661995  0.21881004  0.17727403  1
  H+  H340  1  0.66422822  0.34095083  0.22870678  1
  H+  H341  1  0.91849195  0.33204958  0.23527785  1
  H+  H342  1  0.35588385  0.08756383  0.67060416  1
  H+  H343  1  0.68665906  0.85059387  0.56319978  1
  H+  H344  1  0.55683388  0.12842216  0.08720046  1
  H+  H345  1  0.92942966  0.59791702  0.27829505  1
  H+  H346  1  0.34679557  0.94438470  0.10896399  1
  H+  H347  1  0.73616555  0.17174673  0.50880848  1
  H+  H348  1  0.09481424  0.16740083  0.40911886  1
  H+  H349  1  0.17024520  0.33856381  0.28529503  1
  H+  H350  1  0.86561625  0.44266686  0.72038476  1
  H+  H351  1  0.83261341  0.13912683  0.38588998  1
  H+  H352  1  0.16345350  0.57994538  0.56628544  1
  H+  H353  1  0.92634431  0.83895835  0.56937161  1
  H+  H354  1  0.04741473  0.64067980  0.66561793  1
  H+  H355  1  0.40201798  0.81853614  0.92306511  1
  H+  H356  1  0.38422397  0.51331116  0.94878150  1
  H+  H357  1  0.68975231  0.62626967  0.56518388  1
  H+  H358  1  0.15975940  0.08735319  0.22672617  1
  H+  H359  1  0.27461148  0.34840273  0.76673846  1
  H+  H360  1  0.64134351  0.96488268  0.43458470  1
  H+  H361  1  0.16759165  0.07410517  0.94031803  1
  H+  H362  1  0.05143086  0.95935712  0.38887353  1
  H+  H363  1  0.89355120  0.07729472  0.90695949  1
  H+  H364  1  0.18549215  0.37091152  0.57980670  1
  H+  H365  1  0.27976169  0.63458831  0.66452424  1
  H+  H366  1  0.08461133  0.41048650  0.10648908  1
  H+  H367  1  0.89686840  0.10096781  0.51255090  1
  H+  H368  1  0.54791415  0.63064295  0.39199189  1
  H+  H369  1  0.94941088  0.44406995  0.45474433  1
  H+  H370  1  0.93183298  0.23721423  0.92823416  1
  H+  H371  1  0.32603209  0.38822047  0.08832743  1
  H+  H372  1  0.65587359  0.58812233  0.94496767  1
  H+  H373  1  0.82957900  0.67992675  0.77958012  1
  H+  H374  1  0.67094284  0.10715363  0.60383964  1
  H+  H375  1  0.12093655  0.41167572  0.66488799  1
  H+  H376  1  0.24120022  0.35648591  0.50129879  1
  H+  H377  1  0.36582979  0.71559197  0.15164487  1
  H+  H378  1  0.06978112  0.43289938  0.75456044  1
  H+  H379  1  0.31597903  0.65021982  0.42912585  1
  H+  H380  1  0.08288085  0.66075098  0.76357009  1
  H+  H381  1  0.84411436  0.43451092  0.11196258  1
  H+  H382  1  0.43214595  0.59658147  0.58709392  1
  H+  H383  1  0.96671648  0.35507652  0.49458019  1
  O2-  O384  1  0.07865622  0.17670430  0.15909678  1
  O2-  O385  1  0.08964225  0.15793055  0.49676291  1
  O2-  O386  1  0.05659333  0.13180976  0.81554313  1
  O2-  O387  1  0.08063731  0.41380440  0.15044652  1
  O2-  O388  1  0.03496919  0.42968646  0.45970953  1
  O2-  O389  1  0.06065653  0.43282911  0.79983724  1
  O2-  O390  1  0.09211704  0.67142572  0.14421405  1
  O2-  O391  1  0.08956839  0.66932461  0.47310684  1
  O2-  O392  1  0.07611872  0.66030724  0.80933376  1
  O2-  O393  1  0.08711832  0.92056239  0.13817957  1
  O2-  O394  1  0.10198056  0.90018505  0.48993970  1
  O2-  O395  1  0.08917465  0.91824948  0.82152476  1
  O2-  O396  1  0.32280134  0.16992656  0.14084787  1
  O2-  O397  1  0.31357823  0.15013008  0.46824374  1
  O2-  O398  1  0.32639727  0.19064793  0.81672418  1
  O2-  O399  1  0.32758286  0.41277522  0.16335849  1
  O2-  O400  1  0.36395922  0.41864263  0.50374118  1
  O2-  O401  1  0.35188836  0.45050412  0.88363356  1
  O2-  O402  1  0.33178697  0.65926320  0.13136616  1
  O2-  O403  1  0.31416657  0.64061822  0.47409242  1
  O2-  O404  1  0.34542480  0.65693249  0.80504088  1
  O2-  O405  1  0.32791023  0.94267581  0.15117736  1
  O2-  O406  1  0.36100224  0.93216997  0.46872487  1
  O2-  O407  1  0.32009325  0.89439928  0.82410432  1
  O2-  O408  1  0.52997338  0.08153195  0.11816753  1
  O2-  O409  1  0.55731327  0.16028864  0.45403610  1
  O2-  O410  1  0.57857364  0.16610217  0.83106991  1
  O2-  O411  1  0.57268956  0.41695041  0.14412184  1
  O2-  O412  1  0.56029324  0.31840353  0.46586496  1
  O2-  O413  1  0.57864668  0.41695373  0.81331518  1
  O2-  O414  1  0.52038100  0.63088680  0.16258838  1
  O2-  O415  1  0.58551494  0.68667592  0.47084859  1
  O2-  O416  1  0.60009053  0.67670613  0.79721535  1
  O2-  O417  1  0.58052739  0.90423069  0.14287768  1
  O2-  O418  1  0.63619820  0.96971190  0.48061862  1
  O2-  O419  1  0.57767638  0.91145533  0.80748264  1
  O2-  O420  1  0.82928388  0.15557221  0.16774151  1
  O2-  O421  1  0.88658593  0.17091827  0.45714562  1
  O2-  O422  1  0.82893819  0.16863568  0.80889524  1
  O2-  O423  1  0.83711920  0.42519318  0.15684981  1
  O2-  O424  1  0.88952400  0.43488758  0.45856292  1
  O2-  O425  1  0.81607431  0.41358408  0.80449237  1
  O2-  O426  1  0.80191124  0.65294609  0.12710308  1
  O2-  O427  1  0.84692793  0.67479688  0.47750950  1
  O2-  O428  1  0.83103598  0.67660607  0.82611093  1
  O2-  O429  1  0.81626592  0.88966711  0.15387388  1
  O2-  O430  1  0.85298716  0.92413940  0.47478002  1
  O2-  O431  1  0.83810499  0.92367471  0.81809552  1
  O2-  O432  1  0.15784412  0.08539656  0.18094084  1
  O2-  O433  1  0.17690309  0.06574820  0.52678743  1
  O2-  O434  1  0.16523612  0.08086551  0.86621136  1
  O2-  O435  1  0.16479320  0.33611484  0.20503311  1
  O2-  O436  1  0.18128858  0.33346254  0.51495040  1
  O2-  O437  1  0.19301521  0.41397212  0.88229220  1
  O2-  O438  1  0.16376623  0.58014874  0.18102710  1
  O2-  O439  1  0.15126752  0.56645315  0.52087150  1
  O2-  O440  1  0.13622213  0.56800661  0.85392848  1
  O2-  O441  1  0.16552034  0.83642781  0.18010290  1
  O2-  O442  1  0.22026366  0.85302066  0.53997055  1
  O2-  O443  1  0.15807324  0.82133297  0.85636647  1
  O2-  O444  1  0.42692930  0.11882425  0.17799582  1
  O2-  O445  1  0.39849753  0.08480917  0.53471958  1
  O2-  O446  1  0.41497998  0.10316001  0.84665393  1
  O2-  O447  1  0.41023291  0.32597528  0.19276962  1
  O2-  O448  1  0.42223314  0.30509513  0.51238254  1
  O2-  O449  1  0.42629528  0.35531866  0.86071854  1
  O2-  O450  1  0.42748014  0.59188751  0.17490365  1
  O2-  O451  1  0.42660998  0.59049299  0.51091711  1
  O2-  O452  1  0.44556110  0.61083561  0.84752163  1
  O2-  O453  1  0.45030205  0.79393077  0.20590348  1
  O2-  O454  1  0.29485672  0.74599409  0.55575682  1
  O2-  O455  1  0.41792015  0.82150812  0.85056907  1
  O2-  O456  1  0.65481947  0.06835843  0.17493325  1
  O2-  O457  1  0.67886996  0.12857225  0.52198572  1
  O2-  O458  1  0.65545854  0.08022027  0.84399606  1
  O2-  O459  1  0.66095036  0.34116608  0.18351705  1
  O2-  O460  1  0.68979977  0.39521998  0.54861333  1
  O2-  O461  1  0.66244689  0.33953343  0.87370146  1
  O2-  O462  1  0.67395049  0.60978524  0.21067478  1
  O2-  O463  1  0.69090173  0.64315524  0.52223315  1
  O2-  O464  1  0.66418490  0.58931819  0.85897239  1
  O2-  O465  1  0.63874969  0.80598197  0.19517718  1
  O2-  O466  1  0.69013626  0.85605996  0.51783723  1
  O2-  O467  1  0.66491814  0.84010659  0.84466680  1
  O2-  O468  1  0.91163204  0.08013315  0.21628621  1
  O2-  O469  1  0.92173618  0.07012277  0.53405349  1
  O2-  O470  1  0.89889454  0.08157768  0.86189521  1
  O2-  O471  1  0.90922337  0.32411120  0.18997214  1
  O2-  O472  1  0.90785778  0.31020680  0.51382516  1
  O2-  O473  1  0.89570040  0.32829451  0.83892869  1
  O2-  O474  1  0.94932419  0.57402610  0.21424079  1
  O2-  O475  1  0.92925942  0.58823519  0.50679722  1
  O2-  O476  1  0.91289472  0.58468454  0.85152225  1
  O2-  O477  1  0.90932625  0.80902589  0.16885356  1
  O2-  O478  1  0.93101574  0.83999354  0.52391874  1
  O2-  O479  1  0.92553175  0.84597141  0.86119263  1
  O2-  O480  1  0.15839320  0.08829960  0.30253716  1
  O2-  O481  1  0.15448384  0.09621658  0.65844155  1
  O2-  O482  1  0.16787447  0.07041234  0.98626473  1
  O2-  O483  1  0.17276890  0.33953066  0.33047593  1
  O2-  O484  1  0.19959645  0.40309861  0.62072390  1
  O2-  O485  1  0.13371796  0.33487700  0.86581471  1
  O2-  O486  1  0.16086311  0.58037227  0.30912373  1
  O2-  O487  1  0.19190609  0.61066777  0.63552803  1
  O2-  O488  1  0.14805214  0.56348102  0.97350829  1
  O2-  O489  1  0.17024985  0.83219057  0.30269683  1
  O2-  O490  1  0.11749240  0.81260561  0.64164514  1
  O2-  O491  1  0.15616214  0.82997903  0.98279645  1
  O2-  O492  1  0.37418916  0.07830621  0.29314727  1
  O2-  O493  1  0.37306247  0.04781940  0.65373567  1
  O2-  O494  1  0.42053516  0.10014714  0.97621924  1
  O2-  O495  1  0.43351742  0.30044059  0.30549642  1
  O2-  O496  1  0.43591758  0.31991989  0.63279271  1
  O2-  O497  1  0.45847410  0.31160315  0.96284770  1
  O2-  O498  1  0.40269615  0.58035540  0.28605319  1
  O2-  O499  1  0.43282062  0.59006986  0.63251484  1
  O2-  O500  1  0.40383387  0.55101234  0.98540903  1
  O2-  O501  1  0.42121397  0.83174916  0.31764768  1
  O2-  O502  1  0.41833107  0.82726262  0.65175096  1
  O2-  O503  1  0.38579830  0.81465121  0.96783285  1
  O2-  O504  1  0.65576257  0.08554210  0.29466196  1
  O2-  O505  1  0.66980400  0.09509467  0.64794573  1
  O2-  O506  1  0.66276799  0.08133203  1.00154085  1
  O2-  O507  1  0.67531719  0.34139235  0.30703627  1
  O2-  O508  1  0.67736846  0.34881047  0.72848854  1
  O2-  O509  1  0.68270993  0.35210179  1.00031102  1
  O2-  O510  1  0.65899971  0.56479155  0.32720055  1
  O2-  O511  1  0.68228886  0.59691924  0.64314123  1
  O2-  O512  1  0.66451780  0.59071480  0.98951685  1
  O2-  O513  1  0.67786695  0.84735617  0.31759361  1
  O2-  O514  1  0.67924453  0.84383341  0.64194695  1
  O2-  O515  1  0.65896575  0.81959656  1.00491288  1
  O2-  O516  1  0.91741311  0.08930730  0.28248010  1
  O2-  O517  1  0.91910357  0.08506379  0.65575635  1
  O2-  O518  1  0.89272768  0.06930245  0.98849209  1
  O2-  O519  1  0.93314574  0.34934471  0.30925229  1
  O2-  O520  1  0.92109329  0.33115469  0.63716369  1
  O2-  O521  1  0.91988164  0.34076023  1.02325245  1
  O2-  O522  1  0.92086625  0.60166922  0.32374128  1
  O2-  O523  1  0.95625265  0.60622812  0.62786367  1
  O2-  O524  1  0.91751156  0.59419720  0.97196010  1
  O2-  O525  1  0.90910689  0.84001365  0.31674649  1
  O2-  O526  1  0.91844159  0.83927793  0.64759612  1
  O2-  O527  1  0.91628754  0.83940053  0.98200949  1
  O2-  O528  1  0.14441357  0.29219998  0.04699490  1
  O2-  O529  1  0.09028803  0.17031401  0.36478281  1
  O2-  O530  1  0.07927013  0.17652674  0.70624969  1
  O2-  O531  1  0.09374082  0.39194430  0.00065020  1
  O2-  O532  1  0.07939734  0.42890980  0.35287934  1
  O2-  O533  1  0.08339014  0.43281163  0.68115234  1
  O2-  O534  1  0.07385371  0.66185078  0.02068942  1
  O2-  O535  1  0.08911652  0.67247137  0.35062680  1
  O2-  O536  1  0.10287609  0.67085384  0.68932166  1
  O2-  O537  1  0.09240211  0.92321689  0.02293432  1
  O2-  O538  1  0.07461014  0.91082612  0.28379655  1
  O2-  O539  1  0.08049313  0.92300990  0.69834441  1
  O2-  O540  1  0.32251744  0.16491250  0.02205872  1
  O2-  O541  1  0.31464215  0.15987544  0.35287838  1
  O2-  O542  1  0.32660998  0.17213168  0.69508032  1
  O2-  O543  1  0.31695077  0.37392933  0.04416807  1
  O2-  O544  1  0.34266082  0.39773039  0.35624829  1
  O2-  O545  1  0.36083106  0.41895889  0.62870497  1
  O2-  O546  1  0.31669440  0.64328766  0.00771061  1
  O2-  O547  1  0.32034380  0.65485340  0.35079843  1
  O2-  O548  1  0.34063747  0.65493787  0.68259297  1
  O2-  O549  1  0.41552519  0.97063690  0.03959099  1
  O2-  O550  1  0.33538601  0.92055075  0.34453244  1
  O2-  O551  1  0.32841761  0.89189163  0.69463888  1
  O2-  O552  1  0.58789205  0.18273243  0.02100711  1
  O2-  O553  1  0.58544535  0.18152785  0.33448110  1
  O2-  O554  1  0.60839511  0.18940707  0.70897092  1
  O2-  O555  1  0.59258267  0.42345387  0.02915823  1
  O2-  O556  1  0.58155605  0.39669292  0.36060096  1
  O2-  O557  1  0.60876098  0.41918294  0.64758066  1
  O2-  O558  1  0.55936584  0.64301000  0.04314301  1
  O2-  O559  1  0.52431816  0.58892461  0.35858179  1
  O2-  O560  1  0.59592145  0.67623392  0.67602354  1
  O2-  O561  1  0.57847642  0.91830297  0.02179618  1
  O2-  O562  1  0.65644791  0.96462461  0.36444644  1
  O2-  O563  1  0.58766485  0.92006840  0.67993445  1
  O2-  O564  1  0.82846877  0.16447802  0.04511163  1
  O2-  O565  1  0.80654849  0.11751240  0.34538577  1
  O2-  O566  1  0.83605698  0.16949016  0.68623296  1
  O2-  O567  1  0.84996652  0.44243940  0.03371599  1
  O2-  O568  1  0.84580226  0.43004580  0.34132207  1
  O2-  O569  1  0.85786386  0.43511747  0.67606679  1
  O2-  O570  1  0.83440490  0.67534235  -0.01749879  1
  O2-  O571  1  0.82688544  0.67194989  0.35895684  1
  O2-  O572  1  0.83038977  0.68087879  0.70884132  1
  O2-  O573  1  0.82527150  0.91229154  0.02737813  1
  O2-  O574  1  0.85112887  0.93842779  0.34008251  1
  O2-  O575  1  0.83694467  0.91860781  0.69414595  1
