# generated using pymatgen
data_H2O
_symmetry_space_group_name_H-M   'P 1'
_cell_length_a   17.99367158
_cell_length_b   17.98835494
_cell_length_c   21.99762224
_cell_angle_alpha   89.97993293
_cell_angle_beta   90.01121060
_cell_angle_gamma   120.01817417
_symmetry_Int_Tables_number   1
_chemical_formula_structural   H2O
_chemical_formula_sum   'H384 O192'
_cell_volume   6165.07009824
_cell_formula_units_Z   192
loop_
 _symmetry_equiv_pos_site_id
 _symmetry_equiv_pos_as_xyz
  1  'x, y, z'
loop_
 _atom_type_symbol
 _atom_type_oxidation_number
  H+  1.0
  O2-  -2.0
loop_
 _atom_site_type_symbol
 _atom_site_label
 _atom_site_symmetry_multiplicity
 _atom_site_fract_x
 _atom_site_fract_y
 _atom_site_fract_z
 _atom_site_occupancy
  H+  H0  1  0.37814495  0.36797661  0.83933350  1
  H+  H1  1  0.61976603  0.15529898  0.50284627  1
  H+  H2  1  0.62825106  0.63787748  0.14939747  1
  H+  H3  1  0.65489954  0.35243722  0.28429417  1
  H+  H4  1  0.60615226  0.48806044  0.82468782  1
  H+  H5  1  0.61144612  0.87831922  0.15308382  1
  H+  H6  1  0.10291101  0.38947547  0.34006289  1
  H+  H7  1  0.13435691  0.77351895  0.65365742  1
  H+  H8  1  0.89060754  0.61463059  0.16813079  1
  H+  H9  1  0.13041782  0.59278551  0.17885501  1
  H+  H10  1  0.60888753  0.72972411  0.82132678  1
  H+  H11  1  0.63472517  0.53024933  0.98653997  1
  H+  H12  1  0.63310321  0.03306095  0.66926230  1
  H+  H13  1  0.22007872  0.11113637  0.84079561  1
  H+  H14  1  0.88947613  0.52462719  0.99210267  1
  H+  H15  1  0.38709945  0.77133236  0.50159878  1
  H+  H16  1  0.20605212  0.84194485  0.83513861  1
  H+  H17  1  0.35135691  0.22568800  0.00953343  1
  H+  H18  1  0.42241659  0.83168965  0.56073142  1
  H+  H19  1  0.46744146  0.10728894  0.66539098  1
  H+  H20  1  0.45352524  0.61477006  0.32336791  1
  H+  H21  1  0.46703910  0.85522392  0.83850267  1
  H+  H22  1  0.97018628  0.85296657  0.24634915  1
  H+  H23  1  0.13050871  0.86526086  0.99397984  1
  H+  H24  1  0.70141549  0.86664893  0.67988353  1
  H+  H25  1  0.10716586  0.22286342  0.67899013  1
  H+  H26  1  0.85853200  0.21587149  1.01142178  1
  H+  H27  1  0.38524211  0.51685710  0.17365651  1
  H+  H28  1  0.76547563  0.13275287  0.51008277  1
  H+  H29  1  0.13936584  -0.01476426  0.34367284  1
  H+  H30  1  0.91588067  0.07501651  0.57266702  1
  H+  H31  1  0.35290114  0.38969893  -0.00367226  1
  H+  H32  1  0.87890713  0.65290928  0.48924412  1
  H+  H33  1  0.96679062  0.91550253  0.29492745  1
  H+  H34  1  0.36248209  0.97881356  0.50437864  1
  H+  H35  1  0.63866507  0.85599368  0.51011257  1
  H+  H36  1  0.01592991  0.12652418  0.01007106  1
  H+  H37  1  0.60546171  0.72223640  0.50675778  1
  H+  H38  1  0.87295916  0.27032154  0.51274626  1
  H+  H39  1  0.87162480  0.88178339  0.50800938  1
  H+  H40  1  0.93508603  0.88134688  0.15441286  1
  H+  H41  1  0.97358829  0.35129531  1.00053023  1
  H+  H42  1  0.51252321  0.12607307  0.16352171  1
  H+  H43  1  0.87448433  0.65611888  0.66519720  1
  H+  H44  1  0.97096045  0.86122430  0.83514429  1
  H+  H45  1  0.12504186  0.35090871  0.99277563  1
  H+  H46  1  0.10178288  -0.02923978  1.00953117  1
  H+  H47  1  0.22352648  0.86710946  0.50525852  1
  H+  H48  1  0.12931503  0.10643735  0.17837165  1
  H+  H49  1  0.60236811  0.22044646  0.67595378  1
  H+  H50  1  0.72957268  0.37938125  0.50331091  1
  H+  H51  1  0.11514883  0.64919600  0.49086799  1
  H+  H52  1  0.53954144  0.74710069  0.04117814  1
  H+  H53  1  0.89970585  0.75087282  0.32933172  1
  H+  H54  1  0.46625976  0.61077572  0.66151421  1
  H+  H55  1  0.35370400  -0.04066194  0.32348745  1
  H+  H56  1  0.57655927  0.16110583  0.10593509  1
  H+  H57  1  0.21297150  0.59627180  0.99014925  1
  H+  H58  1  0.60934933  0.64048639  0.82402135  1
  H+  H59  1  0.47778627  0.12296905  0.00814935  1
  H+  H60  1  0.10709959  0.73676383  1.02174996  1
  H+  H61  1  0.47530556  0.37910844  0.33026983  1
  H+  H62  1  0.13643857  0.38777214  0.55798649  1
  H+  H63  1  0.13133578  0.35961477  0.66724971  1
  H+  H64  1  0.37536671  0.85796275  0.99226508  1
  H+  H65  1  0.96601793  0.60797344  0.83642021  1
  H+  H66  1  0.88646776  0.35455081  1.00073128  1
  H+  H67  1  0.26528153  0.88084897  0.66024233  1
  H+  H68  1  0.89019088  0.52576332  0.66059245  1
  H+  H69  1  0.91012811  0.32145800  0.23543466  1
  H+  H70  1  0.85874600  0.07573916  0.19275887  1
  H+  H71  1  0.40596623  0.06379536  0.85611841  1
  H+  H72  1  0.40605562  0.33003155  0.93317955  1
  H+  H73  1  0.82590656  0.90201272  0.09714892  1
  H+  H74  1  0.62650782  0.11731526  0.84379466  1
  H+  H75  1  0.82733417  0.42058603  0.42993493  1
  H+  H76  1  0.06225744  0.90713161  0.06792358  1
  H+  H77  1  0.59186480  0.72689165  0.33727112  1
  H+  H78  1  0.11969567  0.89058336  0.67046335  1
  H+  H79  1  0.61470803  0.39476540  0.67546732  1
  H+  H80  1  0.83490373  0.67080277  0.76311847  1
  H+  H81  1  0.97235143  0.86011688  0.99038205  1
  H+  H82  1  0.37708896  0.63295859  0.15013697  1
  H+  H83  1  0.13583545  0.62424356  0.31506483  1
  H+  H84  1  1.03213008  0.63537577  0.66836511  1
  H+  H85  1  0.37100949  0.83927830  0.83278247  1
  H+  H86  1  0.60283572  -0.03194629  0.33322679  1
  H+  H87  1  0.59599792  0.72509959  0.67493156  1
  H+  H88  1  0.46904856  0.37135107  0.83953686  1
  H+  H89  1  0.37216447  0.23604319  0.49231706  1
  H+  H90  1  0.21476975  0.60929116  0.83459865  1
  H+  H91  1  0.35650652  0.63170102  0.99981063  1
  H+  H92  1  0.33386559  0.17455678  0.77022590  1
  H+  H93  1  0.38518710  0.26814288  0.17650009  1
  H+  H94  1  0.26342875  0.38776101  0.99452526  1
  H+  H95  1  0.14359447  1.02892396  0.66317239  1
  H+  H96  1  0.11083126  0.13568260  0.67506230  1
  H+  H97  1  -0.02661883  0.10845874  0.65819840  1
  H+  H98  1  0.21704833  0.61591166  0.33356272  1
  H+  H99  1  0.36027815  0.63838794  0.67173318  1
  H+  H100  1  0.64049864  0.75402630  0.16573358  1
  H+  H101  1  0.81029060  0.66369092  0.32959465  1
  H+  H102  1  0.68789499  0.65370726  0.30627550  1
  H+  H103  1  0.82512824  0.41398849  0.77821874  1
  H+  H104  1  0.22212367  0.61584048  0.50179101  1
  H+  H105  1  0.48116399  0.12296822  0.51038045  1
  H+  H106  1  0.35135089  0.62732271  0.82251764  1
  H+  H107  1  0.18430030  0.09059827  0.57086605  1
  H+  H108  1  0.89328024  0.73713751  0.14407302  1
  H+  H109  1  0.32804474  0.35516999  0.50582089  1
  H+  H110  1  0.36359160  0.38647414  0.66979886  1
  H+  H111  1  0.90278162  0.61770491  0.32574568  1
  H+  H112  1  0.14851559  0.10249337  0.50797464  1
  H+  H113  1  0.57439345  0.63273466  0.35538357  1
  H+  H114  1  0.13603931  0.27479116  0.33315250  1
  H+  H115  1  0.37262473  0.51707085  -0.01405453  1
  H+  H116  1  0.10491305  0.12777981  0.00881276  1
  H+  H117  1  0.36719243  0.23115252  0.67121431  1
  H+  H118  1  0.72322034  0.10027693  0.99424168  1
  H+  H119  1  0.86612384  0.88262528  0.00658804  1
  H+  H120  1  0.10453894  0.88263690  0.82646956  1
  H+  H121  1  0.13871802  0.35921404  0.17509046  1
  H+  H122  1  0.75990183  0.38896082  0.83254928  1
  H+  H123  1  0.87694632  0.35210491  0.84725363  1
  H+  H124  1  0.15562991  0.82800854  0.89885134  1
  H+  H125  1  0.21732012  0.10696509  0.99599251  1
  H+  H126  1  0.61600651  0.42646107  0.34070441  1
  H+  H127  1  0.12697927  0.61195194  0.83774045  1
  H+  H128  1  0.10613928  0.46357636  0.00356620  1
  H+  H129  1  0.62667874  0.61056083  0.67760744  1
  H+  H130  1  0.10828091  0.97371873  0.82647024  1
  H+  H131  1  0.62069183  0.37731528  0.83636083  1
  H+  H132  1  0.63919973  0.10684670  0.99685958  1
  H+  H133  1  0.95658643  0.36270951  0.50103665  1
  H+  H134  1  0.35582598  0.47973723  0.33563581  1
  H+  H135  1  0.75411995  0.64388903  0.51952647  1
  H+  H136  1  0.85829829  0.96836894  0.00742706  1
  H+  H137  1  0.24662392  0.11505128  0.32525362  1
  H+  H138  1  0.26953622  0.86577630  0.32233628  1
  H+  H139  1  1.02621420  0.64706740  0.48785420  1
  H+  H140  1  0.47080488  0.61385124  0.51008101  1
  H+  H141  1  0.11689457  0.48101271  0.67008354  1
  H+  H142  1  0.26275522  0.12666742  0.16533296  1
  H+  H143  1  0.12736622  0.53294618  0.50123629  1
  H+  H144  1  0.86615852  0.51754753  0.16909413  1
  H+  H145  1  0.61315699  0.22146332  0.34038123  1
  H+  H146  1  0.47323182  0.10372359  0.32553162  1
  H+  H147  1  0.63810274  0.23869688  1.00183351  1
  H+  H148  1  0.36159086  0.97805459  0.00746181  1
  H+  H149  1  0.76750276  0.11997928  0.16657251  1
  H+  H150  1  0.60830763  0.73658113  0.00479371  1
  H+  H151  1  0.13339915  0.77498042  0.49954439  1
  H+  H152  1  0.35433767  0.63252666  0.49002016  1
  H+  H153  1  0.62339617  0.28679120  0.83236421  1
  H+  H154  1  0.59965914  0.97619234  0.82807805  1
  H+  H155  1  0.46908354  0.61259923  0.83603656  1
  H+  H156  1  0.51661777  0.86689488  0.48678621  1
  H+  H157  1  0.92891729  0.84445132  0.56667982  1
  H+  H158  1  0.83085175  0.89881009  0.33057458  1
  H+  H159  1  0.47136348  0.85351978  0.16481315  1
  H+  H160  1  0.87253643  0.27829893  0.33350222  1
  H+  H161  1  0.11451940  0.87711145  0.48680766  1
  H+  H162  1  0.93789248  0.01799071  0.33074503  1
  H+  H163  1  0.17757350  0.43061893  0.55495194  1
  H+  H164  1  0.38138244  0.36442758  0.32727402  1
  H+  H165  1  0.86600895  0.97816882  0.50927225  1
  H+  H166  1  0.87867617  0.74568024  0.66802117  1
  H+  H167  1  0.99010992  0.40548846  0.65271248  1
  H+  H168  1  0.72338286  0.61768812  0.83176800  1
  H+  H169  1  0.74462879  0.85381082  0.16328423  1
  H+  H170  1  0.38814126  0.10860918  0.32588673  1
  H+  H171  1  0.73073254  0.11857934  0.67034876  1
  H+  H172  1  0.34063094  0.42457173  0.39620745  1
  H+  H173  1  0.11133827  0.70222567  0.23588566  1
  H+  H174  1  0.05637046  0.89230303  0.33194149  1
  H+  H175  1  0.77308570  0.88111343  0.51237448  1
  H+  H176  1  0.46674064  0.85165269  0.31240568  1
  H+  H177  1  0.57668537  0.90926252  0.09694711  1
  H+  H178  1  0.21844680  0.36719464  0.33318389  1
  H+  H179  1  0.86441583  0.40699800  0.68190247  1
  H+  H180  1  0.09616049  0.71994274  0.82755987  1
  H+  H181  1  0.35969438  0.47403590  0.67159024  1
  H+  H182  1  0.61923210  0.24292714  0.49497153  1
  H+  H183  1  0.85860230  0.48220956  0.33671586  1
  H+  H184  1  0.74275896  0.83954917  0.98313367  1
  H+  H185  1  0.60095702  0.38721113  0.00454100  1
  H+  H186  1  0.86068231  0.20307317  0.16830681  1
  H+  H187  1  0.20589565  0.34416080  0.54656102  1
  H+  H188  1  0.09436116  0.47583070  0.81796583  1
  H+  H189  1  0.94087808  0.16894443  0.30179477  1
  H+  H190  1  0.47763768  0.60724729  0.17152364  1
  H+  H191  1  0.41406893  0.08463313  0.60328787  1
  H+  H192  1  0.73692899  0.36523531  0.32482677  1
  H+  H193  1  0.02473809  0.37607638  0.16087501  1
  H+  H194  1  0.23089444  0.11978000  0.66602233  1
  H+  H195  1  0.88954266  1.01212586  0.65699750  1
  H+  H196  1  0.37830864  0.10623789  0.17195079  1
  H+  H197  1  0.85702604  0.88089583  0.81456790  1
  H+  H198  1  0.88546312  0.52941092  0.49786185  1
  H+  H199  1  0.72713103  0.86783897  0.82216517  1
  H+  H200  1  0.84041325  0.09949251  0.82482308  1
  H+  H201  1  0.22099663  0.86792641  0.99217531  1
  H+  H202  1  0.88215050  0.10135651  0.51201655  1
  H+  H203  1  0.02547095  0.12861279  0.49649555  1
  H+  H204  1  0.96589300  0.36344351  0.32747423  1
  H+  H205  1  0.70990135  0.60984132  0.65615141  1
  H+  H206  1  0.60733406  0.95102944  0.47309867  1
  H+  H207  1  0.50283177  0.36864199  0.48751987  1
  H+  H208  1  0.71767509  0.28147859  0.62639369  1
  H+  H209  1  0.35580360  0.72252535  1.00300236  1
  H+  H210  1  0.35346009  0.72515809  0.33359551  1
  H+  H211  1  0.37778283  0.85296362  0.31005538  1
  H+  H212  1  0.39258218  0.14764343  0.85186737  1
  H+  H213  1  0.68456499  0.22007661  1.05313269  1
  H+  H214  1  0.89474604  0.78381631  0.50483069  1
  H+  H215  1  0.80499454  0.88626354  0.65077265  1
  H+  H216  1  0.35384823  0.47451272  0.82449127  1
  H+  H217  1  0.65759362  0.55614791  0.32387462  1
  H+  H218  1  0.86367616  0.72368275  0.99808337  1
  H+  H219  1  0.86550683  0.63445924  -0.00101544  1
  H+  H220  1  0.10680915  0.21318028  0.83019267  1
  H+  H221  1  0.46352106  0.36014785  0.99335896  1
  H+  H222  1  0.99143742  0.87316190  0.65422889  1
  H+  H223  1  0.12065718  0.87787159  0.17428928  1
  H+  H224  1  0.81804499  0.13994943  0.73109646  1
  H+  H225  1  1.03186764  0.07940073  0.31361955  1
  H+  H226  1  0.12266435  0.20662038  0.50055027  1
  H+  H227  1  0.23096863  0.62075577  0.65779598  1
  H+  H228  1  0.85692539  0.63423037  0.82338393  1
  H+  H229  1  0.82418527  0.96386171  0.28565080  1
  H+  H230  1  0.01670592  0.61697299  0.17110134  1
  H+  H231  1  0.14603868  0.14686611  0.34299796  1
  H+  H232  1  0.08902717  0.39835240  0.48762459  1
  H+  H233  1  0.34933380  0.87773364  0.15598371  1
  H+  H234  1  1.00811243  0.38386680  0.81890037  1
  H+  H235  1  0.85887250  0.39218441  0.33868747  1
  H+  H236  1  0.52524510  0.16166394  0.83554979  1
  H+  H237  1  0.74685161  0.62481755  0.15681354  1
  H+  H238  1  0.76953963  0.38977461  0.68148380  1
  H+  H239  1  0.21552904  0.34548070  0.83914750  1
  H+  H240  1  1.02212712  0.64728739  1.02343075  1
  H+  H241  1  0.75605996  0.36950505  0.15751002  1
  H+  H242  1  0.60157369  0.96321792  0.00756026  1
  H+  H243  1  0.36414014  0.14021981  0.67464198  1
  H+  H244  1  0.90301232  0.87896223  0.65645295  1
  H+  H245  1  0.58114822  0.44053630  0.40118226  1
  H+  H246  1  0.87303632  0.33296734  0.17413243  1
  H+  H247  1  0.36708868  0.38902436  0.17184603  1
  H+  H248  1  0.66799081  0.23654505  0.17912124  1
  H+  H249  1  0.12857236  0.26383756  0.99558821  1
  H+  H250  1  0.52927911  0.38516648  0.15927905  1
  H+  H251  1  1.02462133  0.88416740  0.48342797  1
  H+  H252  1  0.70355795  0.85861091  0.31298803  1
  H+  H253  1  0.61311549  0.04133064  0.53462015  1
  H+  H254  1  0.91371987  0.12438114  0.31478197  1
  H+  H255  1  0.39230993  0.12186145  0.50894403  1
  H+  H256  1  0.38379592  0.99679194  0.83900336  1
  H+  H257  1  0.51243574  0.89311776  0.67191933  1
  H+  H258  1  0.62719499  0.09731754  0.17414984  1
  H+  H259  1  0.85012144  0.12463369  0.66781724  1
  H+  H260  1  0.57624068  0.41614257  0.06562559  1
  H+  H261  1  0.46023688  0.61149215  0.99171779  1
  H+  H262  1  0.27757671  0.38918050  0.17411331  1
  H+  H263  1  0.97152886  0.10133029  0.84210373  1
  H+  H264  1  0.75223801  0.10251034  0.82366965  1
  H+  H265  1  0.22745732  0.28294047  0.57963086  1
  H+  H266  1  0.36143985  0.89030365  0.49842401  1
  H+  H267  1  0.38579946  0.77507122  0.65649621  1
  H+  H268  1  0.35634487  0.23701247  0.82793899  1
  H+  H269  1  0.75254224  0.13814152  0.34785388  1
  H+  H270  1  0.87889560  0.10025985  0.99357427  1
  H+  H271  1  0.37374332  0.23025356  0.34225652  1
  H+  H272  1  0.35686735  0.14011638  0.01457363  1
  H+  H273  1  0.61222878  0.48298722  0.68213408  1
  H+  H274  1  0.63512626  0.37119010  0.50593886  1
  H+  H275  1  0.37465187  0.72753935  0.15096020  1
  H+  H276  1  0.78085828  0.38981585  -0.00486559  1
  H+  H277  1  0.65644383  0.61026149  0.52894625  1
  H+  H278  1  0.62428022  0.10489116  0.32938180  1
  H+  H279  1  0.35496864  0.71730742  0.82592869  1
  H+  H280  1  0.60702151  0.13620635  0.68443377  1
  H+  H281  1  0.11622147  0.22163074  0.16584567  1
  H+  H282  1  0.34088612  0.93183091  0.81724902  1
  H+  H283  1  0.21204220  0.87869255  0.17105077  1
  H+  H284  1  0.88251408  0.77114257  0.83581163  1
  H+  H285  1  0.50923621  0.87900955  0.00853916  1
  H+  H286  1  0.85222176  0.38735049  0.49078895  1
  H+  H287  1  0.84712201  -0.04718220  0.16394456  1
  H+  H288  1  0.22047976  0.36016177  0.67262654  1
  H+  H289  1  0.12833604  0.10550762  0.84027654  1
  H+  H290  1  0.32097672  0.16176142  0.10575120  1
  H+  H291  1  0.72749439  0.43318182  0.13067520  1
  H+  H292  1  0.82807339  0.15105996  0.06848830  1
  H+  H293  1  0.40794714  0.81791363  0.22238203  1
  H+  H294  1  0.66318683  0.83701115  0.57658913  1
  H+  H295  1  0.28471585  0.14346291  0.49614295  1
  H+  H296  1  0.83679927  0.91427850  0.75184668  1
  H+  H297  1  0.54249453  0.32669030  0.44197902  1
  H+  H298  1  0.09769897  0.16236697  0.39870007  1
  H+  H299  1  0.15951907  0.07611831  0.93544827  1
  H+  H300  1  0.57623586  0.17483796  0.77236572  1
  H+  H301  1  0.57399816  0.42244723  0.76760027  1
  H+  H302  1  0.91443746  0.32249975  0.90067276  1
  H+  H303  1  0.09194992  0.91366097  0.41464513  1
  H+  H304  1  0.42166399  0.33985965  0.59461057  1
  H+  H305  1  0.87675605  0.51872176  0.84248291  1
  H+  H306  1  0.08754283  0.91787278  0.73090477  1
  H+  H307  1  0.17737115  0.07994836  0.26913978  1
  H+  H308  1  0.56907295  0.92100531  0.73419291  1
  H+  H309  1  0.61509606  0.47639835  0.15356198  1
  H+  H310  1  0.61296923  0.85122553  0.30938305  1
  H+  H311  1  0.67605591  0.83389663  0.88416019  1
  H+  H312  1  0.67643633  0.32868029  0.59287499  1
  H+  H313  1  0.95219074  0.50824907  0.62602176  1
  H+  H314  1  0.91349958  0.83304625  0.92945639  1
  H+  H315  1  0.35449517  0.96964218  0.66848137  1
  H+  H316  1  0.10127352  0.47909869  0.33839174  1
  H+  H317  1  0.56852678  0.66526215  0.73358016  1
  H+  H318  1  0.58391813  0.16853675  0.40257449  1
  H+  H319  1  0.88397599  1.01203923  0.83742947  1
  H+  H320  1  0.11259214  0.46688945  0.16410003  1
  H+  H321  1  0.91726479  0.58361464  0.93246242  1
  H+  H322  1  0.08229607  0.16075078  0.10804199  1
  H+  H323  1  0.63048498  0.01045609  0.17486815  1
  H+  H324  1  0.85777716  0.69009430  0.42951367  1
  H+  H325  1  0.34398301  0.16986350  0.40127847  1
  H+  H326  1  0.57056344  0.89619403  0.38582630  1
  H+  H327  1  0.47715647  0.36629446  0.65642909  1
  H+  H328  1  0.34294691  0.66518329  0.08383970  1
  H+  H329  1  0.66951748  0.33395339  0.91545667  1
  H+  H330  1  0.35660417  0.97001419  0.15879302  1
  H+  H331  1  0.40300709  0.58072842  0.26023612  1
  H+  H332  1  0.15674906  0.31458402  0.89840707  1
  H+  H333  1  0.60837870  0.89173369  0.82334710  1
  H+  H334  1  0.66567104  0.82137982  0.22571620  1
  H+  H335  1  0.42725927  0.11005601  0.94610088  1
  H+  H336  1  0.72829794  0.61175247  0.98598750  1
  H+  H337  1  0.72486596  0.29352824  0.93186011  1
  H+  H338  1  0.34592279  0.63292532  0.33427873  1
  H+  H339  1  0.84533305  0.15014536  0.35206068  1
  H+  H340  1  0.81628172  0.41869240  0.06199287  1
  H+  H341  1  0.16901377  0.59106020  0.59895902  1
  H+  H342  1  0.40830388  0.58176592  0.89486099  1
  H+  H343  1  0.81611739  0.16184987  0.44748909  1
  H+  H344  1  0.07412818  0.15388387  0.76999845  1
  H+  H345  1  0.65753647  0.07653311  0.26988260  1
  H+  H346  1  0.08127901  0.40835933  0.06605016  1
  H+  H347  1  0.90975165  0.06903420  0.93497654  1
  H+  H348  1  0.40493654  0.82613386  0.93327381  1
  H+  H349  1  0.07137963  0.41942568  0.72789085  1
  H+  H350  1  0.06247996  0.42196140  0.42472181  1
  H+  H351  1  0.38900729  0.52059127  0.51040693  1
  H+  H352  1  0.92610915  0.05427773  0.22661216  1
  H+  H353  1  0.33026658  0.66906842  0.73067393  1
  H+  H354  1  0.08658788  0.67196019  0.12234819  1
  H+  H355  1  0.71034353  0.75134147  0.94895973  1
  H+  H356  1  0.12373222  0.64567048  0.67267259  1
  H+  H357  1  0.15412625  0.82402491  0.25951921  1
  H+  H358  1  0.32795309  0.66651109  0.43045809  1
  H+  H359  1  0.16341349  0.33180590  0.23751085  1
  H+  H360  1  0.40624073  0.58032693  0.60208971  1
  H+  H361  1  0.91149756  0.57433410  0.26526733  1
  H+  H362  1  0.56608209  0.67721848  0.44367785  1
  H+  H363  1  0.41995393  0.32914710  0.23462491  1
  H+  H364  1  0.71254774  0.29332674  0.23688986  1
  H+  H365  1  0.07598077  0.66598797  0.76576951  1
  H+  H366  1  0.66674995  0.58885268  0.89323420  1
  H+  H367  1  0.92156406  0.58184558  0.55874231  1
  H+  H368  1  0.69024446  0.59449160  0.21673485  1
  H+  H369  1  0.84835463  0.67247389  0.08817057  1
  H+  H370  1  0.32810271  0.41410999  0.76566261  1
  H+  H371  1  0.15925171  0.83221570  0.59265701  1
  H+  H372  1  0.92186868  0.37251056  0.59624124  1
  H+  H373  1  0.11836777  0.01222406  0.17721928  1
  H+  H374  1  0.32669102  0.91496275  0.06442842  1
  H+  H375  1  0.58449970  0.67437817  0.09930614  1
  H+  H376  1  0.15988277  0.56311283  0.23652004  1
  H+  H377  1  0.15610322  0.56655471  0.93034955  1
  H+  H378  1  0.61685707  0.87025645  0.66721377  1
  H+  H379  1  0.30833128  0.87972282  0.75336215  1
  H+  H380  1  0.66564301  0.10107647  0.58898024  1
  H+  H381  1  0.65319186  0.07913091  0.90098861  1
  H+  H382  1  0.41111246  0.07719095  0.23043319  1
  H+  H383  1  0.38024599  0.86109797  0.65136016  1
  O2-  O384  1  0.08468773  0.16030460  0.15317423  1
  O2-  O385  1  0.08380497  0.15311175  0.47862457  1
  O2-  O386  1  0.07426797  0.15072060  0.81535822  1
  O2-  O387  1  0.08447044  0.40629488  0.14594001  1
  O2-  O388  1  0.05793522  0.42514974  0.47075957  1
  O2-  O389  1  0.06272592  0.42019866  0.79641120  1
  O2-  O390  1  0.08003500  0.65104599  0.16537803  1
  O2-  O391  1  0.08714505  0.68077188  0.47504781  1
  O2-  O392  1  0.06902700  0.66012363  0.81085328  1
  O2-  O393  1  0.05496225  0.90844573  0.14330395  1
  O2-  O394  1  0.08342957  0.90677997  0.46658772  1
  O2-  O395  1  0.07648233  0.91406030  0.80931091  1
  O2-  O396  1  0.32383056  0.15902007  0.15107386  1
  O2-  O397  1  0.34478702  0.17485596  0.47776503  1
  O2-  O398  1  0.33023640  0.17501389  0.81560784  1
  O2-  O399  1  0.33983075  0.42414919  0.16365010  1
  O2-  O400  1  0.38754672  0.38996592  0.49029959  1
  O2-  O401  1  0.32615385  0.41338296  0.81108984  1
  O2-  O402  1  0.35022324  0.66693726  0.13234041  1
  O2-  O403  1  0.32769786  0.66650658  0.47616030  1
  O2-  O404  1  0.32225571  0.65889033  0.80727976  1
  O2-  O405  1  0.32273943  0.91103570  0.14121184  1
  O2-  O406  1  0.32681621  0.91802568  0.49206710  1
  O2-  O407  1  0.30382976  0.87026244  0.79865840  1
  O2-  O408  1  0.57429196  0.15116096  0.15012314  1
  O2-  O409  1  0.58980852  0.18155972  0.48139050  1
  O2-  O410  1  0.58372124  0.18347425  0.81750449  1
  O2-  O411  1  0.58719208  0.41605514  0.13971900  1
  O2-  O412  1  0.56113663  0.38159719  0.46227712  1
  O2-  O413  1  0.57266951  0.42535510  0.81298228  1
  O2-  O414  1  0.59392244  0.66794029  0.14361628  1
  O2-  O415  1  0.56821506  0.66574255  0.48734377  1
  O2-  O416  1  0.57545792  0.66773288  0.80972327  1
  O2-  O417  1  0.57990304  0.90837204  0.14347916  1
  O2-  O418  1  0.57634403  0.88909473  0.46710519  1
  O2-  O419  1  0.57163213  0.91632609  0.81117008  1
  O2-  O420  1  0.82849797  0.14219288  0.15418302  1
  O2-  O421  1  0.82397015  0.15981056  0.49217110  1
  O2-  O422  1  0.79768290  0.10301014  0.79846875  1
  O2-  O423  1  0.77703603  0.42465973  0.13308839  1
  O2-  O424  1  0.82683343  0.42238867  0.47558302  1
  O2-  O425  1  0.82186227  0.41184852  0.82364268  1
  O2-  O426  1  0.85198987  0.67643369  0.13421547  1
  O2-  O427  1  0.85432510  0.68899855  0.47468857  1
  O2-  O428  1  0.82881543  0.66683172  0.80841180  1
  O2-  O429  1  0.82207314  0.89457342  0.14331696  1
  O2-  O430  1  0.83469096  0.91282036  0.49694002  1
  O2-  O431  1  0.82836904  0.91164486  0.79777800  1
  O2-  O432  1  0.15664395  0.07186510  0.19276392  1
  O2-  O433  1  0.19111229  0.08995154  0.52591276  1
  O2-  O434  1  0.16030650  0.07635797  0.85624309  1
  O2-  O435  1  0.16983029  0.33082297  0.19272862  1
  O2-  O436  1  0.22289153  0.30106396  0.53852774  1
  O2-  O437  1  0.15624336  0.30763236  0.85349878  1
  O2-  O438  1  0.15901783  0.55996602  0.19170903  1
  O2-  O439  1  0.16331715  0.59032755  0.51975109  1
  O2-  O440  1  0.15566560  0.57982160  0.85173139  1
  O2-  O441  1  0.16277686  0.86692887  0.19701714  1
  O2-  O442  1  0.16030774  0.83655892  0.51606550  1
  O2-  O443  1  0.14854049  0.82288317  0.85344160  1
  O2-  O444  1  0.41084299  0.07691280  0.18477366  1
  O2-  O445  1  0.42168746  0.09172205  0.52652072  1
  O2-  O446  1  0.43040414  0.12726140  0.87169360  1
  O2-  O447  1  0.42156957  0.32928249  0.18944450  1
  O2-  O448  1  0.42575729  0.34056489  0.51787890  1
  O2-  O449  1  0.40891052  0.33773231  0.85513335  1
  O2-  O450  1  0.41687833  0.58346232  0.18310165  1
  O2-  O451  1  0.40774904  0.57979413  0.52227859  1
  O2-  O452  1  0.40783190  0.58082272  0.84929504  1
  O2-  O453  1  0.40940411  0.81880677  0.17617364  1
  O2-  O454  1  0.42508418  0.83215268  0.51516231  1
  O2-  O455  1  0.40720340  0.82002082  0.85462747  1
  O2-  O456  1  0.65969713  0.07045671  0.19117145  1
  O2-  O457  1  0.66116740  0.09883234  0.54169121  1
  O2-  O458  1  0.64891425  0.07889720  0.85583812  1
  O2-  O459  1  0.72440822  0.28281734  0.19462413  1
  O2-  O460  1  0.67057890  0.34710698  0.52244944  1
  O2-  O461  1  0.65233897  0.34656215  0.84983382  1
  O2-  O462  1  0.68582694  0.59354736  0.17184936  1
  O2-  O463  1  0.70897316  0.62440158  0.55086877  1
  O2-  O464  1  0.66294230  0.58955052  0.84746884  1
  O2-  O465  1  0.67411512  0.81971111  0.17996076  1
  O2-  O466  1  0.67174539  0.83326519  0.53196257  1
  O2-  O467  1  0.66740834  0.83959304  0.84040185  1
  O2-  O468  1  0.86680942  0.02915814  0.21150471  1
  O2-  O469  1  0.91320297  0.07126524  0.52495563  1
  O2-  O470  1  0.91139301  0.06866951  0.85859329  1
  O2-  O471  1  0.91122950  0.31386360  0.19029219  1
  O2-  O472  1  0.89889703  0.33308317  0.52085710  1
  O2-  O473  1  0.91026966  0.32336615  0.85600595  1
  O2-  O474  1  0.90740922  0.57433640  0.18636933  1
  O2-  O475  1  0.91734053  0.58915192  0.51425332  1
  O2-  O476  1  0.90669400  0.58101413  0.85408687  1
  O2-  O477  1  0.96581807  0.85148539  0.16704036  1
  O2-  O478  1  0.92334891  0.84557964  0.51989647  1
  O2-  O479  1  0.91069167  0.83172170  0.85111450  1
  O2-  O480  1  0.18402951  0.08338616  0.31463344  1
  O2-  O481  1  0.17130141  0.09001150  0.64914241  1
  O2-  O482  1  0.15693135  0.07451026  0.98097587  1
  O2-  O483  1  0.15750234  0.33544311  0.31992885  1
  O2-  O484  1  0.16073167  0.32652360  0.65703201  1
  O2-  O485  1  0.15694006  0.32238358  0.97724761  1
  O2-  O486  1  0.15597969  0.58237308  0.31955036  1
  O2-  O487  1  0.16945900  0.59082660  0.64438752  1
  O2-  O488  1  0.15430752  0.55907262  0.97526052  1
  O2-  O489  1  0.15636907  0.79460863  0.29887384  1
  O2-  O490  1  0.16352313  0.83410365  0.63833901  1
  O2-  O491  1  0.16099755  0.83644485  0.97667189  1
  O2-  O492  1  0.41455132  0.07616512  0.30799867  1
  O2-  O493  1  0.40793738  0.07882493  0.64877269  1
  O2-  O494  1  0.42025671  0.09498825  0.99079065  1
  O2-  O495  1  0.41691126  0.33822811  0.31570060  1
  O2-  O496  1  0.41723536  0.33586878  0.64045267  1
  O2-  O497  1  0.40332288  0.32697913  0.97870351  1
  O2-  O498  1  0.39559526  0.57793879  0.30566388  1
  O2-  O499  1  0.40482753  0.57929382  0.64738852  1
  O2-  O500  1  0.40322718  0.58135830  0.97243487  1
  O2-  O501  1  0.40719577  0.81910799  0.29641582  1
  O2-  O502  1  0.41568834  0.83458728  0.63882795  1
  O2-  O503  1  0.40447336  0.82563371  0.97881889  1
  O2-  O504  1  0.65648383  0.07552444  0.31550983  1
  O2-  O505  1  0.66572626  0.09499253  0.65748640  1
  O2-  O506  1  0.66216386  0.07181867  0.97948974  1
  O2-  O507  1  0.67906080  0.32151532  0.30500221  1
  O2-  O508  1  0.68539759  0.31070275  0.63490314  1
  O2-  O509  1  0.69248508  0.31639184  0.95261430  1
  O2-  O510  1  0.69931226  0.60691458  0.29907691  1
  O2-  O511  1  0.65964757  0.58030122  0.68273723  1
  O2-  O512  1  0.66934450  0.58835168  0.96908889  1
  O2-  O513  1  0.64389476  0.81907985  0.29739537  1
  O2-  O514  1  0.64911312  0.83919496  0.65524986  1
  O2-  O515  1  0.69284424  0.79310012  0.95956732  1
  O2-  O516  1  0.97980339  0.02550194  0.29958085  1
  O2-  O517  1  0.91426388  0.07491679  0.64059805  1
  O2-  O518  1  0.90842359  0.06842249  0.98088848  1
  O2-  O519  1  0.90499022  0.33463848  0.31246331  1
  O2-  O520  1  0.93836497  0.40615141  0.63459060  1
  O2-  O521  1  0.91107197  0.31869944  0.98764052  1
  O2-  O522  1  0.91222178  0.57151725  0.31045256  1
  O2-  O523  1  0.93961295  0.55631873  0.63237073  1
  O2-  O524  1  0.91742559  0.58523421  0.97798786  1
  O2-  O525  1  0.96403714  0.85922789  0.29097317  1
  O2-  O526  1  0.93145946  0.84496591  0.63774437  1
  O2-  O527  1  0.91123583  0.83035291  0.97509184  1
  O2-  O528  1  0.07600353  0.15850234  0.02545439  1
  O2-  O529  1  0.10692914  0.16957048  0.35387779  1
  O2-  O530  1  0.07547419  0.16031720  0.69035269  1
  O2-  O531  1  0.07502390  0.40304775  0.02093314  1
  O2-  O532  1  0.06917726  0.41751724  0.35252105  1
  O2-  O533  1  0.07913760  0.41971745  0.68124501  1
  O2-  O534  1  0.07426946  0.68480665  0.04696942  1
  O2-  O535  1  0.11219904  0.70392342  0.28161352  1
  O2-  O536  1  0.08992615  0.67352655  0.68629969  1
  O2-  O537  1  0.06954877  0.90895147  0.02197801  1
  O2-  O538  1  0.10857665  0.92358046  0.35803097  1
  O2-  O539  1  0.09153764  0.92297514  0.68553808  1
  O2-  O540  1  0.32160278  0.16597428  0.02683696  1
  O2-  O541  1  0.34608621  0.16927226  0.35545197  1
  O2-  O542  1  0.33691112  0.17309793  0.69058951  1
  O2-  O543  1  0.32550568  0.42450423  0.00514820  1
  O2-  O544  1  0.32981132  0.41955033  0.35245246  1
  O2-  O545  1  0.33180583  0.41384294  0.68731723  1
  O2-  O546  1  0.32961883  0.66297530  0.02058081  1
  O2-  O547  1  0.32245003  0.66695018  0.35360765  1
  O2-  O548  1  0.33346779  0.67302244  0.68499703  1
  O2-  O549  1  0.32926152  0.91649794  0.01869710  1
  O2-  O550  1  0.33065585  0.89815396  0.33380672  1
  O2-  O551  1  0.32482185  0.90681026  0.67803390  1
  O2-  O552  1  0.62830787  0.19417563  0.03350023  1
  O2-  O553  1  0.58095761  0.16237014  0.35728805  1
  O2-  O554  1  0.57159131  0.16333408  0.69580621  1
  O2-  O555  1  0.57254207  0.41752352  0.01959649  1
  O2-  O556  1  0.58957772  0.45839746  0.35653974  1
  O2-  O557  1  0.57851152  0.41719909  0.68963040  1
  O2-  O558  1  0.55837065  0.70554582  0.03357501  1
  O2-  O559  1  0.55332565  0.67274006  0.36073035  1
  O2-  O560  1  0.56704238  0.66415109  0.68778482  1
  O2-  O561  1  0.56852290  0.90470350  0.02538988  1
  O2-  O562  1  0.57218071  0.90445093  0.34102896  1
  O2-  O563  1  0.57268322  0.92435416  0.68851800  1
  O2-  O564  1  0.82532712  0.15334012  0.02351353  1
  O2-  O565  1  0.81075058  0.17427898  0.36746786  1
  O2-  O566  1  0.82081671  0.15346764  0.68610589  1
  O2-  O567  1  0.83455627  0.41772330  0.01935393  1
  O2-  O568  1  0.82562238  0.41975682  0.35324138  1
  O2-  O569  1  0.82571081  0.42520825  0.70168913  1
  O2-  O570  1  0.83378796  0.66384603  0.01466165  1
  O2-  O571  1  0.86745552  0.69386910  0.34895878  1
  O2-  O572  1  0.84821987  0.68556232  0.68495089  1
  O2-  O573  1  0.83054995  0.90726481  0.02325340  1
  O2-  O574  1  0.80430698  0.93432887  0.32547306  1
  O2-  O575  1  0.85296426  0.91998835  0.67786725  1
