# generated using pymatgen
data_H2O
_symmetry_space_group_name_H-M   'P 1'
_cell_length_a   17.99400724
_cell_length_b   17.99607727
_cell_length_c   22.00877693
_cell_angle_alpha   89.99966507
_cell_angle_beta   89.99524310
_cell_angle_gamma   119.99895774
_symmetry_Int_Tables_number   1
_chemical_formula_structural   H2O
_chemical_formula_sum   'H384 O192'
_cell_volume   6172.15521891
_cell_formula_units_Z   192
loop_
 _symmetry_equiv_pos_site_id
 _symmetry_equiv_pos_as_xyz
  1  'x, y, z'
loop_
 _atom_type_symbol
 _atom_type_oxidation_number
  H+  1.0
  O2-  -2.0
loop_
 _atom_site_type_symbol
 _atom_site_label
 _atom_site_symmetry_multiplicity
 _atom_site_fract_x
 _atom_site_fract_y
 _atom_site_fract_z
 _atom_site_occupancy
  H+  H0  1  0.65275715  0.59427596  0.57607859  1
  H+  H1  1  0.61909315  0.41513914  0.77203995  1
  H+  H2  1  0.24441979  0.12210721  0.17295743  1
  H+  H3  1  0.36278674  0.68324497  0.80582873  1
  H+  H4  1  0.10726300  0.89021046  0.67007074  1
  H+  H5  1  0.39576489  0.69678095  0.61148837  1
  H+  H6  1  0.08248984  0.70262623  0.62480924  1
  H+  H7  1  -0.00342973  0.13387875  0.34436818  1
  H+  H8  1  0.82560162  0.98128972  0.09395392  1
  H+  H9  1  0.68050283  0.07770482  0.27238185  1
  H+  H10  1  0.11570419  0.13206716  0.35636072  1
  H+  H11  1  0.64558911  0.62664834  0.81757831  1
  H+  H12  1  0.97609959  0.61120937  0.83146854  1
  H+  H13  1  0.37484725  0.81804881  0.84300823  1
  H+  H14  1  0.64395877  0.26737981  0.66275063  1
  H+  H15  1  0.24027060  0.57796634  0.70954111  1
  H+  H16  1  0.24074555  0.37867716  0.17419073  1
  H+  H17  1  0.24993269  0.87889725  0.00242697  1
  H+  H18  1  0.87963851  0.50893634  0.99500031  1
  H+  H19  1  0.90860425  0.32357908  0.88760411  1
  H+  H20  1  0.35820805  0.63682747  0.16421155  1
  H+  H21  1  -0.03152234  0.61755139  0.49509391  1
  H+  H22  1  0.39037440  1.02972833  0.18046112  1
  H+  H23  1  0.62471185  0.97672729  0.00102322  1
  H+  H24  1  0.11592053  0.88515349  0.33378911  1
  H+  H25  1  0.19599529  0.34575448  0.32821229  1
  H+  H26  1  0.86187693  0.60114622  0.14931617  1
  H+  H27  1  0.13280243  0.97844748  -0.00436494  1
  H+  H28  1  0.10813688  0.45488787  0.49210130  1
  H+  H29  1  -0.02740201  0.84316885  -0.00054170  1
  H+  H30  1  0.64777646  0.36405953  0.84782015  1
  H+  H31  1  0.37976321  0.53420064  0.97361711  1
  H+  H32  1  0.37423354  0.86259806  0.33478075  1
  H+  H33  1  0.11378590  0.64762715  0.33713488  1
  H+  H34  1  0.72356380  0.61962513  0.15780007  1
  H+  H35  1  0.88625406  0.26933520  0.50398895  1
  H+  H36  1  0.11888334  0.73824333  0.33306125  1
  H+  H37  1  0.61057958  0.72982834  0.49846313  1
  H+  H38  1  1.02709631  0.88319332  0.35297867  1
  H+  H39  1  0.64509394  0.85852451  0.66385357  1
  H+  H40  1  0.01779081  0.63848892  0.17115858  1
  H+  H41  1  0.64596843  0.34674791  0.63013761  1
  H+  H42  1  0.32989050  0.44278313  0.35569201  1
  H+  H43  1  0.10406874  0.37125904  0.52305596  1
  H+  H44  1  0.65977750  0.79782833  0.32820846  1
  H+  H45  1  -0.02251954  0.86576524  0.66453162  1
  H+  H46  1  0.25368741  0.67251577  0.79905220  1
  H+  H47  1  0.65148627  0.77180440  0.66194154  1
  H+  H48  1  0.76388528  0.62353796  0.00018551  1
  H+  H49  1  0.00687027  0.62010376  0.00153807  1
  H+  H50  1  0.11281789  0.75994803  0.79819982  1
  H+  H51  1  0.13032733  0.22709885  0.00563623  1
  H+  H52  1  0.07653947  0.16554900  0.76016511  1
  H+  H53  1  0.90863430  0.82421403  0.40907150  1
  H+  H54  1  0.61236729  0.22394428  0.48196708  1
  H+  H55  1  0.88933075  0.12496579  0.51150115  1
  H+  H56  1  0.74389827  0.88921030  0.32048646  1
  H+  H57  1  0.88351004  0.36522355  0.65063908  1
  H+  H58  1  0.54280486  0.90442496  0.66949661  1
  H+  H59  1  0.86830412  0.85007460  0.98173141  1
  H+  H60  1  0.86235654  0.38326390  0.00506156  1
  H+  H61  1  0.08069337  0.67652066  0.42590219  1
  H+  H62  1  0.51683261  0.88276311  0.34512264  1
  H+  H63  1  0.36885169  0.73215387  0.00000911  1
  H+  H64  1  -0.01336088  0.35980542  0.50968298  1
  H+  H65  1  0.49808892  0.12671929  0.66613561  1
  H+  H66  1  0.35969888  0.22123651  0.00306075  1
  H+  H67  1  0.14867644  0.12612087  0.17539421  1
  H+  H68  1  0.57697218  0.90161569  0.43740671  1
  H+  H69  1  0.27371451  0.64310071  -0.00253660  1
  H+  H70  1  0.17527562  0.81164232  0.67426982  1
  H+  H71  1  0.86308070  0.38250666  0.82039525  1
  H+  H72  1  0.74265506  0.38400536  0.14174721  1
  H+  H73  1  -0.04215757  0.33956062  0.65285271  1
  H+  H74  1  0.14015780  0.36492960  0.98564813  1
  H+  H75  1  0.37000611  0.35046923  0.66582603  1
  H+  H76  1  0.65328878  0.45031413  0.39711767  1
  H+  H77  1  0.88623750  0.25885995  0.16475643  1
  H+  H78  1  0.13632915  0.34865614  0.83105715  1
  H+  H79  1  0.61089206  0.21030375  0.34711899  1
  H+  H80  1  0.89103408  0.50570999  0.35496412  1
  H+  H81  1  0.37097430  0.37995000  0.82832201  1
  H+  H82  1  0.88209450  -0.00001387  0.33762886  1
  H+  H83  1  0.85002985  0.61600524  0.00469512  1
  H+  H84  1  0.11071201  0.47478848  0.99685751  1
  H+  H85  1  0.97449711  0.10588586  0.66060110  1
  H+  H86  1  0.12380042  0.10266793  0.51443470  1
  H+  H87  1  0.63959782  0.77599492  0.97502161  1
  H+  H88  1  0.77346910  0.88334139  0.81722501  1
  H+  H89  1  0.29390035  0.91799543  0.66472348  1
  H+  H90  1  0.96531727  0.34186196  0.82672880  1
  H+  H91  1  0.50220189  0.37221673  0.83764553  1
  H+  H92  1  0.55015554  0.61748646  0.81382576  1
  H+  H93  1  0.85031951  0.38732111  0.50454543  1
  H+  H94  1  0.21213273  0.35251408  0.54980751  1
  H+  H95  1  0.08924997  0.74398998  0.97943873  1
  H+  H96  1  -0.05137523  0.60806011  0.64563127  1
  H+  H97  1  0.63590405  0.51037618  0.16803693  1
  H+  H98  1  0.28630080  0.16125470  0.84388417  1
  H+  H99  1  0.38001244  0.76782116  0.51805942  1
  H+  H100  1  0.86723877  0.40809699  0.17372355  1
  H+  H101  1  0.64819590  0.49092742  0.82452204  1
  H+  H102  1  0.62984923  0.85446200  0.50683485  1
  H+  H103  1  0.46660867  0.09795091  0.33119481  1
  H+  H104  1  0.37499877  0.00571744  0.32832097  1
  H+  H105  1  0.58349777  0.16837830  0.74475655  1
  H+  H106  1  0.40524915  0.03236852  1.00003008  1
  H+  H107  1  0.02909742  0.90629874  0.84261646  1
  H+  H108  1  0.09638744  0.91294836  0.43550025  1
  H+  H109  1  0.90161849  0.83808838  0.22377779  1
  H+  H110  1  0.61572614  0.39305543  0.00791140  1
  H+  H111  1  0.57902931  0.41912591  0.06612887  1
  H+  H112  1  0.13486126  0.86332972  0.15997379  1
  H+  H113  1  0.84252374  0.12673399  0.81773486  1
  H+  H114  1  0.48104707  0.99321139  0.05718810  1
  H+  H115  1  0.90741310  0.78929599  0.82056169  1
  H+  H116  1  0.43730391  0.61458185  0.83647559  1
  H+  H117  1  0.35828036  0.12931731  0.16251343  1
  H+  H118  1  0.87993273  0.77444268  0.66312281  1
  H+  H119  1  0.51374681  0.13010019  0.83306019  1
  H+  H120  1  0.21529298  0.60051517  0.49727751  1
  H+  H121  1  0.00849552  0.85416381  0.16894493  1
  H+  H122  1  0.35995907  0.72696233  0.35194203  1
  H+  H123  1  0.47418365  0.61006046  0.50679673  1
  H+  H124  1  0.11169613  0.13809046  0.67054274  1
  H+  H125  1  0.64047480  0.59471724  0.20347281  1
  H+  H126  1  0.61383371  0.23036402  1.00726457  1
  H+  H127  1  0.35629136  0.11749322  0.34571272  1
  H+  H128  1  0.52661597  0.43332308  0.34976698  1
  H+  H129  1  0.62298090  0.14074877  0.68922844  1
  H+  H130  1  0.83390405  0.60601949  0.47544004  1
  H+  H131  1  0.10119504  0.63067659  0.48007175  1
  H+  H132  1  0.10458478  0.21396944  0.52187203  1
  H+  H133  1  0.78689530  0.63948487  0.81359585  1
  H+  H134  1  0.72560015  0.84765465  0.16731148  1
  H+  H135  1  0.90530511  0.06340098  0.19387448  1
  H+  H136  1  0.35977514  0.63051811  0.50462737  1
  H+  H137  1  0.37996129  0.23457950  0.85529898  1
  H+  H138  1  0.89536719  0.17710792  0.16167811  1
  H+  H139  1  0.35005986  0.23999000  0.32668077  1
  H+  H140  1  0.19635833  0.41718270  0.29017336  1
  H+  H141  1  0.21872882  0.10400459  0.65398227  1
  H+  H142  1  0.51938117  0.39246521  0.16289782  1
  H+  H143  1  0.68352254  0.32583504  0.39996674  1
  H+  H144  1  0.89792529  0.87412036  0.82263965  1
  H+  H145  1  0.87370021  0.90595339  0.34851707  1
  H+  H146  1  0.07286161  0.37777588  0.32696052  1
  H+  H147  1  0.84971118  0.47454486  0.50581756  1
  H+  H148  1  0.30510344  0.90137260  0.38427257  1
  H+  H149  1  0.71574528  0.63776911  0.67119187  1
  H+  H150  1  0.54894179  0.90287001  0.15766840  1
  H+  H151  1  0.87200364  0.15593121  0.34815964  1
  H+  H152  1  0.41290057  0.51625842  0.83094667  1
  H+  H153  1  0.13462710  0.61430600  0.99227660  1
  H+  H154  1  0.10957775  0.22627049  0.66130401  1
  H+  H155  1  0.48814577  0.11866737  0.50052971  1
  H+  H156  1  0.47064906  0.62622389  -0.01669954  1
  H+  H157  1  0.27020379  0.89520837  0.97182720  1
  H+  H158  1  0.95877941  0.11468064  0.83559011  1
  H+  H159  1  0.27939218  0.37741179  0.82979380  1
  H+  H160  1  0.38249768  0.37423532  0.17677287  1
  H+  H161  1  0.23745168  0.61874580  0.70638345  1
  H+  H162  1  0.64958391  0.12608418  0.51764035  1
  H+  H163  1  0.52345671  0.88869190  0.82599870  1
  H+  H164  1  0.14825092  0.59460130  0.83055461  1
  H+  H165  1  0.61437856  0.52065832  0.52524314  1
  H+  H166  1  0.87596862  0.64203118  0.81720160  1
  H+  H167  1  0.61551972  0.65152906  0.73491609  1
  H+  H168  1  0.76504278  0.14726515  0.01195916  1
  H+  H169  1  0.28548738  0.89244483  0.15848725  1
  H+  H170  1  0.16783812  0.06772487  0.92516453  1
  H+  H171  1  0.39151722  0.98654193  0.48872903  1
  H+  H172  1  0.36349732  0.13476210  1.00347857  1
  H+  H173  1  0.39486899  0.86417833  0.50912858  1
  H+  H174  1  0.60300162  0.13023064  0.83468029  1
  H+  H175  1  0.60670289  0.63831373  0.49610014  1
  H+  H176  1  0.14751484  0.78205655  0.15593130  1
  H+  H177  1  0.74918315  0.61218977  0.48630329  1
  H+  H178  1  0.40563407  0.12463389  0.64597455  1
  H+  H179  1  0.96445795  0.41991879  0.14191923  1
  H+  H180  1  0.87862027  0.94384550  0.12330807  1
  H+  H181  1  0.62931519  0.11055853  -0.00524882  1
  H+  H182  1  0.32141086  0.35087640  0.35157389  1
  H+  H183  1  0.88637249  0.75044647  0.99357786  1
  H+  H184  1  0.49733780  0.85824584  0.99176689  1
  H+  H185  1  0.41275390  0.80875815  0.66418405  1
  H+  H186  1  0.39017746  0.36557487  0.98019844  1
  H+  H187  1  0.32895964  0.15344484  0.58797704  1
  H+  H188  1  0.12683627  0.13703767  0.00290330  1
  H+  H189  1  0.60947603  0.38949379  0.15510360  1
  H+  H190  1  0.60927880  0.23141140  0.15162539  1
  H+  H191  1  0.46150756  0.35585159  0.66005051  1
  H+  H192  1  0.10859822  -0.03506413  0.49690834  1
  H+  H193  1  0.62797828  0.35831425  0.49066632  1
  H+  H194  1  0.86277241  0.51448796  0.16528772  1
  H+  H195  1  0.23415017  0.87010503  0.31270798  1
  H+  H196  1  0.72775437  0.36657695  1.00293105  1
  H+  H197  1  0.11727918  0.75477996  0.51673272  1
  H+  H198  1  0.07496679  0.41318988  0.05332536  1
  H+  H199  1  0.25878753  0.70628129  0.82209535  1
  H+  H200  1  0.59156164  0.49533640  0.67936619  1
  H+  H201  1  0.41984270  0.90193611  0.18784542  1
  H+  H202  1  0.78215030  0.65499397  0.29939111  1
  H+  H203  1  0.71650486  0.11052677  0.83817489  1
  H+  H204  1  0.75408890  0.12181673  0.17895062  1
  H+  H205  1  0.62098410  0.51979204  0.99945516  1
  H+  H206  1  -0.02998895  0.36018739  -0.01992581  1
  H+  H207  1  0.67634888  0.56298999  0.33452582  1
  H+  H208  1  0.11003511  0.35594743  0.16220762  1
  H+  H209  1  0.60892882  0.88755586  0.33769458  1
  H+  H210  1  0.87801645  0.03089490  0.50616264  1
  H+  H211  1  0.63924101  0.01943169  0.33201641  1
  H+  H212  1  0.22237825  0.10047756  0.32884121  1
  H+  H213  1  0.65602381  0.87136633  0.97826158  1
  H+  H214  1  0.05502361  0.53679059  0.85562183  1
  H+  H215  1  0.63098649  0.02026343  0.84150737  1
  H+  H216  1  0.13146966  0.32441197  0.22498235  1
  H+  H217  1  0.13243434  0.01483613  0.32335097  1
  H+  H218  1  0.47731995  0.36493612  0.99371192  1
  H+  H219  1  0.77636473  0.38485769  0.82823220  1
  H+  H220  1  0.84337833  0.21561557  0.81527167  1
  H+  H221  1  0.60908716  0.12185653  0.33836632  1
  H+  H222  1  0.44952070  0.56688520  0.34134285  1
  H+  H223  1  0.43034027  0.61321613  0.66223467  1
  H+  H224  1  0.11152323  0.48208872  0.15289653  1
  H+  H225  1  0.77425304  0.86288807  -0.02835884  1
  H+  H226  1  0.21330978  0.10219602  0.51198811  1
  H+  H227  1  0.16466568  0.03915021  0.80870047  1
  H+  H228  1  0.61234804  0.71166163  0.18827002  1
  H+  H229  1  0.22213657  0.61144593  0.33288393  1
  H+  H230  1  0.11642923  0.84309608  0.52070079  1
  H+  H231  1  0.49771812  0.37997090  0.51175836  1
  H+  H232  1  0.86032795  0.40963895  0.34591455  1
  H+  H233  1  0.67467175  1.02642753  0.17190458  1
  H+  H234  1  0.29347847  0.95163711  0.85264921  1
  H+  H235  1  0.37556755  0.10303540  0.85241077  1
  H+  H236  1  0.85681129  0.10432198  1.00054784  1
  H+  H237  1  0.83190546  0.73234391  0.15131401  1
  H+  H238  1  0.99979246  0.13374977  0.17356802  1
  H+  H239  1  0.54395895  0.68897658  0.34945222  1
  H+  H240  1  0.13069327  0.60390202  0.17105603  1
  H+  H241  1  0.87502389  0.02394348  0.83458133  1
  H+  H242  1  0.11818409  0.22651523  0.15380600  1
  H+  H243  1  0.36838186  0.51609488  0.18870113  1
  H+  H244  1  0.60656620  0.87654862  0.82084362  1
  H+  H245  1  0.09571699  0.44478209  0.81104515  1
  H+  H246  1  0.08067038  0.43519132  0.65884676  1
  H+  H247  1  0.76766868  0.89964608  0.48928479  1
  H+  H248  1  -0.01561115  0.55056582  0.13969852  1
  H+  H249  1  0.09079283  0.57720965  0.63688091  1
  H+  H250  1  0.39471212  1.01635744  0.66410974  1
  H+  H251  1  0.65672114  0.64088776  0.33389524  1
  H+  H252  1  0.37377632  0.62984902  0.98888429  1
  H+  H253  1  0.89050036  0.51733448  0.83489629  1
  H+  H254  1  0.84312356  0.63756874  0.66195282  1
  H+  H255  1  0.48298206  0.12416652  0.99139731  1
  H+  H256  1  0.88454642  0.74644034  0.48290348  1
  H+  H257  1  0.63847849  0.27086985  0.85006525  1
  H+  H258  1  0.10061257  0.84571539  0.97866306  1
  H+  H259  1  0.42161962  0.90850113  0.02061548  1
  H+  H260  1  0.10062898  -0.02591493  0.67254531  1
  H+  H261  1  0.50160846  0.95338029  0.22767953  1
  H+  H262  1  0.08801403  0.11833942  0.81767276  1
  H+  H263  1  0.86058756  0.27590016  0.29768386  1
  H+  H264  1  0.40448140  0.91318911  0.85711103  1
  H+  H265  1  0.23324868  0.10626500  0.98267600  1
  H+  H266  1  0.77616993  0.38392578  0.66660612  1
  H+  H267  1  0.35831241  0.63631127  0.35370930  1
  H+  H268  1  0.68026134  0.83678234  0.23294844  1
  H+  H269  1  0.62199549  0.87765652  0.15490546  1
  H+  H270  1  0.15753442  0.92946897  0.04450416  1
  H+  H271  1  0.36555445  0.35266614  0.51554901  1
  H+  H272  1  0.36065689  0.21889966  0.64285497  1
  H+  H273  1  0.60040363  0.63804012  1.00589065  1
  H+  H274  1  0.38412971  0.91309497  0.66807664  1
  H+  H275  1  0.32409304  0.15352296  0.10087737  1
  H+  H276  1  0.51900278  0.39604931  0.37025783  1
  H+  H277  1  -0.02756059  0.83601306  0.48804514  1
  H+  H278  1  0.88288930  0.87336143  0.66559626  1
  H+  H279  1  0.37568943  0.46565575  0.67778972  1
  H+  H280  1  0.66206001  1.08308300  -0.06437463  1
  H+  H281  1  0.78231557  0.88736146  0.66896351  1
  H+  H282  1  0.77635215  0.13989985  0.34601205  1
  H+  H283  1  0.36772738  0.13477816  0.49942566  1
  H+  H284  1  0.27246459  0.39703333  -0.01737920  1
  H+  H285  1  0.64244034  0.76149495  0.82240310  1
  H+  H286  1  0.22543604  0.61339011  0.16827055  1
  H+  H287  1  0.51115036  0.60119328  0.66031892  1
  H+  H288  1  0.83304063  0.18833537  0.06773890  1
  H+  H289  1  0.78080546  0.15351261  0.50096331  1
  H+  H290  1  0.26619910  0.09544183  0.75207793  1
  H+  H291  1  0.15756976  0.89748438  0.84741046  1
  H+  H292  1  0.44188063  0.34655055  0.89704879  1
  H+  H293  1  0.72167077  0.36456397  0.49502534  1
  H+  H294  1  0.12888535  0.81060291  0.91550326  1
  H+  H295  1  0.33484521  0.66320708  0.10128117  1
  H+  H296  1  0.46281829  0.59892661  0.19721023  1
  H+  H297  1  0.41695011  0.83380310  0.28202233  1
  H+  H298  1  0.17198236  0.58737128  0.26947865  1
  H+  H299  1  0.86103860  0.59514518  0.25316943  1
  H+  H300  1  0.39721137  0.32341652  0.57458414  1
  H+  H301  1  0.77533572  0.13790546  0.72679758  1
  H+  H302  1  0.34677602  0.43604725  0.03327347  1
  H+  H303  1  0.87395817  0.98148318  0.66734740  1
  H+  H304  1  0.42800416  0.33366801  0.32426154  1
  H+  H305  1  0.73832387  0.53872126  0.40324645  1
  H+  H306  1  0.16761393  0.33093869  0.92659965  1
  H+  H307  1  0.83628025  0.18117171  0.43700700  1
  H+  H308  1  0.17071220  0.84089500  0.25478377  1
  H+  H309  1  0.17288996  0.83947504  0.60454645  1
  H+  H310  1  0.30135252  0.39620538  0.45393527  1
  H+  H311  1  0.15669125  0.57913816  0.93290280  1
  H+  H312  1  0.09019531  0.16290764  0.41716013  1
  H+  H313  1  0.57687250  0.63328634  0.14347215  1
  H+  H314  1  0.15144406  0.07230514  0.60121542  1
  H+  H315  1  0.43050981  0.84587929  0.93829927  1
  H+  H316  1  0.34882995  0.46749222  0.50543046  1
  H+  H317  1  0.40178370  0.94093428  0.43070360  1
  H+  H318  1  0.01403728  0.13051611  0.50912975  1
  H+  H319  1  0.94838905  0.12329897  0.28133288  1
  H+  H320  1  0.07044549  0.38353396  0.75229447  1
  H+  H321  1  0.06542537  0.65560079  0.06008556  1
  H+  H322  1  0.89169693  0.74853124  0.23742072  1
  H+  H323  1  0.90994930  0.56874765  0.93390052  1
  H+  H324  1  0.05402115  0.90362626  0.10832295  1
  H+  H325  1  0.17549468  0.09081215  0.23965070  1
  H+  H326  1  0.67176031  0.33799400  0.94188097  1
  H+  H327  1  0.36482913  0.92968667  0.11085754  1
  H+  H328  1  0.33336693  0.66619416  0.44663249  1
  H+  H329  1  0.40881315  0.06763321  0.90262983  1
  H+  H330  1  0.83926513  0.90863333  0.02870548  1
  H+  H331  1  0.42813921  0.85523017  0.60132610  1
  H+  H332  1  0.40278052  0.32670004  0.22809660  1
  H+  H333  1  0.39640999  0.56249837  0.28223251  1
  H+  H334  1  0.91181646  0.07689696  0.60295077  1
  H+  H335  1  0.45382408  0.72658358  0.77763662  1
  H+  H336  1  0.85243430  0.42105105  0.07013067  1
  H+  H337  1  0.33680604  0.40722411  0.73674605  1
  H+  H338  1  0.87854525  0.27484111  0.98603796  1
  H+  H339  1  0.86294782  0.51975479  0.65049810  1
  H+  H340  1  0.68847960  0.11034435  0.57829887  1
  H+  H341  1  0.08271572  0.46909560  0.32942886  1
  H+  H342  1  0.51865148  0.14633501  0.16068391  1
  H+  H343  1  0.57486924  0.69261857  0.05112211  1
  H+  H344  1  0.58161930  0.14966278  0.43306827  1
  H+  H345  1  0.17106265  0.56598054  0.64088602  1
  H+  H346  1  0.07237827  0.68081859  0.69690510  1
  H+  H347  1  0.41351019  0.08642170  0.24032904  1
  H+  H348  1  0.43408283  0.08667084  0.56162888  1
  H+  H349  1  0.51919317  0.87058459  0.49774590  1
  H+  H350  1  0.09971825  0.16440824  0.09636181  1
  H+  H351  1  0.87933906  0.06404435  0.94652273  1
  H+  H352  1  0.83460619  0.42095460  0.72619693  1
  H+  H353  1  0.83801806  0.92129996  0.76157615  1
  H+  H354  1  0.63838514  0.57752910  0.94073186  1
  H+  H355  1  0.57678275  0.16884815  0.06547951  1
  H+  H356  1  0.66896856  0.83047380  0.56520615  1
  H+  H357  1  0.59146286  0.91844599  0.73254436  1
  H+  H358  1  0.29884040  0.40978888  0.11784801  1
  H+  H359  1  0.94424395  0.35993836  0.28519871  1
  H+  H360  1  0.70429841  0.36096888  0.20623615  1
  H+  H361  1  0.91330586  0.33173019  0.56991156  1
  H+  H362  1  0.32424671  0.14855790  0.40464509  1
  H+  H363  1  0.65835847  1.03018632  0.67338104  1
  H+  H364  1  0.09786916  0.35451076  0.65416063  1
  H+  H365  1  0.54996697  0.42770194  0.45435233  1
  H+  H366  1  0.33335263  0.65815437  0.66649986  1
  H+  H367  1  0.59287747  0.68767511  0.40920303  1
  H+  H368  1  0.30464562  0.13986287  0.74888874  1
  H+  H369  1  0.89069506  0.77745023  0.34450603  1
  H+  H370  1  0.13880914  0.55958603  0.54475567  1
  H+  H371  1  0.02429024  0.73362857  0.76979498  1
  H+  H372  1  0.71529719  0.58123364  0.88016295  1
  H+  H373  1  0.69856055  0.37310625  0.33879035  1
  H+  H374  1  0.80500447  0.67738028  0.08803516  1
  H+  H375  1  0.13751550  0.26226266  0.83654074  1
  H+  H376  1  0.35709110  0.22009437  0.50136945  1
  H+  H377  1  0.66417249  0.82251209  0.88047062  1
  H+  H378  1  0.53643572  0.43903925  0.73327968  1
  H+  H379  1  0.82578617  0.94043917  0.42998459  1
  H+  H380  1  0.42762829  0.57425862  0.56997805  1
  H+  H381  1  0.90439881  0.59057374  0.55308062  1
  H+  H382  1  0.60356936  0.91428210  0.05842189  1
  H+  H383  1  0.83372721  0.67228111  0.72673881  1
  O2-  O384  1  0.09671533  0.16526883  0.14283511  1
  O2-  O385  1  0.07779871  0.15904947  0.49934334  1
  O2-  O386  1  0.07254950  0.16138464  0.80606008  1
  O2-  O387  1  0.07736077  0.42389432  0.13161823  1
  O2-  O388  1  0.07499317  0.39118182  0.49433898  1
  O2-  O389  1  0.07081396  0.38460621  0.79838689  1
  O2-  O390  1  0.03485031  0.61066132  0.14046390  1
  O2-  O391  1  0.07544264  0.66719748  0.47185331  1
  O2-  O392  1  0.06557448  0.71369015  0.77406162  1
  O2-  O393  1  0.06492602  0.89452456  0.15032821  1
  O2-  O394  1  0.08794509  0.90625667  0.48044529  1
  O2-  O395  1  0.09447995  0.93814249  0.85653819  1
  O2-  O396  1  0.32229241  0.15325322  0.14603025  1
  O2-  O397  1  0.32703702  0.15698481  0.49265470  1
  O2-  O398  1  0.33867525  0.17301677  0.86468948  1
  O2-  O399  1  0.30368171  0.41159112  0.16186212  1
  O2-  O400  1  0.31188943  0.40454719  0.49843517  1
  O2-  O401  1  0.33978226  0.40988313  0.81481132  1
  O2-  O402  1  0.32760858  0.66384152  0.14546577  1
  O2-  O403  1  0.33041007  0.66288617  0.49230626  1
  O2-  O404  1  0.42341757  0.70810784  0.81632808  1
  O2-  O405  1  0.34907669  0.92517806  0.15462435  1
  O2-  O406  1  0.37386059  0.92903832  0.47048830  1
  O2-  O407  1  0.26686207  0.88758510  0.85439067  1
  O2-  O408  1  0.57400213  0.17176405  0.13808276  1
  O2-  O409  1  0.58357460  0.15972881  0.47813890  1
  O2-  O410  1  0.57498579  0.16354824  0.82051836  1
  O2-  O411  1  0.57941156  0.42154960  0.14432601  1
  O2-  O412  1  0.55903495  0.41673164  0.49636163  1
  O2-  O413  1  0.61045722  0.42223530  0.81508774  1
  O2-  O414  1  0.57746654  0.64686232  0.18639911  1
  O2-  O415  1  0.57770784  0.66945864  0.48003634  1
  O2-  O416  1  0.61205406  0.65329719  0.79853482  1
  O2-  O417  1  0.60255739  0.91502657  0.13587203  1
  O2-  O418  1  0.57845551  0.89626358  0.48222556  1
  O2-  O419  1  0.58183103  0.91344205  0.80894748  1
  O2-  O420  1  0.85925396  0.20095425  0.14711105  1
  O2-  O421  1  0.84104146  0.18275719  0.48278176  1
  O2-  O422  1  0.80879255  0.15420990  0.80287202  1
  O2-  O423  1  0.88485325  0.44840539  0.13965190  1
  O2-  O424  1  0.81574811  0.41284467  0.51697529  1
  O2-  O425  1  0.83485956  0.41689816  0.80960063  1
  O2-  O426  1  0.78277449  0.69134815  0.12527208  1
  O2-  O427  1  0.79277992  0.62069677  0.45561372  1
  O2-  O428  1  0.85047110  0.67510759  0.80029085  1
  O2-  O429  1  0.82411477  0.92727418  0.10324468  1
  O2-  O430  1  0.82595394  0.94172602  0.47483792  1
  O2-  O431  1  0.83547272  0.91894778  0.80707807  1
  O2-  O432  1  0.18010899  0.09685481  0.19286015  1
  O2-  O433  1  0.15335375  0.06957752  0.52687861  1
  O2-  O434  1  0.12947379  0.03081523  0.84505835  1
  O2-  O435  1  0.13760766  0.32440876  0.17988009  1
  O2-  O436  1  0.15041446  0.31917525  0.56108609  1
  O2-  O437  1  0.16869633  0.32337291  0.85079617  1
  O2-  O438  1  0.16491075  0.57772485  0.18423369  1
  O2-  O439  1  0.15157869  0.56680957  0.50056184  1
  O2-  O440  1  0.11315277  0.54567355  0.85716651  1
  O2-  O441  1  0.17518255  0.84110611  0.17016505  1
  O2-  O442  1  0.13006069  0.80399083  0.54461700  1
  O2-  O443  1  0.17194971  0.84916799  0.85224247  1
  O2-  O444  1  0.41610533  0.09033501  0.19454206  1
  O2-  O445  1  0.42671340  0.08747175  0.51718194  1
  O2-  O446  1  0.39811300  0.06251178  0.85768848  1
  O2-  O447  1  0.42285979  0.35473688  0.18822024  1
  O2-  O448  1  0.39799898  0.32305936  0.52838943  1
  O2-  O449  1  0.44123918  0.34415321  0.85165019  1
  O2-  O450  1  0.40100872  0.57460978  0.20691182  1
  O2-  O451  1  0.41579280  0.57761658  0.52602954  1
  O2-  O452  1  0.45878446  0.57458258  0.84354309  1
  O2-  O453  1  0.46904353  0.89867865  0.20649269  1
  O2-  O454  1  0.41443424  0.82856119  0.53244503  1
  O2-  O455  1  0.42135720  0.86946818  0.86193285  1
  O2-  O456  1  0.69982061  0.07789407  0.19776446  1
  O2-  O457  1  0.69003491  0.10870256  0.53376456  1
  O2-  O458  1  0.65724638  0.07986187  0.85722686  1
  O2-  O459  1  0.68741849  0.35642285  0.16362407  1
  O2-  O460  1  0.66062945  0.33080451  0.47742114  1
  O2-  O461  1  0.67473398  0.33096649  0.86471957  1
  O2-  O462  1  0.67571420  0.57072949  0.18691199  1
  O2-  O463  1  0.65009849  0.58380526  0.53180248  1
  O2-  O464  1  0.69409579  0.57902365  0.83924843  1
  O2-  O465  1  0.66995294  0.81958352  0.18819670  1
  O2-  O466  1  0.66398305  0.82572454  0.52035536  1
  O2-  O467  1  0.66122704  0.82146451  0.83530685  1
  O2-  O468  1  0.94624145  0.12462676  0.19491955  1
  O2-  O469  1  0.91402427  0.08960848  0.52627116  1
  O2-  O470  1  0.89835717  0.08395133  0.84945822  1
  O2-  O471  1  0.99159707  0.38700295  0.15879086  1
  O2-  O472  1  0.92067663  0.33326592  0.52104078  1
  O2-  O473  1  0.90596922  0.32139386  0.84210048  1
  O2-  O474  1  0.84765484  0.55927572  0.18151572  1
  O2-  O475  1  0.90694780  0.58735700  0.50823508  1
  O2-  O476  1  0.92182586  0.57705341  0.85333187  1
  O2-  O477  1  0.90876025  0.79363276  0.20381094  1
  O2-  O478  1  0.90971147  0.80889615  0.48113788  1
  O2-  O479  1  0.93814123  0.85166013  0.82900862  1
  O2-  O480  1  0.16448760  0.07670467  0.30959875  1
  O2-  O481  1  0.15619934  0.07622670  0.64710988  1
  O2-  O482  1  0.17113622  0.07024714  0.96995309  1
  O2-  O483  1  0.16033991  0.35604158  0.29852388  1
  O2-  O484  1  0.15224344  0.32117028  0.62838094  1
  O2-  O485  1  0.17585723  0.33970956  0.97194194  1
  O2-  O486  1  0.16433615  0.58464690  0.31407510  1
  O2-  O487  1  0.11417539  0.54061827  0.62249050  1
  O2-  O488  1  0.16879542  0.58827969  0.97711636  1
  O2-  O489  1  0.17103931  0.84227133  0.29953344  1
  O2-  O490  1  0.19259078  0.86188415  0.64863524  1
  O2-  O491  1  0.09004362  0.79202367  0.95360329  1
  O2-  O492  1  0.40600813  0.07129952  0.31675228  1
  O2-  O493  1  0.44003837  0.09383521  0.64432035  1
  O2-  O494  1  0.42077315  0.08700476  0.97914003  1
  O2-  O495  1  0.36863165  0.29919255  0.31017932  1
  O2-  O496  1  0.40094197  0.32021461  0.64664694  1
  O2-  O497  1  0.41983039  0.33258982  0.97378326  1
  O2-  O498  1  0.39365394  0.55730479  0.32809270  1
  O2-  O499  1  0.44940378  0.57378918  0.64768036  1
  O2-  O500  1  0.40949168  0.59929479  0.96862649  1
  O2-  O501  1  0.40856149  0.82955073  0.32639959  1
  O2-  O502  1  0.43489436  0.86673426  0.64717976  1
  O2-  O503  1  0.43438918  0.83335538  0.98193515  1
  O2-  O504  1  0.67172012  0.07992347  0.31725452  1
  O2-  O505  1  0.68062274  0.09315694  0.66590269  1
  O2-  O506  1  0.66065523  0.08059658  0.98117832  1
  O2-  O507  1  0.68579397  0.31774090  0.35545039  1
  O2-  O508  1  0.68012113  0.31980804  0.63836568  1
  O2-  O509  1  0.66757659  0.34013793  0.98739960  1
  O2-  O510  1  0.68265271  0.61303387  0.31042160  1
  O2-  O511  1  0.65278813  0.60677494  0.65913784  1
  O2-  O512  1  0.64757098  0.58189687  0.98479160  1
  O2-  O513  1  0.68269207  0.85296084  0.30573781  1
  O2-  O514  1  0.67734766  0.83137365  0.64698208  1
  O2-  O515  1  0.67762566  0.83469353  0.95909550  1
  O2-  O516  1  0.93763374  0.10911501  0.32482963  1
  O2-  O517  1  0.91372141  0.06878693  0.64783752  1
  O2-  O518  1  0.86240767  0.05411668  0.98953517  1
  O2-  O519  1  0.88468047  0.32494956  0.26949613  1
  O2-  O520  1  0.90298354  0.32694717  0.63279163  1
  O2-  O521  1  0.90941595  0.33345748  0.96628203  1
  O2-  O522  1  0.87120019  0.61831210  0.29601602  1
  O2-  O523  1  0.88720347  0.58022427  0.63474832  1
  O2-  O524  1  0.90820298  0.57039883  0.97914521  1
  O2-  O525  1  0.91636697  0.83495768  0.36317763  1
  O2-  O526  1  0.91378293  0.83723267  0.65059968  1
  O2-  O527  1  0.91796496  0.81116385  0.97800520  1
  O2-  O528  1  0.10425052  0.16969095  0.02441067  1
  O2-  O529  1  0.09180433  0.16704845  0.37219023  1
  O2-  O530  1  0.08208910  0.16941333  0.68422600  1
  O2-  O531  1  0.07997914  0.41317243  0.00816774  1
  O2-  O532  1  0.04001138  0.40735852  0.33234837  1
  O2-  O533  1  0.06217156  0.37837762  0.67672336  1
  O2-  O534  1  0.06894250  0.65861969  0.01504955  1
  O2-  O535  1  0.08752377  0.68087343  0.35259371  1
  O2-  O536  1  0.06327255  0.65654127  0.65507943  1
  O2-  O537  1  0.11090838  0.91942775  0.01682596  1
  O2-  O538  1  0.09123616  0.91748483  0.35487523  1
  O2-  O539  1  0.07020964  0.91211169  0.68502972  1
  O2-  O540  1  0.32871968  0.16094879  0.01775317  1
  O2-  O541  1  0.32304276  0.14661346  0.35975342  1
  O2-  O542  1  0.33678368  0.15591482  0.63231900  1
  O2-  O543  1  0.33851089  0.43388320  -0.01051119  1
  O2-  O544  1  0.29597838  0.38321243  0.37092117  1
  O2-  O545  1  0.33767471  0.40611505  0.69145818  1
  O2-  O546  1  0.33517567  0.66906874  0.01157518  1
  O2-  O547  1  0.32938722  0.66683936  0.36907964  1
  O2-  O548  1  0.39419534  0.69513215  0.65596007  1
  O2-  O549  1  0.42181516  0.95647650  0.04405351  1
  O2-  O550  1  0.32790364  0.91089826  0.34296650  1
  O2-  O551  1  0.35531082  0.94754540  0.68040005  1
  O2-  O552  1  0.58113090  0.16860582  0.01929147  1
  O2-  O553  1  0.57475398  0.14739058  0.35487377  1
  O2-  O554  1  0.58785196  0.16819551  0.69901826  1
  O2-  O555  1  0.58212944  0.42168854  0.02077763  1
  O2-  O556  1  0.69871948  0.49496345  0.37284615  1
  O2-  O557  1  0.55911833  0.43495562  0.69390610  1
  O2-  O558  1  0.57165509  0.67411207  0.00904537  1
  O2-  O559  1  0.59852881  0.69572818  0.36296605  1
  O2-  O560  1  0.61576520  0.65720654  0.68497157  1
  O2-  O561  1  0.60174602  0.91478829  0.01271576  1
  O2-  O562  1  0.57878928  0.91446105  0.35755854  1
  O2-  O563  1  0.60013225  0.92231726  0.68730433  1
  O2-  O564  1  0.82692092  0.18309711  0.02277387  1
  O2-  O565  1  0.83565546  0.18043161  0.36066282  1
  O2-  O566  1  0.77208536  0.13537341  0.68124520  1
  O2-  O567  1  0.83543917  0.41394485  0.02542595  1
  O2-  O568  1  0.86877970  0.45191730  0.37707897  1
  O2-  O569  1  0.83666954  0.42341462  0.68110983  1
  O2-  O570  1  0.82276149  0.65068716  0.01716745  1
  O2-  O571  1  0.84752614  0.68529380  0.29199048  1
  O2-  O572  1  0.82209986  0.67405554  0.68194727  1
  O2-  O573  1  0.83622663  0.88686431  -0.01368808  1
  O2-  O574  1  0.84211710  0.93821372  0.34798728  1
  O2-  O575  1  0.84296493  0.91708429  0.68417230  1
