# generated using pymatgen
data_H2O
_symmetry_space_group_name_H-M   'P 1'
_cell_length_a   17.98668670
_cell_length_b   17.98724172
_cell_length_c   21.99234974
_cell_angle_alpha   89.98739490
_cell_angle_beta   90.02498097
_cell_angle_gamma   119.97884439
_symmetry_Int_Tables_number   1
_chemical_formula_structural   H2O
_chemical_formula_sum   'H384 O192'
_cell_volume   6163.26026029
_cell_formula_units_Z   192
loop_
 _symmetry_equiv_pos_site_id
 _symmetry_equiv_pos_as_xyz
  1  'x, y, z'
loop_
 _atom_type_symbol
 _atom_type_oxidation_number
  H+  1.0
  O2-  -2.0
loop_
 _atom_site_type_symbol
 _atom_site_label
 _atom_site_symmetry_multiplicity
 _atom_site_fract_x
 _atom_site_fract_y
 _atom_site_fract_z
 _atom_site_occupancy
  H+  H0  1  0.11799140  0.22208777  0.49089514  1
  H+  H1  1  0.71540987  0.85904046  0.83450290  1
  H+  H2  1  0.15729487  0.27483980  0.32261747  1
  H+  H3  1  0.61611294  0.89490553  0.82320584  1
  H+  H4  1  0.61670735  0.89028766  0.66961879  1
  H+  H5  1  0.12311937  0.39427365  0.16606266  1
  H+  H6  1  1.12916890  0.14758311  0.33687686  1
  H+  H7  1  0.63083402  0.34852999  0.51125095  1
  H+  H8  1  0.25314206  0.89376922  0.17589810  1
  H+  H9  1  0.84314129  0.36011909  0.49507593  1
  H+  H10  1  0.98330808  0.86719533  0.66068793  1
  H+  H11  1  0.87345210  0.62806077  0.33183709  1
  H+  H12  1  0.85396370  0.71595832  0.00475522  1
  H+  H13  1  0.07454862  0.86076602  0.15260402  1
  H+  H14  1  0.77641324  0.13455113  1.00634247  1
  H+  H15  1  0.12057072  0.33413357  0.65656672  1
  H+  H16  1  0.95520098  0.56416897  0.65515276  1
  H+  H17  1  0.37506685  0.11771295  0.82070472  1
  H+  H18  1  0.33666063  0.16413397  0.72136764  1
  H+  H19  1  0.97429503  0.85096438  0.98217514  1
  H+  H20  1  0.64991517  0.76914105  0.18192795  1
  H+  H21  1  0.49129048  0.13379807  0.32549149  1
  H+  H22  1  0.61666070  0.22171999  0.16227303  1
  H+  H23  1  0.14540893  0.16615197  0.15962017  1
  H+  H24  1  0.75389921  0.34803777  0.68264753  1
  H+  H25  1  0.44207026  0.34581528  0.26028758  1
  H+  H26  1  0.91512229  0.32470973  0.23719753  1
  H+  H27  1  0.88495293  0.58824310  0.65982030  1
  H+  H28  1  0.08555310  0.46812538  0.34866074  1
  H+  H29  1  0.89112509  0.35510361  0.17428216  1
  H+  H30  1  0.11546867  1.01156286  0.49989379  1
  H+  H31  1  0.87453232  0.22712395  0.15951572  1
  H+  H32  1  0.38579117  0.91347970  0.67351694  1
  H+  H33  1  0.79534297  0.38096364  -0.02061933  1
  H+  H34  1  0.38588440  0.59418379  0.50699195  1
  H+  H35  1  0.38872985  0.27275659  0.84132498  1
  H+  H36  1  0.25211132  0.89279191  0.67669573  1
  H+  H37  1  0.32335812  0.65184795  0.55536816  1
  H+  H38  1  0.14087356  0.52874407  0.62613634  1
  H+  H39  1  0.85273234  0.88404031  0.48354014  1
  H+  H40  1  0.38236442  0.89444112  0.82186582  1
  H+  H41  1  0.36420001  0.72119997  0.86041849  1
  H+  H42  1  0.31220928  0.18028399  0.17147397  1
  H+  H43  1  0.69903155  0.83313607  0.27201868  1
  H+  H44  1  0.19075054  0.59513909  0.31844994  1
  H+  H45  1  0.93364040  0.82282512  0.83014666  1
  H+  H46  1  0.38323408  0.21104380  0.50333027  1
  H+  H47  1  0.83084225  0.91651541  -0.07323298  1
  H+  H48  1  0.60612511  0.48927808  0.67283709  1
  H+  H49  1  0.09455328  0.62797113  0.15519697  1
  H+  H50  1  0.39939902  0.86348366  0.49609697  1
  H+  H51  1  0.52382217  0.37589057  0.49741821  1
  H+  H52  1  0.38517452  0.36398152  -0.00533706  1
  H+  H53  1  0.40875932  0.80266080  0.78159489  1
  H+  H54  1  0.11186717  0.96509993  -0.00688959  1
  H+  H55  1  0.60125580  0.48251866  0.82249524  1
  H+  H56  1  0.70678809  0.36985437  0.03455642  1
  H+  H57  1  0.61830343  0.23484795  0.84218028  1
  H+  H58  1  0.49781950  0.12911607  0.84236951  1
  H+  H59  1  0.11947295  0.13305293  -0.00167281  1
  H+  H60  1  0.38279407  0.02650670  0.17812874  1
  H+  H61  1  0.50541593  0.63586865  0.17122322  1
  H+  H62  1  0.25748245  0.36890324  0.32184336  1
  H+  H63  1  0.02526965  0.37773311  0.16773032  1
  H+  H64  1  0.39837883  0.77024266  0.18517781  1
  H+  H65  1  0.86996251  0.37180281  0.34190271  1
  H+  H66  1  0.51357488  0.39099542  0.82144237  1
  H+  H67  1  0.35006047  0.84938163  0.04586032  1
  H+  H68  1  0.62687542  0.51165631  0.51225022  1
  H+  H69  1  -0.03249916  0.35245840  0.34014594  1
  H+  H70  1  0.37595928  0.35763319  0.65470587  1
  H+  H71  1  0.53837313  0.71306545  0.04884380  1
  H+  H72  1  0.84275547  0.86956261  0.82299166  1
  H+  H73  1  0.37524062  0.47824508  1.00609821  1
  H+  H74  1  0.32408964  0.42977626  0.74197499  1
  H+  H75  1  0.65437209  0.58123978  0.93584340  1
  H+  H76  1  0.18801021  0.10739824  0.24064310  1
  H+  H77  1  0.13737956  0.60889787  0.83729455  1
  H+  H78  1  0.60882293  0.72607097  0.82463767  1
  H+  H79  1  0.65285689  0.29293743  0.59539528  1
  H+  H80  1  0.29421411  0.89431802  0.82846358  1
  H+  H81  1  0.14517031  0.36360675  0.99896238  1
  H+  H82  1  0.78190750  0.12700847  0.36149995  1
  H+  H83  1  0.63659682  1.02492384  -0.00706253  1
  H+  H84  1  0.88001544  0.38083366  0.99787004  1
  H+  H85  1  0.14744351  0.55008877  0.65699520  1
  H+  H86  1  0.16563077  0.80371389  0.68644334  1
  H+  H87  1  0.14912138  0.27660827  0.99253776  1
  H+  H88  1  0.59862812  0.47776208  0.01664129  1
  H+  H89  1  0.97265779  0.10401915  0.83240775  1
  H+  H90  1  0.43713308  0.70024636  0.16647709  1
  H+  H91  1  0.20846414  0.60020084  0.49146921  1
  H+  H92  1  0.63293010  0.86204242  0.50364809  1
  H+  H93  1  0.22580179  0.60945905  0.85487251  1
  H+  H94  1  0.94536452  0.08159597  0.18417984  1
  H+  H95  1  0.49443390  0.95112978  0.15889504  1
  H+  H96  1  0.90767637  0.08161257  0.55150413  1
  H+  H97  1  0.15400409  0.64042045  0.56804842  1
  H+  H98  1  0.09383126  0.74789265  0.17179001  1
  H+  H99  1  0.36195129  0.63201052  0.86243534  1
  H+  H100  1  0.88147353  0.10172593  0.64594974  1
  H+  H101  1  0.89405647  0.27078412  0.99506307  1
  H+  H102  1  0.36984600  0.87909774  0.34585480  1
  H+  H103  1  0.61186971  0.72312496  0.49182785  1
  H+  H104  1  0.79385827  -0.11404773  0.37898303  1
  H+  H105  1  0.42555341  0.40668193  0.16418324  1
  H+  H106  1  0.40254248  0.27864156  0.31682221  1
  H+  H107  1  0.84381420  0.96953687  0.15456507  1
  H+  H108  1  0.22515069  0.10221410  0.98577632  1
  H+  H109  1  0.85876254  0.20421083  0.67096698  1
  H+  H110  1  0.13469616  0.10708779  0.64920449  1
  H+  H111  1  0.33364229  0.16637471  -0.06501667  1
  H+  H112  1  0.87269418  0.13306554  0.34888011  1
  H+  H113  1  0.72474191  0.34598839  0.16790049  1
  H+  H114  1  0.40995090  0.03381354  0.84464874  1
  H+  H115  1  0.12209585  0.72568790  0.82567402  1
  H+  H116  1  0.06666280  0.18262765  0.15434204  1
  H+  H117  1  0.39990784  0.12377173  0.17438566  1
  H+  H118  1  0.38035139  0.14572793  0.33400775  1
  H+  H119  1  0.25907898  0.39666889  0.17350104  1
  H+  H120  1  0.86642779  0.13526962  1.00403504  1
  H+  H121  1  0.61835490  0.98659078  0.49111697  1
  H+  H122  1  0.96715894  0.60018688  0.31777657  1
  H+  H123  1  0.85284024  0.12276797  0.82040755  1
  H+  H124  1  0.88655624  0.76731582  0.31578476  1
  H+  H125  1  0.85094680  0.97092066  0.47521476  1
  H+  H126  1  -0.01599379  0.11682279  -0.01111607  1
  H+  H127  1  0.37974087  0.47707339  0.33046184  1
  H+  H128  1  0.86481377  0.84294343  0.30961989  1
  H+  H129  1  0.73916704  0.12387968  0.17085593  1
  H+  H130  1  0.23052950  0.34329838  0.50097620  1
  H+  H131  1  0.98001175  0.61359979  0.83944408  1
  H+  H132  1  0.65358732  0.61779822  0.33059806  1
  H+  H133  1  0.06328088  0.90304852  0.82951669  1
  H+  H134  1  0.62612707  0.76741975  0.99283571  1
  H+  H135  1  0.77127327  0.21997286  0.53569357  1
  H+  H136  1  0.96258127  0.59722158  0.16410612  1
  H+  H137  1  0.72568056  0.10863119  0.83322228  1
  H+  H138  1  0.22896329  0.11428152  0.64649178  1
  H+  H139  1  0.50248222  0.94024349  0.19026748  1
  H+  H140  1  0.40934312  0.77842437  0.35064273  1
  H+  H141  1  0.90392414  0.73054688  0.67576904  1
  H+  H142  1  -0.01729967  0.36623139  0.84721813  1
  H+  H143  1  0.16189137  0.86627093  0.83791806  1
  H+  H144  1  0.62242496  0.36849776  0.01512587  1
  H+  H145  1  0.64495218  0.11619525  0.16907250  1
  H+  H146  1  0.38478615  0.34280248  0.49969923  1
  H+  H147  1  0.52773226  0.13020376  0.16285498  1
  H+  H148  1  0.21405943  0.34648966  0.66093188  1
  H+  H149  1  0.62372773  0.48210027  0.34652899  1
  H+  H150  1  0.87034740  0.58926914  0.16647312  1
  H+  H151  1  0.45467111  1.03056677  0.45151018  1
  H+  H152  1  0.35509503  0.17816894  0.39398911  1
  H+  H153  1  0.88256517  0.01718232  0.83825233  1
  H+  H154  1  0.51220583  0.39241912  0.67288074  1
  H+  H155  1  0.31183567  0.89656719  0.12042263  1
  H+  H156  1  0.08918303  0.43571866  0.67086092  1
  H+  H157  1  0.00090364  0.34953635  0.67337416  1
  H+  H158  1  0.62240836  0.51731204  0.18197625  1
  H+  H159  1  0.14348310  0.85254568  0.98659160  1
  H+  H160  1  0.43309664  0.09264671  -0.06374307  1
  H+  H161  1  -0.05546145  0.83125093  0.15809437  1
  H+  H162  1  0.43574154  0.13676334  0.56459852  1
  H+  H163  1  0.09989142  0.88657517  0.48451408  1
  H+  H164  1  0.61666642  -0.01393718  0.82554456  1
  H+  H165  1  0.49073504  0.86797735  0.49733059  1
  H+  H166  1  0.39159838  0.52088762  0.83974826  1
  H+  H167  1  0.75710750  0.61393526  0.15733721  1
  H+  H168  1  0.37961829  0.38692986  0.32796261  1
  H+  H169  1  0.36479703  1.02571367  0.46008529  1
  H+  H170  1  0.26361228  0.61632848  0.99453212  1
  H+  H171  1  0.27555014  0.87925870  0.34253702  1
  H+  H172  1  0.71500040  0.59934595  0.83903861  1
  H+  H173  1  0.11295547  0.50914138  0.17383159  1
  H+  H174  1  0.88291553  0.01394582  0.64430867  1
  H+  H175  1  0.33626581  0.83715146  0.20207811  1
  H+  H176  1  0.77160978  0.11744940  0.65735058  1
  H+  H177  1  0.71886788  0.85780297  0.49963213  1
  H+  H178  1  0.84255446  0.16763947  0.09838180  1
  H+  H179  1  0.71597809  0.34479413  0.50544208  1
  H+  H180  1  0.71736861  0.85576668  0.98085897  1
  H+  H181  1  0.37572813  0.15029006  0.66113098  1
  H+  H182  1  0.64299609  0.28498111  0.32379118  1
  H+  H183  1  0.56931173  0.42577952  0.74070602  1
  H+  H184  1  0.39992659  0.62089404  0.64012242  1
  H+  H185  1  0.87996715  0.26135342  0.33771996  1
  H+  H186  1  0.11548739  0.76811602  0.49173638  1
  H+  H187  1  0.17580266  0.30360050  0.16678460  1
  H+  H188  1  0.86447716  0.47338201  0.83103300  1
  H+  H189  1  0.01451369  0.11692060  0.65532726  1
  H+  H190  1  0.86454821  0.59190550  0.50909969  1
  H+  H191  1  0.13408775  0.77277493  0.33179863  1
  H+  H192  1  0.59388748  0.92111816  0.43282193  1
  H+  H193  1  0.14839283  1.03196653  0.32608380  1
  H+  H194  1  0.49914780  0.61250722  0.32388282  1
  H+  H195  1  0.11820785  -0.01820925  0.67184347  1
  H+  H196  1  0.22402313  0.69883387  0.61470935  1
  H+  H197  1  0.36746279  0.45874511  0.48646914  1
  H+  H198  1  0.62799256  0.60274124  0.50920115  1
  H+  H199  1  0.28199650  0.39164271  1.01138811  1
  H+  H200  1  0.88781552  0.85755577  -0.02035647  1
  H+  H201  1  0.75453534  0.62313657  0.50744362  1
  H+  H202  1  0.83882631  0.69655723  0.82537752  1
  H+  H203  1  0.10374203  0.20536828  0.66225526  1
  H+  H204  1  0.63632626  0.72721355  0.34161356  1
  H+  H205  1  0.87446702  0.77007605  0.50926389  1
  H+  H206  1  0.13804318  0.76156722  -0.01103001  1
  H+  H207  1  1.01893539  0.62966804  1.00241293  1
  H+  H208  1  0.73857343  0.85638532  0.17709881  1
  H+  H209  1  0.47883270  0.83990943  0.03323611  1
  H+  H210  1  0.27489884  0.39185725  0.83070511  1
  H+  H211  1  0.63386643  0.61455406  0.83948763  1
  H+  H212  1  0.30028172  0.65246452  0.67189950  1
  H+  H213  1  0.39023106  0.53121590  0.65941655  1
  H+  H214  1  0.38231928  0.27197860  0.65852636  1
  H+  H215  1  -0.03708042  0.85892904  0.50238319  1
  H+  H216  1  0.53103157  0.64300919  0.67133312  1
  H+  H217  1  0.88743280  0.51827146  0.98998411  1
  H+  H218  1  0.30891671  0.63837360  0.37368262  1
  H+  H219  1  0.87904411  0.60362055  0.99362194  1
  H+  H220  1  0.02244385  0.89213347  0.32714339  1
  H+  H221  1  0.20534155  0.85275487  0.50179801  1
  H+  H222  1  0.62975097  0.15676721  0.33871170  1
  H+  H223  1  0.50228068  0.14975095  0.65013543  1
  H+  H224  1  0.65308021  0.90108759  0.15608452  1
  H+  H225  1  0.92430463  1.09013971  -0.07108201  1
  H+  H226  1  0.38670481  0.27460831  0.98623829  1
  H+  H227  1  0.09360133  0.63473940  0.33668563  1
  H+  H228  1  0.41284968  0.61393392  0.33133484  1
  H+  H229  1  0.62494117  0.63711365  0.15821421  1
  H+  H230  1  0.62938447  0.61654109  0.99423524  1
  H+  H231  1  0.83730146  0.44029833  0.67706934  1
  H+  H232  1  0.59409917  0.67361180  0.09889167  1
  H+  H233  1  0.74149426  0.61594962  0.33063029  1
  H+  H234  1  0.65798509  0.99235516  0.15089746  1
  H+  H235  1  0.72948495  0.36382770  0.85948784  1
  H+  H236  1  0.86312233  0.88225856  0.67237152  1
  H+  H237  1  0.85799654  0.45831699  0.49505124  1
  H+  H238  1  0.10906969  0.88842266  0.33642237  1
  H+  H239  1  0.86738302  0.46731059  0.33864610  1
  H+  H240  1  0.11436573  0.47264021  0.82366162  1
  H+  H241  1  0.48787703  0.87222771  0.65777505  1
  H+  H242  1  0.86886151  0.33813630  0.66999958  1
  H+  H243  1  0.27552542  0.58617725  0.13806473  1
  H+  H244  1  0.27437590  0.46623188  0.70552818  1
  H+  H245  1  0.51183750  0.38758246  1.01094188  1
  H+  H246  1  0.02658999  0.37892485  0.00834993  1
  H+  H247  1  0.15135672  0.03360420  0.83596613  1
  H+  H248  1  0.48433210  0.12184707  -0.00111222  1
  H+  H249  1  0.60748426  0.88261903  0.99845580  1
  H+  H250  1  0.38907994  0.74495495  0.02747255  1
  H+  H251  1  0.12991318  0.51345108  0.99251849  1
  H+  H252  1  0.89338037  0.36664660  0.85097244  1
  H+  H253  1  0.85290823  0.61609994  0.82620468  1
  H+  H254  1  0.76217837  0.62966437  0.00447039  1
  H+  H255  1  0.05041900  0.77400217  0.22266958  1
  H+  H256  1  0.48672697  0.61607556  0.99752728  1
  H+  H257  1  0.41668511  0.05561691  0.65628406  1
  H+  H258  1  0.53454527  0.39432670  0.34286727  1
  H+  H259  1  0.44173263  0.60780601  0.22937238  1
  H+  H260  1  0.09421373  0.67744537  0.65163773  1
  H+  H261  1  0.87235534  0.66706745  0.73317924  1
  H+  H262  1  0.64032345  0.77792173  0.65884293  1
  H+  H263  1  0.86166378  0.45924835  0.15089088  1
  H+  H264  1  0.88227523  0.30166705  0.60730941  1
  H+  H265  1  0.53352453  0.13920174  0.48748362  1
  H+  H266  1  0.61818818  0.14640345  0.83144144  1
  H+  H267  1  0.52279839  0.63369048  0.82560180  1
  H+  H268  1  0.06617482  0.94469986  0.14482272  1
  H+  H269  1  0.64189355  0.02817977  0.64378487  1
  H+  H270  1  0.38857747  0.51009953  0.15579653  1
  H+  H271  1  0.63478917  0.61282870  0.66535048  1
  H+  H272  1  0.26984455  0.85866082  0.02380072  1
  H+  H273  1  -0.00238012  0.62642100  0.48825512  1
  H+  H274  1  0.59677944  0.09394423  0.48211559  1
  H+  H275  1  0.85901215  0.23011108  0.51748683  1
  H+  H276  1  0.70818012  1.10367939  0.47943484  1
  H+  H277  1  0.87144193  0.10470915  0.17640583  1
  H+  H278  1  0.62876872  0.97187839  0.33070802  1
  H+  H279  1  0.23615649  0.11988571  0.83640868  1
  H+  H280  1  0.61491889  0.22855115  0.01691678  1
  H+  H281  1  0.36179243  0.38547289  0.82263990  1
  H+  H282  1  0.29257629  0.06276151  0.78154645  1
  H+  H283  1  0.28957724  0.57617834  0.16784477  1
  H+  H284  1  0.02029689  0.69270770  0.68439703  1
  H+  H285  1  0.37209407  0.74238588  0.64270016  1
  H+  H286  1  0.02220594  0.13682901  0.48408138  1
  H+  H287  1  0.19079010  0.07010535  0.17527483  1
  H+  H288  1  0.14896471  0.37153018  0.84345740  1
  H+  H289  1  0.06961807  0.91999500  0.42752275  1
  H+  H290  1  0.43258414  0.85300878  0.59635541  1
  H+  H291  1  0.41378312  0.32277187  0.56337600  1
  H+  H292  1  0.48913106  0.86686555  0.82012321  1
  H+  H293  1  0.90371000  0.55981039  0.25960792  1
  H+  H294  1  0.81826768  0.13837592  0.75796496  1
  H+  H295  1  0.07248978  0.65998768  0.09243313  1
  H+  H296  1  0.87133834  0.98167092  -0.02046752  1
  H+  H297  1  0.52511889  0.63070264  0.48808718  1
  H+  H298  1  0.36680082  0.72359143  0.50775121  1
  H+  H299  1  0.85652657  0.72705969  0.16311592  1
  H+  H300  1  0.35432744  0.63980275  0.75401454  1
  H+  H301  1  0.06696634  0.14140251  0.75490490  1
  H+  H302  1  0.16779435  0.83153220  0.27373529  1
  H+  H303  1  0.65685311  0.57546384  0.60625152  1
  H+  H304  1  0.90120148  0.69222052  0.38659140  1
  H+  H305  1  0.10665344  0.62530301  0.00333320  1
  H+  H306  1  0.41428207  0.33402384  0.89986655  1
  H+  H307  1  0.83913194  0.39948627  0.09233138  1
  H+  H308  1  0.10069549  0.17275321  0.05710445  1
  H+  H309  1  0.15381978  0.57046591  0.93118870  1
  H+  H310  1  0.06795636  0.42996730  0.41439843  1
  H+  H311  1  0.08536911  0.41274036  0.06823993  1
  H+  H312  1  0.91992783  0.83270528  0.60296400  1
  H+  H313  1  0.34011182  0.40314395  0.42599024  1
  H+  H314  1  0.30466104  0.60935478  0.05528842  1
  H+  H315  1  0.90777248  0.07862473  0.27758421  1
  H+  H316  1  0.18354232  0.82893269  0.89759457  1
  H+  H317  1  0.10649834  0.13120102  0.81690204  1
  H+  H318  1  0.80026142  0.91996637  0.09455441  1
  H+  H319  1  0.59601423  0.66517941  0.39941710  1
  H+  H320  1  0.58756542  0.41358937  0.44058893  1
  H+  H321  1  0.66446884  0.07992386  0.25641499  1
  H+  H322  1  0.67468249  0.08191914  0.58210083  1
  H+  H323  1  0.89803974  0.55839360  0.56464090  1
  H+  H324  1  0.42899004  0.09728464  0.26748083  1
  H+  H325  1  0.35953039  0.94973765  0.39721525  1
  H+  H326  1  0.98406677  0.12366327  0.32572960  1
  H+  H327  1  0.07377672  0.89973532  0.04895699  1
  H+  H328  1  0.66514004  0.32759373  0.22593488  1
  H+  H329  1  0.12641088  0.56546962  0.26410647  1
  H+  H330  1  0.64315886  0.37178500  0.32096587  1
  H+  H331  1  0.66938742  0.33846483  0.91821070  1
  H+  H332  1  0.64198458  0.11609045  0.99564983  1
  H+  H333  1  0.58129486  0.15725013  0.39867224  1
  H+  H334  1  0.65405041  0.82757285  0.89391580  1
  H+  H335  1  0.89600970  0.80859001  0.89765490  1
  H+  H336  1  0.37891230  0.81493996  0.25961749  1
  H+  H337  1  0.10481789  0.92845154  0.76291856  1
  H+  H338  1  0.43035184  0.57644229  0.90087640  1
  H+  H339  1  0.67436729  0.58195984  0.23679196  1
  H+  H340  1  0.19570850  0.60063690  0.18043308  1
  H+  H341  1  0.08192199  0.66581028  0.76732425  1
  H+  H342  1  0.58291336  0.04646413  0.29727810  1
  H+  H343  1  0.05956624  0.46467739  0.52046941  1
  H+  H344  1  0.35374737  0.44068622  0.10024436  1
  H+  H345  1  0.49360691  0.86666748  0.33493110  1
  H+  H346  1  0.39728416  0.68031769  0.75112307  1
  H+  H347  1  0.16472248  0.07785310  0.92917593  1
  H+  H348  1  0.84130863  0.40920634  0.40637265  1
  H+  H349  1  0.39071686  0.59964346  0.98643902  1
  H+  H350  1  0.60658463  0.92329552  0.06192343  1
  H+  H351  1  0.11793192  0.10953387  0.49924046  1
  H+  H352  1  0.80394612  0.64950796  0.44569201  1
  H+  H353  1  0.09714936  0.17871431  0.39411806  1
  H+  H354  1  0.91981060  0.58284181  0.89881684  1
  H+  H355  1  0.16970884  0.31535870  0.55986496  1
  H+  H356  1  0.66722284  0.83432769  0.59781992  1
  H+  H357  1  0.08666538  0.62905232  0.47783216  1
  H+  H358  1  0.63797027  0.88812677  0.33823127  1
  H+  H359  1  0.42502894  0.56586334  0.55927699  1
  H+  H360  1  0.67115507  0.08540730  0.89609919  1
  H+  H361  1  0.36363396  0.94492559  0.73551286  1
  H+  H362  1  0.37792335  0.66788593  0.42286999  1
  H+  H363  1  0.92878684  0.33432391  0.93504132  1
  H+  H364  1  0.82384608  0.40119084  0.77923137  1
  H+  H365  1  0.58743119  0.16259978  0.07179918  1
  H+  H366  1  0.89268916  0.80426557  0.22491652  1
  H+  H367  1  0.07732484  0.40125871  0.76996258  1
  H+  H368  1  0.15590797  0.07712384  0.56233995  1
  H+  H369  1  0.77455794  0.88419581  0.66891573  1
  H+  H370  1  0.40467439  0.25645815  0.15819613  1
  H+  H371  1  0.86893291  0.13990459  0.44621718  1
  H+  H372  1  0.12762234  0.89863688  0.67976256  1
  H+  H373  1  0.58615309  0.67173850  0.73317337  1
  H+  H374  1  0.43348601  0.77113808  0.11232514  1
  H+  H375  1  0.82548599  0.91095140  0.76398174  1
  H+  H376  1  0.05830063  0.66441606  0.39346412  1
  H+  H377  1  0.54131927  0.41308077  0.11023239  1
  H+  H378  1  0.24171210  0.11967745  0.33029093  1
  H+  H379  1  0.37399871  0.13785097  -0.01344671  1
  H+  H380  1  0.18486491  0.34875383  0.90327481  1
  H+  H381  1  0.19284916  0.34172964  0.25919133  1
  H+  H382  1  0.81666078  0.64773076  0.09463866  1
  H+  H383  1  0.58944967  0.92576951  0.72777570  1
  O2-  O384  1  0.12328698  0.20042273  0.13773199  1
  O2-  O385  1  0.08373448  0.16039000  0.47254063  1
  O2-  O386  1  0.06488345  0.14576130  0.79967374  1
  O2-  O387  1  0.08473623  0.41528523  0.15088950  1
  O2-  O388  1  0.10753200  0.48541101  0.49154140  1
  O2-  O389  1  0.08453983  0.40976091  0.81443558  1
  O2-  O390  1  0.06601920  0.65900995  0.13843874  1
  O2-  O391  1  0.05534749  0.65997137  0.46814043  1
  O2-  O392  1  0.08595154  0.66465994  0.81235056  1
  O2-  O393  1  0.04342049  0.88609446  0.13009562  1
  O2-  O394  1  0.06889415  0.91859972  0.47281973  1
  O2-  O395  1  0.11823025  0.93165893  0.80870852  1
  O2-  O396  1  0.36723071  0.19409280  0.15282905  1
  O2-  O397  1  0.37206322  0.15131705  0.49487705  1
  O2-  O398  1  0.32699822  0.12161875  0.79634933  1
  O2-  O399  1  0.35934427  0.44750033  0.14603027  1
  O2-  O400  1  0.33745010  0.39860871  0.47096895  1
  O2-  O401  1  0.33521605  0.41999795  0.80996285  1
  O2-  O402  1  0.43995753  0.75754729  0.15772404  1
  O2-  O403  1  0.33123793  0.65928596  0.51060600  1
  O2-  O404  1  0.32856864  0.66071326  0.87275322  1
  O2-  O405  1  0.31148333  0.90717555  0.16661794  1
  O2-  O406  1  0.38836269  0.98880192  0.44900764  1
  O2-  O407  1  0.35446420  0.92971351  0.81360866  1
  O2-  O408  1  0.58793094  0.15924282  0.14734250  1
  O2-  O409  1  0.54693076  0.10349363  0.46056692  1
  O2-  O410  1  0.58629058  0.17699799  0.82240112  1
  O2-  O411  1  0.54269279  0.42109556  0.15577287  1
  O2-  O412  1  0.58570303  0.41154398  0.48614388  1
  O2-  O413  1  0.57046401  0.42533974  0.80176118  1
  O2-  O414  1  0.59893183  0.67223238  0.14574099  1
  O2-  O415  1  0.58659991  0.66300369  0.47554303  1
  O2-  O416  1  0.58351813  0.66547315  0.80957851  1
  O2-  O417  1  0.65563926  0.94419290  0.12720056  1
  O2-  O418  1  0.58755619  0.92039042  0.47758624  1
  O2-  O419  1  0.58749255  0.92612019  0.80668578  1
  O2-  O420  1  0.84255990  0.16671639  0.14423903  1
  O2-  O421  1  0.87533669  0.14162943  0.49143593  1
  O2-  O422  1  0.81629183  0.14390844  0.80277695  1
  O2-  O423  1  0.83833127  0.39870531  0.13733121  1
  O2-  O424  1  0.83007481  0.40121471  0.47401671  1
  O2-  O425  1  0.83205068  0.41030905  0.82385526  1
  O2-  O426  1  0.81854529  0.64573599  0.14088285  1
  O2-  O427  1  0.81509267  0.65344445  0.48938727  1
  O2-  O428  1  0.81821290  0.63943930  0.80670291  1
  O2-  O429  1  0.82386947  0.91404948  0.13297766  1
  O2-  O430  1  0.82080544  0.90954786  0.46363375  1
  O2-  O431  1  0.82083839  0.90778631  0.80969862  1
  O2-  O432  1  0.19401825  0.11996409  0.19525345  1
  O2-  O433  1  0.14619321  0.07377375  0.51573681  1
  O2-  O434  1  0.17687360  0.09287601  0.85268743  1
  O2-  O435  1  0.19794505  0.35956415  0.18843659  1
  O2-  O436  1  0.16987951  0.31201582  0.51486199  1
  O2-  O437  1  0.18753776  0.35050536  0.85820805  1
  O2-  O438  1  0.13439050  0.56999163  0.19007398  1
  O2-  O439  1  0.14608727  0.57910924  0.49727236  1
  O2-  O440  1  0.16099905  0.57374177  0.85462596  1
  O2-  O441  1  0.10095397  0.79956391  0.19632216  1
  O2-  O442  1  0.14371153  0.83010901  0.50226843  1
  O2-  O443  1  0.18686569  0.83107133  0.85184717  1
  O2-  O444  1  0.42283125  0.08669939  0.18998469  1
  O2-  O445  1  0.45135085  0.16015064  0.52207745  1
  O2-  O446  1  0.43274945  0.09477272  0.85667337  1
  O2-  O447  1  0.45366954  0.37249369  0.17723910  1
  O2-  O448  1  0.41583815  0.31555452  0.51869036  1
  O2-  O449  1  0.41228771  0.33231915  0.85385427  1
  O2-  O450  1  0.44390606  0.61702432  0.18453234  1
  O2-  O451  1  0.41964828  0.56519918  0.51389268  1
  O2-  O452  1  0.42498614  0.58099185  0.85569179  1
  O2-  O453  1  0.34651143  0.79209338  0.22104082  1
  O2-  O454  1  0.42811483  0.83405044  0.51270535  1
  O2-  O455  1  0.42372694  0.82773904  0.82216410  1
  O2-  O456  1  0.67880340  0.08930074  0.18555308  1
  O2-  O457  1  0.65825154  0.07765742  0.50593284  1
  O2-  O458  1  0.66516766  0.08236248  0.85120044  1
  O2-  O459  1  0.66432959  0.31876316  0.18071812  1
  O2-  O460  1  0.65820421  0.31438710  0.52326930  1
  O2-  O461  1  0.66908630  0.33355781  0.87385924  1
  O2-  O462  1  0.66781138  0.57749443  0.19139548  1
  O2-  O463  1  0.65631006  0.57265570  0.52799437  1
  O2-  O464  1  0.65737181  0.57920421  0.85766129  1
  O2-  O465  1  0.68302944  0.82763165  0.20057561  1
  O2-  O466  1  0.66003352  0.82776138  0.51758178  1
  O2-  O467  1  0.65426845  0.82967222  0.84815844  1
  O2-  O468  1  0.88690812  0.06328105  0.19672379  1
  O2-  O469  1  0.91255321  0.08631840  0.50495402  1
  O2-  O470  1  0.91476592  0.07679763  0.85378153  1
  O2-  O471  1  0.92289020  0.32754563  0.19229953  1
  O2-  O472  1  0.83226058  0.26351151  0.53175490  1
  O2-  O473  1  0.92643827  0.34083211  0.86830346  1
  O2-  O474  1  0.90363676  0.56258341  0.18190999  1
  O2-  O475  1  0.89864977  0.56353606  0.51912169  1
  O2-  O476  1  0.91898337  0.58195696  0.85343100  1
  O2-  O477  1  0.88750156  0.79403767  0.17865883  1
  O2-  O478  1  0.90453575  0.83164914  0.52086351  1
  O2-  O479  1  0.88051542  0.80255736  0.85269481  1
  O2-  O480  1  0.18131066  0.09342539  0.31378285  1
  O2-  O481  1  0.16824911  0.07994680  0.63210863  1
  O2-  O482  1  0.16266378  0.07128760  0.97462930  1
  O2-  O483  1  0.19361664  0.33685732  0.30577562  1
  O2-  O484  1  0.15760611  0.31096906  0.64141003  1
  O2-  O485  1  0.18121523  0.33943854  0.98387280  1
  O2-  O486  1  0.12959667  0.56915254  0.31004635  1
  O2-  O487  1  0.16865700  0.68648848  0.59800514  1
  O2-  O488  1  0.15802531  0.57392299  0.97693886  1
  O2-  O489  1  0.17198528  0.83434458  0.31847914  1
  O2-  O490  1  0.18907477  0.86052527  0.66813982  1
  O2-  O491  1  0.17484533  0.82223486  0.97499057  1
  O2-  O492  1  0.42994222  0.10283485  0.31273268  1
  O2-  O493  1  0.43859917  0.11453921  0.64009035  1
  O2-  O494  1  0.42555338  0.09430232  0.98105946  1
  O2-  O495  1  0.43288239  0.34069991  0.30487646  1
  O2-  O496  1  0.41223025  0.33385339  0.64323311  1
  O2-  O497  1  0.41748634  0.33735755  0.97584714  1
  O2-  O498  1  0.43803518  0.58409809  0.30907143  1
  O2-  O499  1  0.42756195  0.58531417  0.63643775  1
  O2-  O500  1  0.42832999  0.57531669  0.97696828  1
  O2-  O501  1  0.42926601  0.83514515  0.33145811  1
  O2-  O502  1  0.42665004  0.84550528  0.64114273  1
  O2-  O503  1  0.42031260  0.79906067  1.05145074  1
  O2-  O504  1  0.64452931  0.06832667  0.30087644  1
  O2-  O505  1  0.68291291  0.08502573  0.62721623  1
  O2-  O506  1  0.67196925  0.08571673  0.97982740  1
  O2-  O507  1  0.66899593  0.34036205  0.30178464  1
  O2-  O508  1  0.65184496  0.28892960  0.64201182  1
  O2-  O509  1  0.65951332  0.34260984  1.00561154  1
  O2-  O510  1  0.68274922  0.58629446  0.31450136  1
  O2-  O511  1  0.65718439  0.57477083  0.65159415  1
  O2-  O512  1  0.65628676  0.58310158  0.98164765  1
  O2-  O513  1  0.69930508  0.83331449  0.31914640  1
  O2-  O514  1  0.67045919  0.83828152  0.64319036  1
  O2-  O515  1  0.65589512  0.82586409  0.97015418  1
  O2-  O516  1  0.92108206  0.09039603  0.32136692  1
  O2-  O517  1  0.91196194  0.07263588  0.62607824  1
  O2-  O518  1  0.92308787  0.08760046  0.97489611  1
  O2-  O519  1  0.90849266  0.32100081  0.32031442  1
  O2-  O520  1  0.90095266  0.31186033  0.65036441  1
  O2-  O521  1  0.92840359  0.33237907  0.98271134  1
  O2-  O522  1  0.90548204  0.56215679  0.30540626  1
  O2-  O523  1  0.89570925  0.54304682  0.64171479  1
  O2-  O524  1  0.91498391  0.58001318  0.97789123  1
  O2-  O525  1  0.90541171  0.82361735  0.29541096  1
  O2-  O526  1  0.92211990  0.83119467  0.64816217  1
  O2-  O527  1  0.91166071  0.81877684  0.97124150  1
  O2-  O528  1  0.09249501  0.16714086  0.01256246  1
  O2-  O529  1  0.10287306  0.18317568  0.34867629  1
  O2-  O530  1  0.07381106  0.14308442  0.67313116  1
  O2-  O531  1  0.08811739  0.41208139  0.02323883  1
  O2-  O532  1  0.05995340  0.41329913  0.37119303  1
  O2-  O533  1  0.06276629  0.37725046  0.68721435  1
  O2-  O534  1  0.07916366  0.65870990  0.01855387  1
  O2-  O535  1  0.06508789  0.66846402  0.34770588  1
  O2-  O536  1  0.06100777  0.67144195  0.68960595  1
  O2-  O537  1  0.08004218  0.90235394  0.00426324  1
  O2-  O538  1  0.07968135  0.92115002  0.34676871  1
  O2-  O539  1  0.09016641  0.92411790  0.69160229  1
  O2-  O540  1  0.33505163  0.16561748  -0.02067685  1
  O2-  O541  1  0.34679794  0.17540863  0.34977882  1
  O2-  O542  1  0.33664178  0.17196102  0.67657855  1
  O2-  O543  1  0.34310434  0.41991111  0.02622116  1
  O2-  O544  1  0.34653404  0.41522291  0.34335229  1
  O2-  O545  1  0.31077919  0.44111196  0.69805767  1
  O2-  O546  1  0.32072262  0.63548681  0.01501158  1
  O2-  O547  1  0.37107120  0.67074998  0.37882350  1
  O2-  O548  1  0.33487770  0.67768701  0.63546158  1
  O2-  O549  1  0.31886824  0.88078991  0.05245761  1
  O2-  O550  1  0.33859940  0.91208706  0.35280319  1
  O2-  O551  1  0.36165450  0.94835324  0.69003891  1
  O2-  O552  1  0.58934842  0.16657647  0.02600556  1
  O2-  O553  1  0.59594463  0.18104040  0.35572292  1
  O2-  O554  1  0.60786846  0.20399767  0.65794822  1
  O2-  O555  1  0.56759497  0.41878254  0.03406639  1
  O2-  O556  1  0.59192733  0.42246359  0.36257931  1
  O2-  O557  1  0.57130956  0.42534393  0.69061416  1
  O2-  O558  1  0.56916568  0.68574810  0.03214009  1
  O2-  O559  1  0.60014707  0.66568054  0.35369103  1
  O2-  O560  1  0.59046471  0.67471769  0.68746553  1
  O2-  O561  1  0.57994676  0.91160517  0.01993376  1
  O2-  O562  1  0.60187996  0.91345517  0.34928401  1
  O2-  O563  1  0.58398511  0.91908677  0.68253708  1
  O2-  O564  1  0.83722266  0.16520432  0.02169382  1
  O2-  O565  1  0.84293737  0.16173141  0.37101512  1
  O2-  O566  1  0.83056035  0.14127172  0.67781656  1
  O2-  O567  1  0.84397687  0.40975979  0.00729861  1
  O2-  O568  1  0.84486003  0.40943940  0.35906826  1
  O2-  O569  1  0.81367326  0.38374720  0.69769895  1
  O2-  O570  1  0.82233130  0.65593387  0.02068495  1
  O2-  O571  1  0.86120138  0.67133742  0.35235046  1
  O2-  O572  1  0.90560788  0.68097751  0.69457402  1
  O2-  O573  1  0.83767833  0.91763620  -0.02908330  1
  O2-  O574  1  0.79180250  0.87544420  0.33417766  1
  O2-  O575  1  0.83445791  0.91475405  0.68571760  1
