# generated using pymatgen
data_H2O
_symmetry_space_group_name_H-M   'P 1'
_cell_length_a   18.00207567
_cell_length_b   17.99613774
_cell_length_c   22.01038193
_cell_angle_alpha   90.03488340
_cell_angle_beta   89.98488611
_cell_angle_gamma   119.98575602
_symmetry_Int_Tables_number   1
_chemical_formula_structural   H2O
_chemical_formula_sum   'H384 O192'
_cell_volume   6176.21403576
_cell_formula_units_Z   192
loop_
 _symmetry_equiv_pos_site_id
 _symmetry_equiv_pos_as_xyz
  1  'x, y, z'
loop_
 _atom_type_symbol
 _atom_type_oxidation_number
  H+  1.0
  O2-  -2.0
loop_
 _atom_site_type_symbol
 _atom_site_label
 _atom_site_symmetry_multiplicity
 _atom_site_fract_x
 _atom_site_fract_y
 _atom_site_fract_z
 _atom_site_occupancy
  H+  H0  1  0.71376286  0.35745587  0.83016512  1
  H+  H1  1  0.65557318  0.57857881  0.59768760  1
  H+  H2  1  0.03377587  0.14647174  0.34113777  1
  H+  H3  1  0.49924841  0.60730497  -0.00828476  1
  H+  H4  1  0.71784831  0.85284427  0.66250006  1
  H+  H5  1  0.15095531  0.15772201  0.81303419  1
  H+  H6  1  0.89838685  0.27700508  0.32421730  1
  H+  H7  1  0.27474586  0.13615045  1.01445609  1
  H+  H8  1  0.98368740  0.26532992  0.85449113  1
  H+  H9  1  0.73299168  0.12171992  0.16343727  1
  H+  H10  1  0.36568946  0.47242889  0.50384691  1
  H+  H11  1  0.12195896  -0.02987208  0.50453326  1
  H+  H12  1  0.37284379  0.74246375  0.68415521  1
  H+  H13  1  0.35899843  0.86412307  0.33612922  1
  H+  H14  1  0.15186089  0.12427963  0.32477757  1
  H+  H15  1  0.16888019  0.61976184  0.63677713  1
  H+  H16  1  0.38721124  0.38871776  1.01772438  1
  H+  H17  1  0.11403716  0.43535776  0.76601531  1
  H+  H18  1  0.83312962  0.24815462  0.65040304  1
  H+  H19  1  0.37591569  0.35624194  0.50109546  1
  H+  H20  1  0.59707241  -0.03564171  0.34493554  1
  H+  H21  1  0.16232079  0.81610741  0.56387690  1
  H+  H22  1  0.11944515  0.23490973  0.35798588  1
  H+  H23  1  0.87284820  0.24514081  0.65578580  1
  H+  H24  1  0.40544488  0.57667866  0.57817631  1
  H+  H25  1  0.62433752  0.60161144  0.50888300  1
  H+  H26  1  1.00456658  0.35606556  0.83998699  1
  H+  H27  1  0.24939071  0.13022691  0.68711043  1
  H+  H28  1  0.29239585  0.16329927  0.43770196  1
  H+  H29  1  0.64665267  0.52360262  0.00453337  1
  H+  H30  1  0.30541782  0.15046377  0.83963149  1
  H+  H31  1  0.32626432  0.68666311  0.37835290  1
  H+  H32  1  0.13755286  0.52597673  -0.00249312  1
  H+  H33  1  0.84086395  0.73348275  0.16661636  1
  H+  H34  1  0.77096482  0.63527231  0.01055433  1
  H+  H35  1  0.96763572  0.87549381  0.34686568  1
  H+  H36  1  0.83918727  0.81542759  0.30137121  1
  H+  H37  1  0.85183859  0.73135975  0.82583925  1
  H+  H38  1  0.80073532  0.42305527  0.62947287  1
  H+  H39  1  0.48165614  0.86651029  0.15988137  1
  H+  H40  1  0.13688229  0.39986528  0.82521693  1
  H+  H41  1  0.12563126  0.85581985  0.65798803  1
  H+  H42  1  0.76683540  0.13382729  0.32064668  1
  H+  H43  1  0.38395110  0.37880096  0.32468911  1
  H+  H44  1  0.60741113  -0.02376025  0.66835708  1
  H+  H45  1  0.72858588  0.35983079  0.99231310  1
  H+  H46  1  0.87724248  0.65935453  0.82880652  1
  H+  H47  1  0.86586151  0.64695999  1.01537580  1
  H+  H48  1  0.96603620  0.37811808  0.59340485  1
  H+  H49  1  0.11369353  0.13957340  0.00996035  1
  H+  H50  1  1.00310406  0.63944429  0.50102832  1
  H+  H51  1  0.77208946  0.14643300  0.48443195  1
  H+  H52  1  0.16961456  0.56447770  0.55510887  1
  H+  H53  1  0.41737436  0.91456107  0.52492583  1
  H+  H54  1  0.13439961  0.77141458  0.99140382  1
  H+  H55  1  0.59885292  0.21196150  0.67716686  1
  H+  H56  1  0.52322746  0.88733022  0.82437752  1
  H+  H57  1  0.13900233  1.02336492  0.00921882  1
  H+  H58  1  0.61818741  0.11343339  0.32123713  1
  H+  H59  1  0.04234076  0.20497421  0.66490415  1
  H+  H60  1  0.61847388  0.47372799  0.67025911  1
  H+  H61  1  0.47866129  0.86708784  0.99725839  1
  H+  H62  1  0.11595691  0.89263044  1.01154599  1
  H+  H63  1  0.99217243  0.12024828  0.50088588  1
  H+  H64  1  0.12454501  0.63758040  0.15499881  1
  H+  H65  1  0.64443373  0.88954821  0.66681445  1
  H+  H66  1  0.60840231  0.74255772  0.51443340  1
  H+  H67  1  0.53052360  0.14816709  0.33575479  1
  H+  H68  1  0.16996327  0.29483642  0.64925725  1
  H+  H69  1  0.61909679  0.14629570  0.15455227  1
  H+  H70  1  0.12239208  0.48924987  0.34310007  1
  H+  H71  1  0.72857991  0.87276808  0.32602640  1
  H+  H72  1  0.38254369  0.10891196  0.99573197  1
  H+  H73  1  0.39669001  0.26894022  -0.00520982  1
  H+  H74  1  0.84872565  0.63370497  0.48757464  1
  H+  H75  1  0.66054516  0.15938723  0.50690594  1
  H+  H76  1  0.98263653  0.11895489  0.16995905  1
  H+  H77  1  0.06227459  0.94121808  0.36712410  1
  H+  H78  1  0.52885019  0.64602707  0.83007015  1
  H+  H79  1  0.86433358  0.22146875  0.00517063  1
  H+  H80  1  0.63520887  0.86507843  0.84206181  1
  H+  H81  1  0.47179082  0.10951145  0.99229507  1
  H+  H82  1  0.60370886  0.37903040  0.48994337  1
  H+  H83  1  0.88075707  0.76046624  0.65639129  1
  H+  H84  1  0.17226295  0.33839989  0.42591693  1
  H+  H85  1  0.35015996  -0.02826839  0.47917580  1
  H+  H86  1  0.15162110  0.36234767  0.17023054  1
  H+  H87  1  0.86209372  0.20968019  0.83096411  1
  H+  H88  1  0.91516589  0.82995579  0.23693489  1
  H+  H89  1  0.37664643  -0.01653167  0.82595547  1
  H+  H90  1  0.62397606  0.27580476  0.31995131  1
  H+  H91  1  0.37351958  0.11613671  0.48343726  1
  H+  H92  1  0.61352192  -0.03451772  1.00737657  1
  H+  H93  1  0.12161790  0.40313808  0.36721549  1
  H+  H94  1  0.14322943  0.61374312  0.31968435  1
  H+  H95  1  0.63768687  0.86686725  0.32462079  1
  H+  H96  1  0.68870854  0.83658193  0.50420252  1
  H+  H97  1  -0.02051078  0.11181636  -0.00199119  1
  H+  H98  1  0.21982737  0.86914382  0.64725641  1
  H+  H99  1  0.78064059  0.38528994  0.15992793  1
  H+  H100  1  0.17048363  0.58635195  0.93828355  1
  H+  H101  1  0.36544353  0.88653265  0.00434186  1
  H+  H102  1  0.89258315  0.03154591  0.32949081  1
  H+  H103  1  0.37526750  0.40066268  0.83147980  1
  H+  H104  1  1.01223920  0.66260263  0.84535372  1
  H+  H105  1  0.12463430  0.23729225  0.49434800  1
  H+  H106  1  0.98301282  0.28272786  0.53592944  1
  H+  H107  1  0.20661049  0.00826499  0.86708221  1
  H+  H108  1  0.17420479  0.09059681  0.23033251  1
  H+  H109  1  0.60406876  0.47894640  0.33774657  1
  H+  H110  1  0.53018563  0.38324259  0.01679286  1
  H+  H111  1  0.81473780  0.90127275  0.52980192  1
  H+  H112  1  0.56592137  0.64759813  0.44504193  1
  H+  H113  1  0.75665313  0.62714106  0.49438295  1
  H+  H114  1  0.60934598  0.39251150  0.82761949  1
  H+  H115  1  0.75657758  0.87849500  0.83415759  1
  H+  H116  1  0.43391315  0.58763765  0.90537669  1
  H+  H117  1  0.14227455  0.85239034  0.50442455  1
  H+  H118  1  0.89839551  0.10958664  0.49178811  1
  H+  H119  1  0.93151666  0.32198392  0.93551707  1
  H+  H120  1  0.27126729  0.38543709  0.49472871  1
  H+  H121  1  0.89710069  0.27404874  0.17284257  1
  H+  H122  1  0.51450829  0.38255981  0.49050026  1
  H+  H123  1  0.14143275  0.74565106  0.82210301  1
  H+  H124  1  0.73627542  0.04913119  0.70911949  1
  H+  H125  1  0.86473234  0.76569077  0.99819398  1
  H+  H126  1  0.10525099  0.75022723  0.17794065  1
  H+  H127  1  0.38312328  0.88068592  0.15423250  1
  H+  H128  1  0.02869638  0.62516369  0.15382863  1
  H+  H129  1  0.16826583  0.53149965  0.64271873  1
  H+  H130  1  0.50609324  0.13195607  0.69027320  1
  H+  H131  1  0.05908047  0.64053841  0.67203015  1
  H+  H132  1  0.10267868  0.88489559  0.16505133  1
  H+  H133  1  0.39130147  0.15575195  0.82539027  1
  H+  H134  1  0.02087355  0.89434338  0.16417126  1
  H+  H135  1  0.69922389  0.32753538  0.69034538  1
  H+  H136  1  0.63421315  0.61674857  0.82710916  1
  H+  H137  1  0.48564984  0.37935570  0.84173678  1
  H+  H138  1  0.53162575  0.62821645  0.16332898  1
  H+  H139  1  0.88842148  0.98752864  0.50191247  1
  H+  H140  1  0.84616829  0.49605610  0.86143270  1
  H+  H141  1  0.86569472  0.98159253  0.16066258  1
  H+  H142  1  0.15044138  0.52648957  0.16962461  1
  H+  H143  1  0.59675096  0.86402755  -0.00044069  1
  H+  H144  1  0.95269758  0.08198921  0.67372670  1
  H+  H145  1  0.08691172  0.66810489  0.06469545  1
  H+  H146  1  0.72047728  0.10711491  0.84943639  1
  H+  H147  1  0.93022246  0.33568934  0.23165869  1
  H+  H148  1  -0.00965232  0.60996552  0.31395144  1
  H+  H149  1  0.03926119  0.88270929  0.48948442  1
  H+  H150  1  0.77354778  0.13250362  0.00706274  1
  H+  H151  1  0.45116247  0.60711690  0.66289047  1
  H+  H152  1  0.63938913  0.85721997  0.16772059  1
  H+  H153  1  0.61315407  0.72643037  1.00510818  1
  H+  H154  1  0.13957983  0.73061561  0.67232297  1
  H+  H155  1  0.04229137  0.76614060  0.21699680  1
  H+  H156  1  0.63414420  0.58375824  0.15789826  1
  H+  H157  1  0.27244083  0.14298546  0.16094184  1
  H+  H158  1  0.54729400  0.76235886  0.95619519  1
  H+  H159  1  0.86414507  0.46881592  1.00623131  1
  H+  H160  1  0.20023305  0.30159005  0.85328618  1
  H+  H161  1  0.39401709  0.87477552  0.67492838  1
  H+  H162  1  0.15144512  0.53214862  0.84140918  1
  H+  H163  1  0.40295080  0.53849756  0.84104325  1
  H+  H164  1  0.08921190  0.25659071  0.82449479  1
  H+  H165  1  0.30810853  0.40959881  0.66625314  1
  H+  H166  1  0.61089603  0.97638090  0.82896427  1
  H+  H167  1  0.89902609  0.52413434  0.31424218  1
  H+  H168  1  0.36907255  0.25651975  0.64960603  1
  H+  H169  1  0.27224504  0.87692761  0.49605433  1
  H+  H170  1  0.11866399  0.23011863  0.16008123  1
  H+  H171  1  0.09600768  0.97136267  0.67470766  1
  H+  H172  1  0.06634227  0.42481327  0.66902709  1
  H+  H173  1  0.86236998  0.87011600  0.00353591  1
  H+  H174  1  0.61297339  0.24686799  0.48446909  1
  H+  H175  1  0.66419102  0.07672762  0.93968338  1
  H+  H176  1  0.11692947  0.61750263  0.48641426  1
  H+  H177  1  0.38485300  0.59682390  0.50963487  1
  H+  H178  1  -0.01265429  0.36704447  0.33191650  1
  H+  H179  1  0.81545492  0.15617039  0.38456739  1
  H+  H180  1  0.39954970  0.28998055  0.84228591  1
  H+  H181  1  0.24153183  0.12890824  0.32109303  1
  H+  H182  1  0.38863231  0.77381578  0.16209381  1
  H+  H183  1  0.88548340  0.91127118  0.35702994  1
  H+  H184  1  0.61111325  0.22484825  1.00009154  1
  H+  H185  1  0.37603052  0.61944355  0.32705878  1
  H+  H186  1  0.38455797  0.11231192  0.16706911  1
  H+  H187  1  0.50864291  0.61810330  0.50793080  1
  H+  H188  1  0.90322818  0.51731115  0.16353570  1
  H+  H189  1  0.47420165  0.11464225  0.16397801  1
  H+  H190  1  0.96810816  0.42409946  0.45940663  1
  H+  H191  1  0.12075051  0.72821918  0.33815845  1
  H+  H192  1  0.14522157  0.40665063  0.66748908  1
  H+  H193  1  0.03778094  0.38920000  0.15998678  1
  H+  H194  1  0.84936332  0.96582442  0.82904171  1
  H+  H195  1  0.36498739  0.11975724  0.67528408  1
  H+  H196  1  0.22413485  0.85928752  0.99263487  1
  H+  H197  1  0.12079196  0.11378358  0.79999228  1
  H+  H198  1  0.59110240  0.41813201  0.73124932  1
  H+  H199  1  0.02845317  0.39128449  0.01039599  1
  H+  H200  1  0.88453251  0.51297916  0.64805319  1
  H+  H201  1  0.48692788  0.11878163  0.84291292  1
  H+  H202  1  0.71662344  0.60947391  0.32199246  1
  H+  H203  1  0.33105050  0.60660255  0.42616091  1
  H+  H204  1  0.99930698  0.15649926  0.82382471  1
  H+  H205  1  0.39661870  0.51677033  0.17993285  1
  H+  H206  1  0.22389138  0.85132563  0.33023037  1
  H+  H207  1  0.88115694  0.76310795  0.50439592  1
  H+  H208  1  0.84338813  0.85735441  0.67713062  1
  H+  H209  1  0.65567720  0.57046428  0.26273980  1
  H+  H210  1  0.87017705  -0.02189701  1.01063609  1
  H+  H211  1  0.35418636  -0.00891075  0.64645060  1
  H+  H212  1  0.80549854  0.59561866  0.68526493  1
  H+  H213  1  0.73511624  0.45398720  0.20901848  1
  H+  H214  1  0.90304930  0.86035086  0.50725222  1
  H+  H215  1  0.11186834  0.63677557  0.00408818  1
  H+  H216  1  0.39403591  0.60479313  0.17295421  1
  H+  H217  1  0.38288451  0.75714630  0.31352088  1
  H+  H218  1  0.37761388  0.64678063  0.83782854  1
  H+  H219  1  0.15195443  0.62186251  0.84245004  1
  H+  H220  1  0.86733930  0.13839626  0.15847068  1
  H+  H221  1  0.40379546  0.13591306  0.31526752  1
  H+  H222  1  0.93508844  0.65252427  0.65852747  1
  H+  H223  1  0.35092673  0.23073431  0.49114761  1
  H+  H224  1  0.57989159  0.07832893  0.64729657  1
  H+  H225  1  0.90936073  0.41622200  0.84357821  1
  H+  H226  1  0.34003522  0.92156111  0.59737948  1
  H+  H227  1  0.39514357  0.86899909  0.84069853  1
  H+  H228  1  0.61483838  0.22814154  0.83069645  1
  H+  H229  1  0.11141902  0.68014706  0.76579336  1
  H+  H230  1  0.11681322  0.11301873  0.66889219  1
  H+  H231  1  0.88819703  0.10833036  -0.00248747  1
  H+  H232  1  0.50844676  0.62292357  0.35236216  1
  H+  H233  1  0.13304679  0.11331781  0.51654711  1
  H+  H234  1  0.62587123  0.51253683  0.50609992  1
  H+  H235  1  0.67160361  0.10767507  0.56068882  1
  H+  H236  1  0.61382607  -0.02472351  0.15177952  1
  H+  H237  1  0.35508593  0.23642644  0.15849230  1
  H+  H238  1  0.91010889  0.06842870  0.90525582  1
  H+  H239  1  0.58901229  0.86651007  0.49688548  1
  H+  H240  1  0.86917540  0.09335967  0.84997702  1
  H+  H241  1  0.36079470  0.97403963  0.00482744  1
  H+  H242  1  0.41006061  0.52006704  0.99522548  1
  H+  H243  1  0.88945325  0.35588727  0.98686472  1
  H+  H244  1  0.92168521  0.41199592  0.46196046  1
  H+  H245  1  0.42177839  0.83980827  -0.06398701  1
  H+  H246  1  0.61979545  0.42747120  0.17485802  1
  H+  H247  1  0.88764108  0.11643841  0.32089720  1
  H+  H248  1  0.59473793  0.61900996  0.34921851  1
  H+  H249  1  0.87390056  0.38791253  0.86502097  1
  H+  H250  1  0.97704406  0.61054452  1.00214305  1
  H+  H251  1  0.61141232  0.23109015  0.15643825  1
  H+  H252  1  0.07009261  -0.04332482  0.81630433  1
  H+  H253  1  0.36042678  0.73326446  0.01250666  1
  H+  H254  1  0.63331735  0.11064661  0.84757623  1
  H+  H255  1  0.12911091  0.27861255  -0.00901608  1
  H+  H256  1  0.67046216  0.33841466  0.89793230  1
  H+  H257  1  0.86215475  0.85823019  0.84078042  1
  H+  H258  1  0.77702966  0.89003610  0.16060450  1
  H+  H259  1  0.61197166  0.48396100  0.82103189  1
  H+  H260  1  0.61726862  0.73440637  0.82686408  1
  H+  H261  1  0.27183748  0.64489638  1.01460082  1
  H+  H262  1  0.52984108  0.14782760  0.47713809  1
  H+  H263  1  0.28699061  0.64443922  0.83733867  1
  H+  H264  1  0.21930485  0.11159108  0.52109841  1
  H+  H265  1  0.50623594  0.91399068  0.52206165  1
  H+  H266  1  0.28590361  0.64332512  0.16415930  1
  H+  H267  1  0.58391178  0.62113413  0.67270930  1
  H+  H268  1  0.81561853  0.51279123  0.85774705  1
  H+  H269  1  0.26875160  0.60161129  0.47847655  1
  H+  H270  1  0.89519603  0.87048676  0.17611909  1
  H+  H271  1  0.14035880  1.02727657  0.17240288  1
  H+  H272  1  0.53840125  0.00102437  0.59761171  1
  H+  H273  1  0.13049371  0.86693827  0.83917472  1
  H+  H274  1  0.36968720  0.61995695  0.65947468  1
  H+  H275  1  0.39490019  0.77883915  0.84434135  1
  H+  H276  1  0.29041278  0.40817470  0.82507809  1
  H+  H277  1  0.87183007  0.39162320  0.33519933  1
  H+  H278  1  0.73790465  0.38024855  0.48163033  1
  H+  H279  1  0.71047650  0.61976957  0.65782880  1
  H+  H280  1  -0.05011313  0.85378946  0.84159928  1
  H+  H281  1  0.86497609  0.37426392  0.15931302  1
  H+  H282  1  0.86755189  0.99112063  0.67020241  1
  H+  H283  1  0.66836362  0.36500066  0.23859039  1
  H+  H284  1  0.81619929  0.47496637  0.47113826  1
  H+  H285  1  0.93398052  0.42194979  0.64112137  1
  H+  H286  1  0.84587790  0.71727296  0.32883305  1
  H+  H287  1  0.83868380  0.91822729  0.07210396  1
  H+  H288  1  0.59341066  0.17768063  0.39546492  1
  H+  H289  1  0.64135031  0.36262469  0.99807468  1
  H+  H290  1  0.81142157  0.66413441  0.39132952  1
  H+  H291  1  0.72071798  0.61181030  0.82907154  1
  H+  H292  1  0.08308762  0.17077911  0.06727727  1
  H+  H293  1  0.11619069  0.39040502  0.00372595  1
  H+  H294  1  0.39240066  0.21126630  0.38407772  1
  H+  H295  1  0.58478157  0.16385124  0.77274633  1
  H+  H296  1  0.80643798  0.67517263  0.10975220  1
  H+  H297  1  0.64834870  0.61310738  0.99971128  1
  H+  H298  1  0.62244410  0.71390499  0.16331319  1
  H+  H299  1  0.23063267  0.37288086  0.36723884  1
  H+  H300  1  0.60863979  0.35780138  0.32372976  1
  H+  H301  1  0.37837591  0.25705105  0.32762637  1
  H+  H302  1  0.39037402  0.35243288  0.65040846  1
  H+  H303  1  0.91973215  0.58899552  0.94400156  1
  H+  H304  1  0.23478028  0.35185274  0.17624564  1
  H+  H305  1  0.59741115  0.66950860  0.06708189  1
  H+  H306  1  0.09054041  0.65861822  0.39216732  1
  H+  H307  1  0.83836927  0.16827192  0.09839390  1
  H+  H308  1  0.42715609  0.09224757  0.26230337  1
  H+  H309  1  0.60515754  0.93240393  0.73600127  1
  H+  H310  1  0.93417631  0.57659885  0.22377021  1
  H+  H311  1  0.05435455  0.19169657  0.73548714  1
  H+  H312  1  0.10817885  0.46611060  0.44383348  1
  H+  H313  1  0.81173113  0.88748837  0.73771712  1
  H+  H314  1  0.16914431  0.84653144  0.89978942  1
  H+  H315  1  0.40239168  0.31708880  0.55887421  1
  H+  H316  1  0.17427410  0.07199953  0.84678863  1
  H+  H317  1  0.44322989  0.86479840  0.62167297  1
  H+  H318  1  0.66898115  0.09289828  0.22047618  1
  H+  H319  1  0.18537615  0.34272244  0.58497730  1
  H+  H320  1  0.63594996  0.10802066  0.99788142  1
  H+  H321  1  0.86622916  0.21590420  0.46877662  1
  H+  H322  1  0.15130284  0.37449098  0.50743060  1
  H+  H323  1  0.15332385  0.82476785  0.27754363  1
  H+  H324  1  0.81190119  0.40505857  0.72779080  1
  H+  H325  1  0.36295573  0.41847683  0.07850553  1
  H+  H326  1  0.83199578  0.66426266  0.73867824  1
  H+  H327  1  0.08579138  0.92071847  0.07161780  1
  H+  H328  1  0.35546085  0.42170061  0.72912955  1
  H+  H329  1  0.51338986  0.87218718  0.33751921  1
  H+  H330  1  0.42173599  0.82993239  0.25915515  1
  H+  H331  1  0.95822228  0.62947535  0.59382978  1
  H+  H332  1  0.15353519  0.33288585  0.92923604  1
  H+  H333  1  0.34016781  0.67272869  0.10245544  1
  H+  H334  1  0.33988921  0.16991974  0.06987848  1
  H+  H335  1  0.65007973  0.32742157  0.55054766  1
  H+  H336  1  0.65068774  0.82832015  0.60263116  1
  H+  H337  1  0.64610806  0.82490462  0.90613442  1
  H+  H338  1  0.40933559  0.08108158  0.53399229  1
  H+  H339  1  0.17844263  0.08202991  0.95088894  1
  H+  H340  1  0.17396907  0.58379137  0.22971352  1
  H+  H341  1  0.57296671  0.03108219  0.27974626  1
  H+  H342  1  0.43087024  0.13902258  0.62267718  1
  H+  H343  1  0.89170028  0.24635713  0.56268155  1
  H+  H344  1  0.34204892  0.91641338  0.09226051  1
  H+  H345  1  0.92354640  0.08882427  0.22971231  1
  H+  H346  1  0.15171049  0.08428397  0.61153920  1
  H+  H347  1  0.63439731  0.35413475  0.66534822  1
  H+  H348  1  0.34265168  0.67942722  0.74013712  1
  H+  H349  1  0.34529621  0.42769019  0.40675030  1
  H+  H350  1  0.33104144  0.88944246  0.39751207  1
  H+  H351  1  0.11503609  0.13896986  0.15888198  1
  H+  H352  1  0.41304242  0.58336664  0.27416223  1
  H+  H353  1  0.09517992  0.41985034  0.10010850  1
  H+  H354  1  0.83383686  0.40252111  0.06145729  1
  H+  H355  1  0.58363469  0.91118595  0.09399342  1
  H+  H356  1  0.58026712  0.16870694  0.06026713  1
  H+  H357  1  0.28782773  0.89846690  0.82515152  1
  H+  H358  1  0.36217736  0.48625703  0.34604861  1
  H+  H359  1  0.01015958  0.87870493  0.66858929  1
  H+  H360  1  0.99109288  0.71355292  0.89364716  1
  H+  H361  1  0.32236707  0.16987961  0.74158533  1
  H+  H362  1  0.91081556  0.82011008  0.59695499  1
  H+  H363  1  0.88550344  0.82506610  0.93540989  1
  H+  H364  1  0.09528119  0.16935485  0.43821719  1
  H+  H365  1  0.39736891  0.36095421  0.22548817  1
  H+  H366  1  0.97860486  0.70898541  0.51727231  1
  H+  H367  1  0.12926943  0.71351441  0.48953628  1
  H+  H368  1  0.79324926  0.32014122  0.76081881  1
  H+  H369  1  0.42010092  0.08761728  0.89902447  1
  H+  H370  1  0.57016920  0.90401812  0.43701302  1
  H+  H371  1  0.81358111  0.13438846  0.77924844  1
  H+  H372  1  0.05948294  0.89970571  0.75948164  1
  H+  H373  1  0.23555704  0.61683139  0.31774882  1
  H+  H374  1  0.56561372  0.66015592  0.73137101  1
  H+  H375  1  0.43012966  0.33558916  0.93827427  1
  H+  H376  1  0.37361577  0.97757035  0.15450969  1
  H+  H377  1  0.67178992  0.83635451  0.22914917  1
  H+  H378  1  0.57078581  0.41953132  0.39866647  1
  H+  H379  1  0.83409933  0.08730320  0.69319111  1
  H+  H380  1  0.82514015  0.41548240  0.38678557  1
  H+  H381  1  0.47384405  0.38091460  0.31906598  1
  H+  H382  1  0.58655444  0.42442783  0.07679212  1
  H+  H383  1  0.83692045  0.92520288  0.40958535  1
  O2-  O384  1  0.08394258  0.16854071  0.14421440  1
  O2-  O385  1  0.09534066  0.17306791  0.48358603  1
  O2-  O386  1  0.03296330  0.20974996  0.80015961  1
  O2-  O387  1  0.09831782  0.41981712  0.14569577  1
  O2-  O388  1  0.11447069  0.46730842  0.48966689  1
  O2-  O389  1  0.10787748  0.43198606  0.81128842  1
  O2-  O390  1  0.09116310  0.66424417  0.13923528  1
  O2-  O391  1  0.09178379  0.65388040  0.47410064  1
  O2-  O392  1  0.10697069  0.68412540  0.81105473  1
  O2-  O393  1  0.08285679  0.92350414  0.14865904  1
  O2-  O394  1  0.10230908  0.91226475  0.48786913  1
  O2-  O395  1  0.05618819  0.89852757  0.80587794  1
  O2-  O396  1  0.33467605  0.17585466  0.14758968  1
  O2-  O397  1  0.31597347  0.16551276  0.47806446  1
  O2-  O398  1  0.35700232  0.18445279  0.81450240  1
  O2-  O399  1  0.34817657  0.40112089  0.16202194  1
  O2-  O400  1  0.33566417  0.41517381  0.48231188  1
  O2-  O401  1  0.35038540  0.43376118  0.81170454  1
  O2-  O402  1  0.34653729  0.67551968  0.14879313  1
  O2-  O403  1  0.33022941  0.63141736  0.46549801  1
  O2-  O404  1  0.34743142  0.67756205  0.82284479  1
  O2-  O405  1  0.34878021  0.91680329  0.13880214  1
  O2-  O406  1  0.33424677  0.91076695  0.48409989  1
  O2-  O407  1  0.34780085  0.92288580  0.81201242  1
  O2-  O408  1  0.58351326  0.17243779  0.14093361  1
  O2-  O409  1  0.59112869  0.18212755  0.46741774  1
  O2-  O410  1  0.58762238  0.16633254  0.81827623  1
  O2-  O411  1  0.58867127  0.45764746  0.16005070  1
  O2-  O412  1  0.57505172  0.41543515  0.47665152  1
  O2-  O413  1  0.57857116  0.41997663  0.80972160  1
  O2-  O414  1  0.59122590  0.65450303  0.14714708  1
  O2-  O415  1  0.57010336  0.65187813  0.49133910  1
  O2-  O416  1  0.58707852  0.67476105  0.81012380  1
  O2-  O417  1  0.58198970  0.91378977  0.14066495  1
  O2-  O418  1  0.57718756  0.91111276  0.48188177  1
  O2-  O419  1  0.58421326  0.91872504  0.80900974  1
  O2-  O420  1  0.83705719  0.16931282  0.14406972  1
  O2-  O421  1  0.82360627  0.15625629  0.45864602  1
  O2-  O422  1  0.82027266  0.14803614  0.82494875  1
  O2-  O423  1  0.83495932  0.40158846  0.13857984  1
  O2-  O424  1  0.80024638  0.41536866  0.46539983  1
  O2-  O425  1  0.77341807  0.36142831  0.75810816  1
  O2-  O426  1  0.79083573  0.67980863  0.15185536  1
  O2-  O427  1  0.81650433  0.66270884  0.47731186  1
  O2-  O428  1  0.83602447  0.67315530  0.80881557  1
  O2-  O429  1  0.83766343  0.92143076  0.14517210  1
  O2-  O430  1  0.85396657  0.92182748  0.49541756  1
  O2-  O431  1  0.81630339  0.90481571  0.81418829  1
  O2-  O432  1  0.17218674  0.08939690  0.18456717  1
  O2-  O433  1  0.15928242  0.08137797  0.53638696  1
  O2-  O434  1  0.21230185  0.06447636  0.87472117  1
  O2-  O435  1  0.17255186  0.32434719  0.18577475  1
  O2-  O436  1  0.17567861  0.33661193  0.50891134  1
  O2-  O437  1  0.16228107  0.32538940  0.85278306  1
  O2-  O438  1  0.17898984  0.58742887  0.18395573  1
  O2-  O439  1  0.16565207  0.55976021  0.50421899  1
  O2-  O440  1  0.17962406  0.59099259  0.86010092  1
  O2-  O441  1  0.10128746  0.79591387  0.20211029  1
  O2-  O442  1  0.16860478  0.81693774  0.51884950  1
  O2-  O443  1  0.17566720  0.85584882  0.85448330  1
  O2-  O444  1  0.41369876  0.07926570  0.17776189  1
  O2-  O445  1  0.40639386  0.08506966  0.49011108  1
  O2-  O446  1  0.42439256  0.09163562  0.85365853  1
  O2-  O447  1  0.38843232  0.35231517  0.18033530  1
  O2-  O448  1  0.40259702  0.31985159  0.51216224  1
  O2-  O449  1  0.42557109  0.34871578  0.85967233  1
  O2-  O450  1  0.42525754  0.57838653  0.19189534  1
  O2-  O451  1  0.41440095  0.57035372  0.53157346  1
  O2-  O452  1  0.43123192  0.59678471  0.85940143  1
  O2-  O453  1  0.41905041  0.83860865  0.17308547  1
  O2-  O454  1  0.46523043  0.92004477  0.55083723  1
  O2-  O455  1  0.42656349  0.84074302  0.85797784  1
  O2-  O456  1  0.67051665  0.09391387  0.17542174  1
  O2-  O457  1  0.70398721  0.15024176  0.52885948  1
  O2-  O458  1  0.65902203  0.07636152  0.86326933  1
  O2-  O459  1  0.69170368  0.39599073  0.19700071  1
  O2-  O460  1  0.64622550  0.32996125  0.50649536  1
  O2-  O461  1  0.65954695  0.33246193  0.85308224  1
  O2-  O462  1  0.65816295  0.54672231  0.17188122  1
  O2-  O463  1  0.65800001  0.57357027  0.52228521  1
  O2-  O464  1  0.65899339  0.57953180  0.83786096  1
  O2-  O465  1  0.67248919  0.83094731  0.18356021  1
  O2-  O466  1  0.63752324  0.80627365  0.52928172  1
  O2-  O467  1  0.66457143  0.83560681  0.85960559  1
  O2-  O468  1  0.92110579  0.08884892  0.18438836  1
  O2-  O469  1  0.92982608  0.08501084  0.51208665  1
  O2-  O470  1  0.90417432  0.06568028  0.85991291  1
  O2-  O471  1  0.92773574  0.33526688  0.18616905  1
  O2-  O472  1  0.93400454  0.29178679  0.53667704  1
  O2-  O473  1  0.95879632  0.30278107  0.86003494  1
  O2-  O474  1  0.93666800  0.57729502  0.17716230  1
  O2-  O475  1  0.95651720  0.64742571  0.52129889  1
  O2-  O476  1  0.96396470  0.66120847  0.86931803  1
  O2-  O477  1  0.92598112  0.84052197  0.18917956  1
  O2-  O478  1  0.92205975  0.82045607  0.52279888  1
  O2-  O479  1  0.89084849  0.82562347  0.85791986  1
  O2-  O480  1  0.18200844  0.09603621  0.30682396  1
  O2-  O481  1  0.14633237  0.08109870  0.65743685  1
  O2-  O482  1  0.17071772  0.08630622  0.99466419  1
  O2-  O483  1  0.16879085  0.34122857  0.38060154  1
  O2-  O484  1  0.18891992  0.35091499  0.63087584  1
  O2-  O485  1  0.15274187  0.33730584  0.97478011  1
  O2-  O486  1  0.17119714  0.58043913  0.30535796  1
  O2-  O487  1  0.18323233  0.58085714  0.61455084  1
  O2-  O488  1  0.16557270  0.58732668  0.98346205  1
  O2-  O489  1  0.16093893  0.82448706  0.32188987  1
  O2-  O490  1  0.15696970  0.82701841  0.64313073  1
  O2-  O491  1  0.16481196  0.83216784  0.97592037  1
  O2-  O492  1  0.43389569  0.10392002  0.30634663  1
  O2-  O493  1  0.40547172  0.10050339  0.65712104  1
  O2-  O494  1  0.41092192  0.07771958  0.97792454  1
  O2-  O495  1  0.41330066  0.35155532  0.30241400  1
  O2-  O496  1  0.40402308  0.31146557  0.62863090  1
  O2-  O497  1  0.43276087  0.33042223  0.98329511  1
  O2-  O498  1  0.40657708  0.58429010  0.31892151  1
  O2-  O499  1  0.39359015  0.58395872  0.64342382  1
  O2-  O500  1  0.44039948  0.57679419  0.97420334  1
  O2-  O501  1  0.42089378  0.82344476  0.30353459  1
  O2-  O502  1  0.43244657  0.85234140  0.66574147  1
  O2-  O503  1  0.41790206  0.84048542  0.98151837  1
  O2-  O504  1  0.62853044  0.06844659  0.29856924  1
  O2-  O505  1  0.59025927  0.03795530  0.62275927  1
  O2-  O506  1  0.66791637  0.07865663  0.98527003  1
  O2-  O507  1  0.63119943  0.32749059  0.29847000  1
  O2-  O508  1  0.66008588  0.31590008  0.65576792  1
  O2-  O509  1  0.66786492  0.33207639  0.97725010  1
  O2-  O510  1  0.65366800  0.57442511  0.30723070  1
  O2-  O511  1  0.65251097  0.57959813  0.64341418  1
  O2-  O512  1  0.67986948  0.58248888  0.98827723  1
  O2-  O513  1  0.67365190  0.84673121  0.30421732  1
  O2-  O514  1  0.65928759  0.84097795  0.64771021  1
  O2-  O515  1  0.60682054  0.80216277  0.96748342  1
  O2-  O516  1  0.92282051  0.08961508  0.31040557  1
  O2-  O517  1  0.89318897  0.05255018  0.65916829  1
  O2-  O518  1  0.91804253  0.07712673  0.98345857  1
  O2-  O519  1  0.93152761  0.33706954  0.30985487  1
  O2-  O520  1  0.98344132  0.41602218  0.62915732  1
  O2-  O521  1  0.92149877  0.32461660  0.97973510  1
  O2-  O522  1  0.93331544  0.58114634  0.29401611  1
  O2-  O523  1  0.95526450  0.61682288  0.63894194  1
  O2-  O524  1  0.91535160  0.57901527  0.98813635  1
  O2-  O525  1  0.89164510  0.81225316  0.30073326  1
  O2-  O526  1  0.90748912  0.82085412  0.64309526  1
  O2-  O527  1  0.88750789  0.82670264  0.98078269  1
  O2-  O528  1  0.08021629  0.16785683  0.02163508  1
  O2-  O529  1  0.09217034  0.17096439  0.35878023  1
  O2-  O530  1  0.06564143  0.17835481  0.69150610  1
  O2-  O531  1  0.08939668  0.42367599  0.02325745  1
  O2-  O532  1  0.09007808  0.43572606  0.36901634  1
  O2-  O533  1  0.12400615  0.44255115  0.68709436  1
  O2-  O534  1  0.08192300  0.66812186  0.01883720  1
  O2-  O535  1  0.09324127  0.66370417  0.34740852  1
  O2-  O536  1  0.11875746  0.67096714  0.68731265  1
  O2-  O537  1  0.09089785  0.92710125  0.02636067  1
  O2-  O538  1  0.00280863  0.91949702  0.37903836  1
  O2-  O539  1  0.06937701  0.90947206  0.68658916  1
  O2-  O540  1  0.33760260  0.16405388  0.02450451  1
  O2-  O541  1  0.35858872  0.19819905  0.34695905  1
  O2-  O542  1  0.31191599  0.15918688  0.69687278  1
  O2-  O543  1  0.36410676  0.42441693  0.03380252  1
  O2-  O544  1  0.33772990  0.42536465  0.36126390  1
  O2-  O545  1  0.35742203  0.40997335  0.68549753  1
  O2-  O546  1  0.33064357  0.67590473  0.03177052  1
  O2-  O547  1  0.32913683  0.66942721  0.33673545  1
  O2-  O548  1  0.33617030  0.68122129  0.69562439  1
  O2-  O549  1  0.33226942  0.91408373  0.02144258  1
  O2-  O550  1  0.32599394  0.89011933  0.35307595  1
  O2-  O551  1  0.32575878  0.92810594  0.63915943  1
  O2-  O552  1  0.57920147  0.16418164  0.01525448  1
  O2-  O553  1  0.59234403  0.17433028  0.34907910  1
  O2-  O554  1  0.56816674  0.15280114  0.69584912  1
  O2-  O555  1  0.59021492  0.41286344  0.03326071  1
  O2-  O556  1  0.56774660  0.41811030  0.35310412  1
  O2-  O557  1  0.60365324  0.41710692  0.68733171  1
  O2-  O558  1  0.60118771  0.66902671  0.02207653  1
  O2-  O559  1  0.56429893  0.64226202  0.37300136  1
  O2-  O560  1  0.55473862  0.65192781  0.68692468  1
  O2-  O561  1  0.57874228  0.90623673  0.02316669  1
  O2-  O562  1  0.57173731  0.90420943  0.35798029  1
  O2-  O563  1  0.63354422  0.94885697  0.69456394  1
  O2-  O564  1  0.83457193  0.16141057  0.02155138  1
  O2-  O565  1  0.82382813  0.16243938  0.33901178  1
  O2-  O566  1  0.79257883  0.10173057  0.71312654  1
  O2-  O567  1  0.83399620  0.40610514  0.01589122  1
  O2-  O568  1  0.84090252  0.42296474  0.34299680  1
  O2-  O569  1  0.85010166  0.44979278  0.65690543  1
  O2-  O570  1  0.83326669  0.67612568  0.02513927  1
  O2-  O571  1  0.80766972  0.65778259  0.34695471  1
  O2-  O572  1  0.82988383  0.65692881  0.69216087  1
  O2-  O573  1  0.83809251  0.91704327  0.02587455  1
  O2-  O574  1  0.84272607  0.92939394  0.36498023  1
  O2-  O575  1  0.80954529  0.88379141  0.69206531  1
