# generated using pymatgen
data_H2O
_symmetry_space_group_name_H-M   'P 1'
_cell_length_a   17.99718402
_cell_length_b   17.99673561
_cell_length_c   21.99402309
_cell_angle_alpha   90.00332544
_cell_angle_beta   89.99663965
_cell_angle_gamma   119.98987207
_symmetry_Int_Tables_number   1
_chemical_formula_structural   H2O
_chemical_formula_sum   'H384 O192'
_cell_volume   6169.89700760
_cell_formula_units_Z   192
loop_
 _symmetry_equiv_pos_site_id
 _symmetry_equiv_pos_as_xyz
  1  'x, y, z'
loop_
 _atom_type_symbol
 _atom_type_oxidation_number
  H+  1.0
  O2-  -2.0
loop_
 _atom_site_type_symbol
 _atom_site_label
 _atom_site_symmetry_multiplicity
 _atom_site_fract_x
 _atom_site_fract_y
 _atom_site_fract_z
 _atom_site_occupancy
  H+  H0  1  0.60844415  0.12127929  0.16960418  1
  H+  H1  1  0.11730776  0.91474703  0.69848887  1
  H+  H2  1  0.61170715  0.36408559  0.50580681  1
  H+  H3  1  1.02218800  0.39074986  1.00805489  1
  H+  H4  1  0.97845493  0.61853958  0.66616110  1
  H+  H5  1  0.26835794  0.13836008  0.68609343  1
  H+  H6  1  0.13543874  0.76871967  0.99366932  1
  H+  H7  1  0.63100657  0.00831401  0.15591794  1
  H+  H8  1  0.37498565  0.26098195  0.99580305  1
  H+  H9  1  0.62854587  0.60600386  0.51185586  1
  H+  H10  1  0.38151161  0.36543590  0.83681465  1
  H+  H11  1  0.36896430  0.73106264  0.49349464  1
  H+  H12  1  0.37509224  0.35812582  0.32766388  1
  H+  H13  1  0.90124044  0.54778603  0.51347350  1
  H+  H14  1  0.96860014  0.11623344  0.82928304  1
  H+  H15  1  0.97652583  0.61102025  0.17698820  1
  H+  H16  1  0.86977276  0.29605887  1.00104032  1
  H+  H17  1  0.63259662  0.76912569  0.99644150  1
  H+  H18  1  0.62885378  -0.04385780  0.29775222  1
  H+  H19  1  0.29250252  0.88637738  0.65671619  1
  H+  H20  1  0.86314846  0.72834551  0.34704211  1
  H+  H21  1  0.34229620  0.19042001  0.84686181  1
  H+  H22  1  0.53079520  0.90965706  0.48999509  1
  H+  H23  1  0.22530084  0.36761349  0.16828667  1
  H+  H24  1  0.51034324  0.62196961  0.15057204  1
  H+  H25  1  0.65242729  0.76214305  0.31146406  1
  H+  H26  1  0.86559228  0.72964318  0.67250420  1
  H+  H27  1  0.91718243  0.60189508  0.57292498  1
  H+  H28  1  0.47651296  0.60909559  0.32699514  1
  H+  H29  1  0.96036276  0.36124648  0.65900922  1
  H+  H30  1  0.46904183  0.11308941  0.32642063  1
  H+  H31  1  0.84586311  0.95314599  0.63436663  1
  H+  H32  1  0.80394039  0.40451349  0.51836732  1
  H+  H33  1  0.52099163  0.62701003  0.50270241  1
  H+  H34  1  0.97597557  0.09925225  1.00416701  1
  H+  H35  1  0.40723253  0.31942389  0.93643368  1
  H+  H36  1  0.71674958  0.59664984  0.16546803  1
  H+  H37  1  0.85133045  0.47055495  0.82415496  1
  H+  H38  1  0.14492939  0.99036519  0.15168927  1
  H+  H39  1  0.09285521  0.46465284  0.67842288  1
  H+  H40  1  0.06308629  0.41098092  0.77511552  1
  H+  H41  1  0.96228453  0.35936113  0.84599532  1
  H+  H42  1  0.73306895  0.11304513  0.83670759  1
  H+  H43  1  0.91247193  0.33386156  0.59494251  1
  H+  H44  1  0.85104975  0.38185714  0.82615124  1
  H+  H45  1  0.31255222  0.63849792  0.89160806  1
  H+  H46  1  0.40843291  0.59913683  0.22292957  1
  H+  H47  1  0.07634915  0.65685146  0.39241584  1
  H+  H48  1  0.10264469  0.97749640  0.84491222  1
  H+  H49  1  0.13277303  0.34994492  0.32359624  1
  H+  H50  1  1.00858427  0.63247205  0.33646729  1
  H+  H51  1  0.90675117  0.06267620  0.67388499  1
  H+  H52  1  0.03468117  0.13975024  0.15294422  1
  H+  H53  1  0.66125791  0.34454689  0.59733934  1
  H+  H54  1  0.77637280  0.39483523  0.15345297  1
  H+  H55  1  0.26503128  0.37889408  0.49520501  1
  H+  H56  1  0.62161448  0.61959184  0.31967848  1
  H+  H57  1  0.76046513  0.62915032  0.49634128  1
  H+  H58  1  0.51123723  0.37399127  0.01118534  1
  H+  H59  1  0.63111780  0.11210496  0.70100586  1
  H+  H60  1  0.63758371  0.86597842  0.66548301  1
  H+  H61  1  0.86107541  0.64157293  -0.00119082  1
  H+  H62  1  0.62446399  0.89301272  0.82919553  1
  H+  H63  1  0.86038201  0.13918683  0.82306548  1
  H+  H64  1  0.02105727  0.38364792  0.15404069  1
  H+  H65  1  0.24821665  0.36355446  0.33750184  1
  H+  H66  1  0.96751203  0.86350981  0.84579243  1
  H+  H67  1  0.91820847  0.12065459  0.15319118  1
  H+  H68  1  0.65888900  0.06422428  0.31478438  1
  H+  H69  1  0.73667274  0.29000884  0.28183047  1
  H+  H70  1  0.88193406  0.61285519  0.83546125  1
  H+  H71  1  0.39145386  0.11444711  0.51257045  1
  H+  H72  1  0.87990278  0.86005642  0.33339191  1
  H+  H73  1  0.02743640  0.15976390  0.66933285  1
  H+  H74  1  0.65021284  0.28398055  -0.00434692  1
  H+  H75  1  0.96826878  0.86079642  0.32882234  1
  H+  H76  1  0.72528591  0.61604174  0.66566574  1
  H+  H77  1  0.74703680  0.61317258  0.32942538  1
  H+  H78  1  0.12168271  0.76566789  0.34395340  1
  H+  H79  1  0.17860594  0.87297839  0.48959597  1
  H+  H80  1  0.87955222  0.02803331  0.82798349  1
  H+  H81  1  0.37193490  0.98322427  0.66866893  1
  H+  H82  1  0.32979101  0.10748312  0.16896073  1
  H+  H83  1  0.47201940  0.60778304  0.66686744  1
  H+  H84  1  0.85455639  0.23398429  0.67177836  1
  H+  H85  1  0.10969911  0.99739652  0.68797320  1
  H+  H86  1  0.10951350  0.88292351  0.00518742  1
  H+  H87  1  0.15408826  0.82590709  0.91098751  1
  H+  H88  1  0.36075851  0.13765303  0.33958070  1
  H+  H89  1  0.90643937  0.29173226  0.34145215  1
  H+  H90  1  0.22619107  0.86020777  0.98867779  1
  H+  H91  1  0.35871504  1.00300339  0.17610460  1
  H+  H92  1  0.60826905  0.14950093  0.33817834  1
  H+  H93  1  0.04334120  0.39231705  0.34336292  1
  H+  H94  1  0.39048728  0.60899996  0.84676207  1
  H+  H95  1  0.91165838  0.83270496  0.93592320  1
  H+  H96  1  0.60517511  0.72357471  0.67717696  1
  H+  H97  1  0.50209430  0.83082669  0.35328101  1
  H+  H98  1  0.50389476  0.12571227  0.72589597  1
  H+  H99  1  0.57915708  0.65362677  0.06575215  1
  H+  H100  1  0.25721127  0.87893664  0.15429011  1
  H+  H101  1  0.11325165  0.63167131  0.15635542  1
  H+  H102  1  0.09705198  0.21803117  0.49233466  1
  H+  H103  1  0.63585916  0.77360828  0.84170863  1
  H+  H104  1  0.73760324  0.12899110  0.49017788  1
  H+  H105  1  0.11314429  0.13008248  0.33218334  1
  H+  H106  1  0.57903751  0.48002514  0.36696782  1
  H+  H107  1  0.64259995  0.13059766  0.49193757  1
  H+  H108  1  0.12177522  0.61542716  0.83906608  1
  H+  H109  1  0.86223101  0.73111079  0.00450208  1
  H+  H110  1  0.37115238  0.47145983  0.67969502  1
  H+  H111  1  0.13160626  0.86503845  0.16892870  1
  H+  H112  1  0.79380923  0.10363434  0.13787338  1
  H+  H113  1  0.88252481  0.61425207  0.33035213  1
  H+  H114  1  0.27944524  0.13520010  0.49407932  1
  H+  H115  1  0.77024599  0.87635139  0.01444687  1
  H+  H116  1  0.62147463  0.26516416  0.83582786  1
  H+  H117  1  0.09537633  0.47419293  0.83232073  1
  H+  H118  1  0.11133148  0.63678734  0.00620556  1
  H+  H119  1  0.35094569  0.33995452  0.52164845  1
  H+  H120  1  -0.02167204  0.87021133  0.67333799  1
  H+  H121  1  0.20666258  0.10304369  0.84480135  1
  H+  H122  1  0.90653496  0.37914222  0.35090354  1
  H+  H123  1  0.63709603  1.03051726  0.48627908  1
  H+  H124  1  0.86772440  0.10820534  -0.00229731  1
  H+  H125  1  0.11602922  0.13638127  0.00634490  1
  H+  H126  1  0.12695091  0.36410057  0.84220974  1
  H+  H127  1  0.91790424  0.03079773  0.15812582  1
  H+  H128  1  0.13246194  0.52263848  -0.00481336  1
  H+  H129  1  0.38511740  0.51971491  -0.00527125  1
  H+  H130  1  0.90897840  0.57943079  0.27038792  1
  H+  H131  1  0.22780046  0.61001561  0.15899277  1
  H+  H132  1  0.47192753  0.34074465  0.18027878  1
  H+  H133  1  0.13123134  0.01968601  0.99602200  1
  H+  H134  1  0.11766770  0.76783307  0.84268655  1
  H+  H135  1  0.89812123  0.27868718  0.50039582  1
  H+  H136  1  0.70754926  0.15271978  0.15879659  1
  H+  H137  1  0.80394447  0.90500464  0.16258301  1
  H+  H138  1  0.86334917  0.48503763  0.35331028  1
  H+  H139  1  0.87275835  0.76781170  0.47760413  1
  H+  H140  1  0.64158625  0.52820290  0.84411859  1
  H+  H141  1  0.38075667  0.11224717  0.67448274  1
  H+  H142  1  0.32486797  0.71755398  0.69255535  1
  H+  H143  1  0.30872564  0.45770029  0.36071284  1
  H+  H144  1  0.11961048  0.86332405  0.85001792  1
  H+  H145  1  0.14708125  0.14016393  0.51787865  1
  H+  H146  1  0.11939180  0.10850865  0.84287621  1
  H+  H147  1  0.26850619  0.38453282  0.00361301  1
  H+  H148  1  0.88552578  0.35955853  0.15701600  1
  H+  H149  1  0.21726558  0.36498797  0.84167769  1
  H+  H150  1  0.63613757  0.52624201  0.66669293  1
  H+  H151  1  0.71442924  0.35089117  0.83373995  1
  H+  H152  1  0.01229025  0.12661744  0.49466648  1
  H+  H153  1  0.87971642  0.77377989  0.84045742  1
  H+  H154  1  0.86426075  0.64059023  0.67605294  1
  H+  H155  1  0.20460463  0.57332648  0.67733695  1
  H+  H156  1  0.85584137  0.39118879  0.66610700  1
  H+  H157  1  0.28761029  0.89300433  0.50925142  1
  H+  H158  1  0.02023591  0.88264035  0.00694822  1
  H+  H159  1  0.37153991  0.61840473  0.15982433  1
  H+  H160  1  0.48152840  0.11512297  0.16609922  1
  H+  H161  1  0.12803812  0.24105206  0.15567700  1
  H+  H162  1  0.73855609  0.63097525  0.99171252  1
  H+  H163  1  0.15223015  0.83184159  0.39642149  1
  H+  H164  1  0.85489915  0.63718417  0.49949131  1
  H+  H165  1  0.36194892  0.22829352  0.34282359  1
  H+  H166  1  0.61363196  0.39153604  0.67212005  1
  H+  H167  1  0.35665314  0.88154253  0.00112701  1
  H+  H168  1  0.60057409  0.47114500  0.50744867  1
  H+  H169  1  0.27500698  0.63412992  0.00495043  1
  H+  H170  1  0.14968040  1.03609262  0.30309491  1
  H+  H171  1  0.86070360  0.13941452  0.49727633  1
  H+  H172  1  0.92635869  0.84358619  0.23552467  1
  H+  H173  1  0.56784878  0.20849174  0.16378985  1
  H+  H174  1  0.90624686  0.37185677  0.50439855  1
  H+  H175  1  0.79300862  0.16078040  0.33687087  1
  H+  H176  1  0.38728101  0.61044971  0.99588799  1
  H+  H177  1  0.34774444  0.62961932  0.34319854  1
  H+  H178  1  0.86695985  0.15215813  0.67379115  1
  H+  H179  1  0.68440181  0.90124818  0.17260519  1
  H+  H180  1  -0.02127417  0.62456085  -0.01014325  1
  H+  H181  1  0.32885055  0.57075159  0.69668431  1
  H+  H182  1  0.85944676  -0.02754434  0.50045501  1
  H+  H183  1  0.37918689  0.25499689  0.18290658  1
  H+  H184  1  0.62655352  0.99255620  0.68439504  1
  H+  H185  1  0.87006022  0.19312859  -0.02593697  1
  H+  H186  1  0.61024294  0.71420045  0.49990631  1
  H+  H187  1  0.23433354  0.61250114  0.51783225  1
  H+  H188  1  0.38847967  1.02446489  -0.03551858  1
  H+  H189  1  0.60685487  0.23132905  0.49306899  1
  H+  H190  1  0.52412157  0.62956635  1.00314066  1
  H+  H191  1  0.88438306  0.85947956  0.99806480  1
  H+  H192  1  0.38243887  0.76705983  0.99825174  1
  H+  H193  1  0.88870657  0.52277341  0.17578054  1
  H+  H194  1  0.53117211  0.39756260  0.83300758  1
  H+  H195  1  0.10725964  0.22795664  0.82841834  1
  H+  H196  1  0.38511594  0.85323618  0.83676798  1
  H+  H197  1  0.72074059  0.85157403  0.50885548  1
  H+  H198  1  0.34344938  0.70921774  0.14950299  1
  H+  H199  1  0.44002771  0.83616187  0.17465162  1
  H+  H200  1  0.46998563  0.85830064  0.99612874  1
  H+  H201  1  0.57340749  0.90942505  0.16822919  1
  H+  H202  1  0.36903477  0.38012723  0.68328781  1
  H+  H203  1  0.63323329  0.83519606  0.32876086  1
  H+  H204  1  0.63758474  0.62718805  -0.00592827  1
  H+  H205  1  0.77410492  0.64074906  0.82693102  1
  H+  H206  1  1.01315352  0.63995368  0.82414968  1
  H+  H207  1  0.72091616  0.12357171  0.67960151  1
  H+  H208  1  0.39995764  0.98434592  0.80996910  1
  H+  H209  1  0.88744898  0.53016654  0.66419449  1
  H+  H210  1  0.36083701  0.22345584  0.68828900  1
  H+  H211  1  0.99647708  0.88136854  0.18201191  1
  H+  H212  1  0.69269843  0.36143137  0.47953531  1
  H+  H213  1  0.77413874  0.88417966  0.34053443  1
  H+  H214  1  0.66173323  0.97051836  0.32306417  1
  H+  H215  1  0.41062401  0.88817153  0.64915233  1
  H+  H216  1  0.66200202  0.30542738  0.12255873  1
  H+  H217  1  0.36542462  0.72301428  0.70731691  1
  H+  H218  1  0.20836836  0.61006046  0.84355855  1
  H+  H219  1  0.87154036  0.14094292  0.33948932  1
  H+  H220  1  0.60433826  0.46461400  0.16197710  1
  H+  H221  1  0.11223748  0.63194181  0.67864709  1
  H+  H222  1  0.85807961  0.88602941  0.82228702  1
  H+  H223  1  0.10750627  0.71845803  0.15853306  1
  H+  H224  1  0.08766166  0.37333230  0.68430813  1
  H+  H225  1  0.88609607  0.27116451  0.15382692  1
  H+  H226  1  0.13378751  0.73422607  0.48553484  1
  H+  H227  1  0.11119186  0.89335483  0.33789653  1
  H+  H228  1  0.39747363  0.52300785  0.30741896  1
  H+  H229  1  0.86263993  0.40836922  0.00086983  1
  H+  H230  1  0.38414452  0.02098690  0.33368008  1
  H+  H231  1  0.08090732  0.66620957  0.06573610  1
  H+  H232  1  0.13082784  0.35999009  0.99548432  1
  H+  H233  1  0.60313412  0.38142395  0.00933340  1
  H+  H234  1  0.41456392  0.80244144  0.65040543  1
  H+  H235  1  0.63425626  0.02101183  0.98770704  1
  H+  H236  1  0.72255000  0.37370066  0.65504339  1
  H+  H237  1  0.61097590  0.88445984  0.00410847  1
  H+  H238  1  0.88731284  0.00597822  1.00445071  1
  H+  H239  1  0.67462167  0.51610511  0.31372744  1
  H+  H240  1  0.72867643  0.10247569  0.98414080  1
  H+  H241  1  0.12675377  0.25630697  0.32078518  1
  H+  H242  1  0.19905681  0.41855961  0.63607613  1
  H+  H243  1  0.87400309  0.26923688  0.84364294  1
  H+  H244  1  0.37326391  0.76004289  0.33106095  1
  H+  H245  1  0.63822747  0.15223193  0.01395665  1
  H+  H246  1  0.27770048  0.88444622  0.35258783  1
  H+  H247  1  0.47820203  0.35955900  0.66743137  1
  H+  H248  1  0.08033162  0.84712318  0.53871162  1
  H+  H249  1  0.52957380  0.78215168  0.40041666  1
  H+  H250  1  0.77143275  0.40375987  -0.00013813  1
  H+  H251  1  0.61511096  0.38890617  0.83167665  1
  H+  H252  1  0.13581510  0.52342238  0.16728869  1
  H+  H253  1  0.35547686  0.38099671  0.00551198  1
  H+  H254  1  0.34875097  0.48383178  0.15811314  1
  H+  H255  1  0.26671483  0.12784194  0.00549795  1
  H+  H256  1  0.40594930  0.82544842  0.90151411  1
  H+  H257  1  0.11068021  0.38379889  0.15729747  1
  H+  H258  1  0.86669873  0.88246758  0.65652412  1
  H+  H259  1  0.07878888  0.15092647  0.39426849  1
  H+  H260  1  0.13428378  0.12690597  0.67072094  1
  H+  H261  1  0.50793749  0.38661890  0.35022013  1
  H+  H262  1  0.81750331  0.03857209  0.55088701  1
  H+  H263  1  0.13910967  0.62957744  0.31244773  1
  H+  H264  1  0.40213546  0.31888948  0.61549420  1
  H+  H265  1  0.16932534  0.10032144  0.61342890  1
  H+  H266  1  0.34466621  0.87877872  0.15905536  1
  H+  H267  1  0.52573511  0.63488891  0.83098936  1
  H+  H268  1  0.16378814  0.85858867  0.64140262  1
  H+  H269  1  0.63810025  0.61647045  0.84032795  1
  H+  H270  1  0.85229120  0.62237301  0.15856341  1
  H+  H271  1  0.57957577  0.64156499  0.26657321  1
  H+  H272  1  0.23602179  0.12312272  0.31761511  1
  H+  H273  1  0.60677092  0.23388306  0.33614112  1
  H+  H274  1  0.87783658  0.02342815  0.32995925  1
  H+  H275  1  0.89111277  0.89930308  0.16108796  1
  H+  H276  1  0.71911699  0.85338148  0.66050265  1
  H+  H277  1  0.54128693  0.90354495  0.67435966  1
  H+  H278  1  0.24630715  0.37437738  0.66402982  1
  H+  H279  1  0.39887202  0.87288054  0.50282234  1
  H+  H280  1  0.35962248  0.47409246  0.83337135  1
  H+  H281  1  0.14611380  0.60975870  0.51411697  1
  H+  H282  1  0.12058593  0.24525186  0.67352964  1
  H+  H283  1  0.38125627  0.60802132  0.51189675  1
  H+  H284  1  0.13642399  0.35798356  0.50608152  1
  H+  H285  1  0.11247775  0.22504295  0.00381734  1
  H+  H286  1  0.62529750  0.35925625  0.15742569  1
  H+  H287  1  0.96800676  0.10790270  0.32435786  1
  H+  H288  1  0.24064892  0.19958579  0.54605107  1
  H+  H289  1  0.39631003  0.82094304  0.23935003  1
  H+  H290  1  0.15638187  0.07917525  0.93667615  1
  H+  H291  1  0.65970066  0.82226168  0.56675467  1
  H+  H292  1  0.59144531  0.91904510  0.43415819  1
  H+  H293  1  0.08397825  0.17521993  0.76638494  1
  H+  H294  1  0.32651312  0.40403135  0.43856190  1
  H+  H295  1  0.82819447  0.91217895  0.76132618  1
  H+  H296  1  0.42097098  0.57848270  0.90449079  1
  H+  H297  1  0.16690941  0.32539276  0.56377387  1
  H+  H298  1  0.12362308  0.72436886  0.66754252  1
  H+  H299  1  0.90701757  0.09239043  0.59463229  1
  H+  H300  1  0.58653886  0.41994886  0.73453099  1
  H+  H301  1  0.32882910  0.41522124  0.77322849  1
  H+  H302  1  0.82871320  0.17503984  0.76730897  1
  H+  H303  1  0.95705091  0.84235414  0.60662711  1
  H+  H304  1  0.66598737  0.83082764  0.93824304  1
  H+  H305  1  0.84022218  0.42778908  0.44943748  1
  H+  H306  1  0.26301901  0.63951609  0.33615303  1
  H+  H307  1  0.56160524  0.41156739  0.44904754  1
  H+  H308  1  0.41269667  0.32541786  0.27314625  1
  H+  H309  1  0.31631939  0.15060604  0.78012000  1
  H+  H310  1  0.32227114  0.15231496  0.06529036  1
  H+  H311  1  0.43719914  0.84786183  0.55888227  1
  H+  H312  1  0.07636286  0.92253921  0.78452353  1
  H+  H313  1  0.59574601  0.61294467  0.15319202  1
  H+  H314  1  0.83436730  0.43062780  0.09430142  1
  H+  H315  1  0.60965458  0.63646508  0.67719403  1
  H+  H316  1  0.29307522  0.58985210  0.75700958  1
  H+  H317  1  0.66876357  0.07850347  0.89740391  1
  H+  H318  1  0.12735977  0.47670251  0.49913939  1
  H+  H319  1  0.59054005  0.92519524  0.06126182  1
  H+  H320  1  0.68882592  0.33071151  0.25028145  1
  H+  H321  1  0.32983783  0.65827195  0.06852515  1
  H+  H322  1  0.90424549  0.33667427  0.93434702  1
  H+  H323  1  0.67519346  0.12233049  0.25811836  1
  H+  H324  1  0.39001263  0.06340535  0.23786375  1
  H+  H325  1  0.15318309  0.57952785  0.93489072  1
  H+  H326  1  0.66723135  0.57489295  0.22813941  1
  H+  H327  1  0.96004706  0.84681636  0.49908092  1
  H+  H328  1  0.21324102  0.10859706  0.21490754  1
  H+  H329  1  0.10130247  0.17798178  0.09214217  1
  H+  H330  1  0.82653518  0.41668030  0.72783107  1
  H+  H331  1  0.15533431  0.82944135  0.22811433  1
  H+  H332  1  0.69445137  0.85314311  0.23011970  1
  H+  H333  1  0.38947554  0.85618014  0.33484152  1
  H+  H334  1  0.10811121  0.41391607  0.39751875  1
  H+  H335  1  0.35519251  0.91691794  0.75823904  1
  H+  H336  1  0.48067059  0.11600811  0.51392869  1
  H+  H337  1  0.36560987  0.25924689  0.51840605  1
  H+  H338  1  0.35251775  0.72201657  0.84863993  1
  H+  H339  1  0.72508086  0.86171205  0.83944974  1
  H+  H340  1  0.32347236  0.42145403  0.10097524  1
  H+  H341  1  0.91483896  0.58613828  0.89444771  1
  H+  H342  1  0.34097936  0.91997033  0.40868071  1
  H+  H343  1  0.32786698  0.66580864  0.43751546  1
  H+  H344  1  0.78228013  0.39188556  0.35057550  1
  H+  H345  1  0.18737170  0.70384731  0.44660365  1
  H+  H346  1  0.08288616  0.41638822  0.06706358  1
  H+  H347  1  0.39095116  0.11177450  0.96824533  1
  H+  H348  1  0.57705757  0.17295847  0.43316278  1
  H+  H349  1  0.16204472  0.32497089  0.22708049  1
  H+  H350  1  0.16328037  0.57207504  0.61125810  1
  H+  H351  1  0.67278346  0.59814950  0.92897552  1
  H+  H352  1  0.08569998  0.94630495  0.38123800  1
  H+  H353  1  0.09237836  0.92288351  0.09883161  1
  H+  H354  1  0.42504687  0.09618312  0.61672489  1
  H+  H355  1  0.84376942  0.17152224  0.43084787  1
  H+  H356  1  0.33496084  0.16133531  0.43286311  1
  H+  H357  1  0.15827463  0.33100136  0.93471793  1
  H+  H358  1  0.32631353  0.91762673  0.05584881  1
  H+  H359  1  0.83342948  0.67194428  0.76690573  1
  H+  H360  1  0.66281142  0.58074554  0.57180740  1
  H+  H361  1  0.88752862  0.53791060  0.98949590  1
  H+  H362  1  0.37189176  0.98725047  0.50622759  1
  H+  H363  1  0.63935827  1.00508428  0.83335712  1
  H+  H364  1  0.66270644  0.33280941  0.93201996  1
  H+  H365  1  0.82920802  0.66312879  0.40576403  1
  H+  H366  1  0.58426327  0.16706338  0.06506699  1
  H+  H367  1  0.59840506  0.92676942  0.76758161  1
  H+  H368  1  0.17678127  0.60290596  0.25503493  1
  H+  H369  1  0.82255718  0.65052271  0.09840818  1
  H+  H370  1  0.83012805  0.91950004  0.40171722  1
  H+  H371  1  0.40933657  0.57493597  0.60826682  1
  H+  H372  1  0.03751969  0.38911202  0.49359576  1
  H+  H373  1  0.86310019  0.88613671  0.48205448  1
  H+  H374  1  0.17607558  0.82224815  0.58002851  1
  H+  H375  1  0.83804902  0.90817881  0.07190873  1
  H+  H376  1  0.84192239  0.15661104  0.07908853  1
  H+  H377  1  0.45548834  0.10557046  0.86869142  1
  H+  H378  1  0.57051846  0.40612658  0.10067518  1
  H+  H379  1  0.08041570  0.67644250  0.76750854  1
  H+  H380  1  0.58273883  0.66573150  0.77024002  1
  H+  H381  1  0.37775149  0.51721257  0.51145749  1
  H+  H382  1  0.40880103  0.30456862  0.80555118  1
  H+  H383  1  0.08085559  0.93557647  0.54762226  1
  O2-  O384  1  0.10183684  0.17849887  0.13887585  1
  O2-  O385  1  0.07096926  0.15674520  0.47877612  1
  O2-  O386  1  0.07959072  0.16849238  0.81149816  1
  O2-  O387  1  0.08300936  0.41581805  0.14080783  1
  O2-  O388  1  0.09955972  0.41752968  0.48194405  1
  O2-  O389  1  0.06658967  0.41220675  0.82036978  1
  O2-  O390  1  0.07798045  0.65880973  0.14285146  1
  O2-  O391  1  0.13094475  0.68131574  0.46524908  1
  O2-  O392  1  0.07602564  0.67589554  0.81306961  1
  O2-  O393  1  0.10241741  0.92887101  0.14385310  1
  O2-  O394  1  0.04471250  0.87388702  0.55346692  1
  O2-  O395  1  0.07552582  0.91555584  0.82953211  1
  O2-  O396  1  0.30556954  0.14392027  0.15234097  1
  O2-  O397  1  0.33866571  0.15943365  0.47841022  1
  O2-  O398  1  0.30261365  0.13915300  0.82437051  1
  O2-  O399  1  0.31776917  0.42226112  0.14568629  1
  O2-  O400  1  0.32726210  0.40970992  0.48354260  1
  O2-  O401  1  0.32564891  0.41318544  0.81881526  1
  O2-  O402  1  0.32069880  0.65132426  0.13327301  1
  O2-  O403  1  0.33369165  0.66903054  0.48290651  1
  O2-  O404  1  0.31912555  0.65281866  0.84833017  1
  O2-  O405  1  0.31861116  0.91130545  0.14104205  1
  O2-  O406  1  0.34317740  0.92662972  0.48873516  1
  O2-  O407  1  0.36103371  0.92268646  0.80290735  1
  O2-  O408  1  0.54291706  0.14804452  0.15098526  1
  O2-  O409  1  0.58260902  0.17030915  0.47823970  1
  O2-  O410  1  0.55142946  0.14679956  0.81022008  1
  O2-  O411  1  0.57460793  0.40360771  0.14699363  1
  O2-  O412  1  0.56565492  0.40950550  0.49409617  1
  O2-  O413  1  0.59122745  0.42609428  0.81812429  1
  O2-  O414  1  0.56989413  0.64517124  0.13485774  1
  O2-  O415  1  0.57977847  0.65267944  0.48622938  1
  O2-  O416  1  0.58632450  0.66679060  0.81599061  1
  O2-  O417  1  0.61853493  0.95034804  0.14158859  1
  O2-  O418  1  0.58977423  0.94707356  0.47238542  1
  O2-  O419  1  0.60158653  0.93007658  0.81359063  1
  O2-  O420  1  0.84232796  0.15793562  0.12479765  1
  O2-  O421  1  0.83666964  0.17287217  0.47663465  1
  O2-  O422  1  0.82774071  0.17097592  0.81300859  1
  O2-  O423  1  0.83651340  0.42398646  0.13950210  1
  O2-  O424  1  0.85600914  0.43156020  0.49378449  1
  O2-  O425  1  0.82049468  0.41045270  0.80862867  1
  O2-  O426  1  0.81256059  0.64067494  0.14248701  1
  O2-  O427  1  0.81995248  0.66001557  0.47891618  1
  O2-  O428  1  0.83497456  0.67136482  0.81266756  1
  O2-  O429  1  0.86207413  0.93050460  0.14240588  1
  O2-  O430  1  0.82847850  0.91652082  0.47924458  1
  O2-  O431  1  0.82652404  0.91454617  0.80588287  1
  O2-  O432  1  0.21471495  0.09767293  0.17024741  1
  O2-  O433  1  0.19433345  0.13870279  0.54074331  1
  O2-  O434  1  0.14554314  0.07561648  0.86087053  1
  O2-  O435  1  0.16215293  0.32874669  0.18163516  1
  O2-  O436  1  0.16106842  0.32037177  0.51900240  1
  O2-  O437  1  0.15667546  0.33287236  0.85628796  1
  O2-  O438  1  0.16724258  0.58546660  0.17813863  1
  O2-  O439  1  0.17371926  0.57923009  0.53295357  1
  O2-  O440  1  0.14611890  0.57979550  0.85437386  1
  O2-  O441  1  0.15572416  0.82748888  0.18389268  1
  O2-  O442  1  0.14964445  0.82153671  0.51456181  1
  O2-  O443  1  0.14727375  0.82755533  0.86264955  1
  O2-  O444  1  0.38500873  0.06366502  0.19245218  1
  O2-  O445  1  0.42161695  0.08589318  0.53135095  1
  O2-  O446  1  0.46012445  0.10792049  0.82302346  1
  O2-  O447  1  0.41792170  0.30899932  0.20388775  1
  O2-  O448  1  0.34982526  0.29258943  0.54621284  1
  O2-  O449  1  0.41536346  0.33494011  0.84371300  1
  O2-  O450  1  0.40788912  0.59145448  0.17890763  1
  O2-  O451  1  0.40745471  0.57571611  0.52974752  1
  O2-  O452  1  0.42129094  0.57811941  0.85833925  1
  O2-  O453  1  0.38614480  0.82142273  0.19440814  1
  O2-  O454  1  0.43124688  0.84302236  0.51328312  1
  O2-  O455  1  0.40022275  0.81266950  0.85727233  1
  O2-  O456  1  0.65725282  0.10918964  0.18071712  1
  O2-  O457  1  0.67367197  0.09753947  0.50187245  1
  O2-  O458  1  0.67127501  0.07559232  0.85159096  1
  O2-  O459  1  0.65682057  0.32397167  0.16344317  1
  O2-  O460  1  0.64968227  0.33396953  0.51127869  1
  O2-  O461  1  0.65552354  0.32427063  0.85178538  1
  O2-  O462  1  0.65652517  0.56849975  0.18387913  1
  O2-  O463  1  0.66019690  0.57541141  0.52664218  1
  O2-  O464  1  0.67118962  0.58983323  0.85787401  1
  O2-  O465  1  0.70608250  0.86366846  0.18589997  1
  O2-  O466  1  0.66003691  0.81760676  0.52196374  1
  O2-  O467  1  0.66623507  0.83377989  0.85751352  1
  O2-  O468  1  0.95086005  0.09431293  0.16888956  1
  O2-  O469  1  0.87923029  0.07088992  0.54329141  1
  O2-  O470  1  0.90688406  0.08896144  0.84012426  1
  O2-  O471  1  0.91666832  0.32988287  0.16987202  1
  O2-  O472  1  0.93303679  0.33766343  0.51779598  1
  O2-  O473  1  0.90132906  0.32935855  0.86071226  1
  O2-  O474  1  0.91679303  0.58156209  0.19372495  1
  O2-  O475  1  0.91793679  0.60589531  0.52778737  1
  O2-  O476  1  0.91228544  0.58166959  0.84892452  1
  O2-  O477  1  0.93460511  0.85199579  0.19104488  1
  O2-  O478  1  0.91047455  0.83121194  0.47233528  1
  O2-  O479  1  0.90529391  0.83380761  0.85670101  1
  O2-  O480  1  0.18177180  0.09795340  0.29279441  1
  O2-  O481  1  0.16120963  0.09156961  0.65856053  1
  O2-  O482  1  0.16200249  0.08078849  0.98216777  1
  O2-  O483  1  0.16008476  0.31643661  0.30523670  1
  O2-  O484  1  0.18939483  0.36098953  0.64408089  1
  O2-  O485  1  0.16018416  0.32881540  0.98013031  1
  O2-  O486  1  0.18366059  0.61629721  0.29953530  1
  O2-  O487  1  0.15149190  0.56494581  0.65602834  1
  O2-  O488  1  0.16068665  0.58317017  0.97983815  1
  O2-  O489  1  0.15705437  0.83072964  0.35212630  1
  O2-  O490  1  0.18729220  0.82358693  0.62680940  1
  O2-  O491  1  0.16342526  0.82839710  0.97531417  1
  O2-  O492  1  0.40766244  0.07838179  0.31400270  1
  O2-  O493  1  0.41618477  0.08666888  0.66110563  1
  O2-  O494  1  0.41752419  0.08273717  0.94719133  1
  O2-  O495  1  0.40971954  0.33073769  0.31927744  1
  O2-  O496  1  0.41435899  0.32559292  0.66015450  1
  O2-  O497  1  0.40452302  0.32201916  0.98086536  1
  O2-  O498  1  0.41414470  0.58199918  0.31823873  1
  O2-  O499  1  0.41078519  0.57128900  0.65370871  1
  O2-  O500  1  0.41796241  0.58052967  0.97953262  1
  O2-  O501  1  0.41218470  0.82104626  0.31640565  1
  O2-  O502  1  0.44511233  0.86058089  0.63369820  1
  O2-  O503  1  0.40906396  0.82791550  0.98284606  1
  O2-  O504  1  0.67980128  0.12425484  0.30358720  1
  O2-  O505  1  0.65780621  0.08961193  0.67299505  1
  O2-  O506  1  0.66767183  0.08168668  0.97263524  1
  O2-  O507  1  0.70297821  0.31760592  0.29074016  1
  O2-  O508  1  0.66164397  0.34643232  0.64197098  1
  O2-  O509  1  0.66955424  0.34144950  0.97689136  1
  O2-  O510  1  0.68791327  0.57560397  0.30938684  1
  O2-  O511  1  0.66432373  0.58700684  0.65187671  1
  O2-  O512  1  0.67545782  0.60259896  0.97554624  1
  O2-  O513  1  0.67601322  0.82489240  0.30754559  1
  O2-  O514  1  0.65739291  0.82612497  0.65020194  1
  O2-  O515  1  0.66382944  0.83065493  0.98366090  1
  O2-  O516  1  0.90630950  0.08395746  0.31551464  1
  O2-  O517  1  0.93001297  0.11348993  0.64811474  1
  O2-  O518  1  0.91548512  0.06689740  0.99007987  1
  O2-  O519  1  0.93769855  0.35368940  0.33145191  1
  O2-  O520  1  0.90258849  0.33462139  0.63967463  1
  O2-  O521  1  0.91075521  0.34831807  0.97997729  1
  O2-  O522  1  0.90931034  0.57989176  0.31620177  1
  O2-  O523  1  0.91791359  0.59233794  0.65217590  1
  O2-  O524  1  0.91943503  0.59767659  0.97241962  1
  O2-  O525  1  0.90715386  0.82677730  0.31739445  1
  O2-  O526  1  0.92818681  0.83703570  0.64613152  1
  O2-  O527  1  0.91667993  0.83136434  0.98112988  1
  O2-  O528  1  0.08566734  0.16637600  0.02264693  1
  O2-  O529  1  0.07816772  0.15386735  0.34931040  1
  O2-  O530  1  0.08822632  0.18536763  0.68707499  1
  O2-  O531  1  0.08288982  0.41744291  0.02074465  1
  O2-  O532  1  0.10436986  0.40957481  0.35283103  1
  O2-  O533  1  0.05814534  0.40457621  0.69576498  1
  O2-  O534  1  0.08272293  0.66975435  0.01992177  1
  O2-  O535  1  0.07151798  0.66534910  0.34827660  1
  O2-  O536  1  0.08806550  0.66954617  0.68980331  1
  O2-  O537  1  0.08136716  0.91424904  0.02137241  1
  O2-  O538  1  0.08482262  0.93091915  0.33862552  1
  O2-  O539  1  0.07943324  0.93750367  0.70687843  1
  O2-  O540  1  0.32734485  0.15748306  0.02053999  1
  O2-  O541  1  0.32988988  0.16639211  0.35618986  1
  O2-  O542  1  0.32739837  0.16256957  0.70286871  1
  O2-  O543  1  0.32912996  0.41587574  0.01816073  1
  O2-  O544  1  0.30720082  0.40278936  0.35780567  1
  O2-  O545  1  0.33761948  0.41111446  0.69602767  1
  O2-  O546  1  0.33518621  0.66250147  0.01937653  1
  O2-  O547  1  0.32110459  0.66226085  0.35878974  1
  O2-  O548  1  0.27530157  0.55828942  0.71863780  1
  O2-  O549  1  0.32541434  0.91336574  0.01085847  1
  O2-  O550  1  0.33938864  0.91591660  0.36336371  1
  O2-  O551  1  0.35058162  0.91990683  0.67489844  1
  O2-  O552  1  0.63348938  0.19678685  0.03754919  1
  O2-  O553  1  0.57428725  0.17561170  0.35369692  1
  O2-  O554  1  0.56284329  0.15053863  0.74315234  1
  O2-  O555  1  0.56975697  0.40504440  0.02881185  1
  O2-  O556  1  0.56652625  0.42075107  0.36920513  1
  O2-  O557  1  0.58150946  0.42016706  0.68957770  1
  O2-  O558  1  0.58467207  0.66020888  0.01865917  1
  O2-  O559  1  0.58769229  0.64840792  0.31060518  1
  O2-  O560  1  0.57621784  0.66325655  0.69324916  1
  O2-  O561  1  0.58223410  0.91766130  0.01675798  1
  O2-  O562  1  0.55219626  0.83377024  0.37554691  1
  O2-  O563  1  0.59894452  0.92817705  0.69348941  1
  O2-  O564  1  0.83666873  0.14624536  0.00227272  1
  O2-  O565  1  0.84810385  0.17860059  0.35707757  1
  O2-  O566  1  0.83129778  0.17623348  0.69087118  1
  O2-  O567  1  0.83166021  0.43730906  0.01660449  1
  O2-  O568  1  0.83497647  0.42749893  0.37402991  1
  O2-  O569  1  0.82971972  0.42464876  0.68283916  1
  O2-  O570  1  0.82770855  0.66815479  0.01538733  1
  O2-  O571  1  0.83536305  0.66632358  0.35976780  1
  O2-  O572  1  0.83304359  0.67094469  0.69002095  1
  O2-  O573  1  0.83186967  0.90328585  0.02588327  1
  O2-  O574  1  0.83409414  0.91779497  0.35626141  1
  O2-  O575  1  0.83428837  0.91265800  0.66758494  1
