# generated using pymatgen
data_H2O
_symmetry_space_group_name_H-M   'P 1'
_cell_length_a   17.98208749
_cell_length_b   17.98101365
_cell_length_c   21.98403225
_cell_angle_alpha   89.99333154
_cell_angle_beta   90.00161723
_cell_angle_gamma   119.99958835
_symmetry_Int_Tables_number   1
_chemical_formula_structural   H2O
_chemical_formula_sum   'H384 O192'
_cell_volume   6155.93548259
_cell_formula_units_Z   192
loop_
 _symmetry_equiv_pos_site_id
 _symmetry_equiv_pos_as_xyz
  1  'x, y, z'
loop_
 _atom_type_symbol
 _atom_type_oxidation_number
  H+  1.0
  O2-  -2.0
loop_
 _atom_site_type_symbol
 _atom_site_label
 _atom_site_symmetry_multiplicity
 _atom_site_fract_x
 _atom_site_fract_y
 _atom_site_fract_z
 _atom_site_occupancy
  H+  H0  1  0.38851671  0.11576145  0.65757270  1
  H+  H1  1  0.38872334  1.01792933  0.50099921  1
  H+  H2  1  0.02976476  0.87644114  0.68247991  1
  H+  H3  1  0.61380994  0.91183854  0.55442195  1
  H+  H4  1  0.96896478  0.60566537  0.83714394  1
  H+  H5  1  1.02253321  0.38924256  0.34178095  1
  H+  H6  1  0.89352688  0.51941425  0.16971295  1
  H+  H7  1  0.68014289  0.09821542  0.15613986  1
  H+  H8  1  0.59105479  0.13965339  0.16113012  1
  H+  H9  1  0.61764348  0.72208469  0.48564336  1
  H+  H10  1  0.11878336  0.64037644  0.33907488  1
  H+  H11  1  0.86962576  0.63909056  0.00257266  1
  H+  H12  1  0.58651213  -0.03552437  0.14810749  1
  H+  H13  1  0.85520328  0.89034889  0.69136232  1
  H+  H14  1  0.65396408  0.85876694  0.49379441  1
  H+  H15  1  0.60941644  0.78378202  0.71985299  1
  H+  H16  1  0.02478004  0.13390915  0.00457063  1
  H+  H17  1  0.84972975  0.46625064  0.50840699  1
  H+  H18  1  0.35024515  0.72003317  0.33173700  1
  H+  H19  1  0.67039815  0.33974401  -0.06633249  1
  H+  H20  1  0.64443549  0.85413819  -0.02110789  1
  H+  H21  1  0.34951644  0.47962285  0.34203397  1
  H+  H22  1  0.85259833  0.97789797  0.68886081  1
  H+  H23  1  0.89790978  0.86905641  0.52082671  1
  H+  H24  1  0.57144065  0.18024277  0.10236945  1
  H+  H25  1  0.81998386  0.41056048  0.72604472  1
  H+  H26  1  0.39329676  0.89258378  0.83381570  1
  H+  H27  1  0.39096581  0.61055326  0.84322901  1
  H+  H28  1  0.10957662  0.48074764  0.34076382  1
  H+  H29  1  0.46872611  0.85475587  0.14989380  1
  H+  H30  1  0.17422152  0.00993433  0.31285749  1
  H+  H31  1  0.34741396  0.90943063  0.00112195  1
  H+  H32  1  0.26464665  0.38045430  0.16187181  1
  H+  H33  1  0.26469804  0.13709415  0.81767301  1
  H+  H34  1  0.22143157  0.61049630  0.83756245  1
  H+  H35  1  0.90468031  0.23374144  0.82105677  1
  H+  H36  1  0.88737646  0.10724650  0.83919673  1
  H+  H37  1  0.88412472  0.11058322  -0.00766804  1
  H+  H38  1  0.63503760  0.26691114  0.63390544  1
  H+  H39  1  0.50630844  0.35611005  0.68023449  1
  H+  H40  1  0.62632977  1.01867668  0.65928915  1
  H+  H41  1  0.64143610  0.27908942  0.83857777  1
  H+  H42  1  0.85285350  0.23091959  0.66905299  1
  H+  H43  1  0.36466481  0.89432819  0.68287820  1
  H+  H44  1  0.63863341  0.28390041  -0.00403908  1
  H+  H45  1  0.78917930  0.90008138  0.77641884  1
  H+  H46  1  0.62838968  0.02690935  0.31892006  1
  H+  H47  1  0.68918544  0.85480403  0.31423350  1
  H+  H48  1  0.39072352  0.74297751  0.81874228  1
  H+  H49  1  0.87555119  0.98676271  0.50497829  1
  H+  H50  1  0.63334735  0.11663067  0.50884256  1
  H+  H51  1  0.86907931  0.60364521  0.51092451  1
  H+  H52  1  0.95117610  0.19783943  0.77577308  1
  H+  H53  1  0.76797197  0.38522978  0.66215015  1
  H+  H54  1  0.10970478  0.72042759  0.16729925  1
  H+  H55  1  0.48072967  0.35801321  0.51224947  1
  H+  H56  1  0.38479517  0.28630141  0.83315298  1
  H+  H57  1  1.03561988  0.10043607  0.83868074  1
  H+  H58  1  0.64089463  0.37400665  0.32821966  1
  H+  H59  1  0.97607168  0.13947792  0.33747605  1
  H+  H60  1  0.89280385  0.24124941  0.16174034  1
  H+  H61  1  0.26877201  0.12782024  0.14225317  1
  H+  H62  1  0.13302024  0.52202324  0.83708828  1
  H+  H63  1  0.13067004  0.77226613  -0.00634559  1
  H+  H64  1  0.70124602  0.50652325  0.66828858  1
  H+  H65  1  0.02751098  0.38918530  0.15994426  1
  H+  H66  1  0.58764152  0.88117127  0.33286710  1
  H+  H67  1  0.97785118  0.36540150  0.83850625  1
  H+  H68  1  0.89090161  0.36452234  0.17411728  1
  H+  H69  1  0.39523235  0.10806118  0.83826662  1
  H+  H70  1  0.12765976  0.73455874  0.34060517  1
  H+  H71  1  0.37511188  0.61232827  0.32307983  1
  H+  H72  1  0.25159633  0.10706524  0.29824226  1
  H+  H73  1  0.36762093  0.88647182  0.48484186  1
  H+  H74  1  0.77727522  0.88255299  0.00398099  1
  H+  H75  1  0.52646069  0.15228819  0.00880366  1
  H+  H76  1  0.37656641  0.48791971  0.82347316  1
  H+  H77  1  0.01502411  0.38057496  0.67509638  1
  H+  H78  1  0.33359820  0.75503818  0.65024909  1
  H+  H79  1  0.24141297  0.86223989  0.33015842  1
  H+  H80  1  0.57319001  0.63107049  0.16423147  1
  H+  H81  1  0.61947592  0.37883718  0.51923075  1
  H+  H82  1  0.86489867  0.64375295  0.35438504  1
  H+  H83  1  0.81374548  0.14759473  0.16278271  1
  H+  H84  1  0.00019637  0.61766096  0.16790919  1
  H+  H85  1  0.13443233  0.27492093  -0.00734811  1
  H+  H86  1  0.88444590  0.27215340  0.32523193  1
  H+  H87  1  0.38468492  1.04176726  -0.00726190  1
  H+  H88  1  0.59692539  0.18983663  0.44963739  1
  H+  H89  1  0.48269606  0.36805552  0.83583305  1
  H+  H90  1  0.25430028  0.89619282  0.00312275  1
  H+  H91  1  0.21951969  0.94573613  0.54243030  1
  H+  H92  1  0.90678851  0.86735492  0.33195912  1
  H+  H93  1  0.47705321  0.60587477  0.51168696  1
  H+  H94  1  0.58573403  0.95755893  -0.05368530  1
  H+  H95  1  0.13264565  0.52007629  0.16837107  1
  H+  H96  1  0.37238108  0.85351722  0.15579980  1
  H+  H97  1  0.22339144  0.36347286  -0.00644650  1
  H+  H98  1  0.86537127  0.47833905  0.00542626  1
  H+  H99  1  0.36424453  0.70902374  -0.00546544  1
  H+  H100  1  0.46504772  0.59561983  0.67020295  1
  H+  H101  1  0.20589204  0.11045413  0.51506854  1
  H+  H102  1  0.12237493  0.60360504  0.65532449  1
  H+  H103  1  0.11438512  0.63593908  1.00385612  1
  H+  H104  1  0.03455649  0.88398026  0.33320661  1
  H+  H105  1  0.80873199  0.89219846  0.36098591  1
  H+  H106  1  0.37627120  0.26762271  0.16105715  1
  H+  H107  1  0.39250508  0.98727662  0.83749879  1
  H+  H108  1  0.60876742  -0.00004265  0.88145550  1
  H+  H109  1  0.14336657  0.02766581  0.99671953  1
  H+  H110  1  0.65310334  0.29134313  0.32713767  1
  H+  H111  1  0.72841375  0.89478326  0.64545982  1
  H+  H112  1  0.88668124  0.36128827  0.99134408  1
  H+  H113  1  0.87668569  0.52796111  0.66250412  1
  H+  H114  1  -0.04433578  0.11799149  0.67321986  1
  H+  H115  1  0.53260250  0.90194225  0.67098397  1
  H+  H116  1  0.69636694  0.84833770  0.88603149  1
  H+  H117  1  0.21146538  0.60142841  0.65323364  1
  H+  H118  1  0.87639785  0.36077669  0.51148975  1
  H+  H119  1  0.46481717  0.11222020  0.17082269  1
  H+  H120  1  0.76526386  0.37606981  0.52204817  1
  H+  H121  1  0.37193934  0.75639926  0.15198927  1
  H+  H122  1  0.39957261  0.82975540  0.98041140  1
  H+  H123  1  0.48020901  0.86174526  0.51699014  1
  H+  H124  1  0.91462114  0.58204678  0.93027868  1
  H+  H125  1  0.14765530  0.85957668  0.32407122  1
  H+  H126  1  0.90293044  0.03592428  0.33401204  1
  H+  H127  1  0.79205797  0.89241863  0.49655910  1
  H+  H128  1  0.38145898  0.39602649  0.82024385  1
  H+  H129  1  0.66447015  0.08737815  0.56758127  1
  H+  H130  1  0.35383011  0.61624626  0.00439757  1
  H+  H131  1  0.60925648  0.63957524  0.33319917  1
  H+  H132  1  0.13422855  0.36534034  0.66475039  1
  H+  H133  1  -0.01134245  0.62889699  0.34006405  1
  H+  H134  1  0.83955089  0.67703339  0.76988901  1
  H+  H135  1  0.88785749  0.77038755  0.00355530  1
  H+  H136  1  0.31838837  0.15491450  0.57907945  1
  H+  H137  1  0.64638102  0.15983760  0.34600380  1
  H+  H138  1  0.38607622  0.51182901  0.99467473  1
  H+  H139  1  0.41261727  0.57178536  0.90304356  1
  H+  H140  1  0.06151138  0.16509974  0.74787555  1
  H+  H141  1  0.14923032  0.86920782  0.84114956  1
  H+  H142  1  0.10872848  0.47526848  0.00553524  1
  H+  H143  1  0.14219638  0.84850923  0.66118723  1
  H+  H144  1  0.88748152  0.86471331  1.00606257  1
  H+  H145  1  0.47382457  0.11115110  0.50882957  1
  H+  H146  1  0.35994513  0.84552234  0.32934506  1
  H+  H147  1  0.87266697  0.48326445  0.32242708  1
  H+  H148  1  0.39568154  0.39436413  0.33917569  1
  H+  H149  1  0.12987783  0.27825262  0.50995403  1
  H+  H150  1  0.61849968  0.77285039  0.16286974  1
  H+  H151  1  0.31930036  0.16746910  0.71733220  1
  H+  H152  1  0.51017162  0.83952689  0.98527270  1
  H+  H153  1  0.84322516  -0.00270970  0.84847226  1
  H+  H154  1  0.01632926  0.23953336  0.38401598  1
  H+  H155  1  0.14116322  0.37325222  0.32487570  1
  H+  H156  1  0.89981360  0.61508459  0.16729053  1
  H+  H157  1  0.68484492  0.49787439  0.63606771  1
  H+  H158  1  -0.03215621  0.36250752  0.50562239  1
  H+  H159  1  0.89163800  0.77220389  0.33154200  1
  H+  H160  1  0.13824884  0.10235957  0.16673102  1
  H+  H161  1  0.83038883  0.91338529  0.06810052  1
  H+  H162  1  0.78166858  0.39995104  0.31019249  1
  H+  H163  1  0.01799070  0.14870564  0.50103363  1
  H+  H164  1  0.10229320  0.46970679  0.67264484  1
  H+  H165  1  0.86129630  0.47403781  0.82316709  1
  H+  H166  1  0.52630666  0.38785113  0.00675947  1
  H+  H167  1  0.64226030  0.61308611  0.84593810  1
  H+  H168  1  0.37978789  0.26250849  0.31904989  1
  H+  H169  1  0.36386295  0.72594760  0.48487103  1
  H+  H170  1  0.38540799  -0.00607134  0.68635544  1
  H+  H171  1  0.35253418  0.63131431  0.66525067  1
  H+  H172  1  0.35755143  0.12836519  0.52542442  1
  H+  H173  1  0.90752883  0.11187209  0.17758871  1
  H+  H174  1  0.36172491  0.23297775  0.66360988  1
  H+  H175  1  0.08575467  0.89897972  0.39441131  1
  H+  H176  1  0.59688043  0.88085877  0.14878207  1
  H+  H177  1  0.93130877  0.60798410  0.28122286  1
  H+  H178  1  0.86043617  0.38440330  0.82103449  1
  H+  H179  1  0.47486479  0.60355644  -0.00961067  1
  H+  H180  1  0.36437274  0.38407555  1.00783000  1
  H+  H181  1  0.36886391  0.51469351  0.17190444  1
  H+  H182  1  0.31808781  0.91330545  0.09991876  1
  H+  H183  1  0.26544062  0.87518917  0.16219106  1
  H+  H184  1  0.87834911  0.11381486  0.51164102  1
  H+  H185  1  0.40402299  0.08035518  0.26439020  1
  H+  H186  1  0.38405029  0.17843756  0.30098450  1
  H+  H187  1  0.77855065  0.39265735  0.15992717  1
  H+  H188  1  0.10886099  0.71527692  0.66700184  1
  H+  H189  1  0.62556633  0.57237434  0.56326168  1
  H+  H190  1  0.64398488  0.52702398  0.99649558  1
  H+  H191  1  0.59326948  0.35474923  0.67028807  1
  H+  H192  1  0.12049247  0.11067749  0.30296614  1
  H+  H193  1  0.13314426  0.35732078  0.17393825  1
  H+  H194  1  0.86593383  0.10931911  0.66164261  1
  H+  H195  1  0.53223461  0.64409626  0.83829040  1
  H+  H196  1  -0.02281295  0.36471114  -0.00875501  1
  H+  H197  1  0.14213418  0.82790880  0.93354995  1
  H+  H198  1  0.54121188  0.14891934  0.81997503  1
  H+  H199  1  0.38942119  0.27071588  0.52224917  1
  H+  H200  1  0.61606350  0.63497793  0.00462074  1
  H+  H201  1  0.27605101  0.14375666  -0.00299635  1
  H+  H202  1  0.48973514  0.63393495  0.15558793  1
  H+  H203  1  0.88090978  0.01741229  0.99504941  1
  H+  H204  1  0.11159272  0.86169829  0.48938260  1
  H+  H205  1  0.73341663  0.13526232  1.01777644  1
  H+  H206  1  0.38013292  0.01784110  0.17120252  1
  H+  H207  1  0.39085292  0.13247935  0.98721222  1
  H+  H208  1  0.26525336  0.38529624  0.34231206  1
  H+  H209  1  0.88506116  0.78327016  0.68615858  1
  H+  H210  1  0.62970876  0.48640811  0.35508297  1
  H+  H211  1  0.64922419  0.07578549  0.97974897  1
  H+  H212  1  0.10512497  0.07937163  0.81651993  1
  H+  H213  1  0.39133033  0.51444461  0.51506683  1
  H+  H214  1  0.38260471  0.36901287  0.66103069  1
  H+  H215  1  0.11522259  0.21947814  0.16215591  1
  H+  H216  1  0.11568097  0.38961252  0.49567889  1
  H+  H217  1  0.65276911  0.77150705  -0.02162202  1
  H+  H218  1  0.10911364  0.63994871  0.82571154  1
  H+  H219  1  0.98790144  0.86687725  1.00777799  1
  H+  H220  1  0.88124383  0.85278111  0.17480945  1
  H+  H221  1  0.67775043  0.61903627  0.16633020  1
  H+  H222  1  0.78522292  0.64313416  0.83558037  1
  H+  H223  1  0.08372184  0.23717000  0.69741636  1
  H+  H224  1  0.18084579  0.06454029  0.21560633  1
  H+  H225  1  0.75781386  0.60904744  0.17098304  1
  H+  H226  1  0.11087956  -0.03507965  0.15561992  1
  H+  H227  1  0.22370991  0.60737930  0.99164165  1
  H+  H228  1  0.88176398  0.60974336  0.83883690  1
  H+  H229  1  0.58878869  0.92819096  0.75619841  1
  H+  H230  1  0.61380432  0.13867481  0.66243299  1
  H+  H231  1  0.25332855  0.20828697  0.78849370  1
  H+  H232  1  0.87838888  0.72622844  0.15977602  1
  H+  H233  1  0.08333738  0.41507549  0.77070743  1
  H+  H234  1  0.35781795  0.13035857  0.14866574  1
  H+  H235  1  0.22381659  0.61054225  0.32405033  1
  H+  H236  1  0.76865560  0.88401429  0.16060048  1
  H+  H237  1  0.73204520  0.62304656  0.33314070  1
  H+  H238  1  0.22268349  0.36403511  0.51077845  1
  H+  H239  1  0.20767076  0.10377247  0.65460571  1
  H+  H240  1  0.26672453  0.38828519  0.67807453  1
  H+  H241  1  0.25679215  0.89735790  0.50266556  1
  H+  H242  1  0.71048935  0.23623671  0.38663611  1
  H+  H243  1  1.02997554  0.12747043  0.16428863  1
  H+  H244  1  0.46404635  0.60994065  0.32190203  1
  H+  H245  1  -0.02353025  0.61335659  -0.01064330  1
  H+  H246  1  0.09491501  0.72181186  0.82595486  1
  H+  H247  1  0.61822135  0.15721407  1.02263335  1
  H+  H248  1  0.86187947  -0.03117890  0.16565351  1
  H+  H249  1  0.34991380  0.63059290  0.15431871  1
  H+  H250  1  0.63638149  0.48402655  0.15127411  1
  H+  H251  1  0.52816463  0.14494273  0.66565405  1
  H+  H252  1  0.13307240  0.85032914  0.17719789  1
  H+  H253  1  0.60878967  0.76051888  0.31980053  1
  H+  H254  1  0.85597003  0.13189328  0.33657064  1
  H+  H255  1  0.64089797  0.52357457  0.84282828  1
  H+  H256  1  0.53861503  0.40497280  0.35775986  1
  H+  H257  1  0.39224817  0.27949185  0.98916678  1
  H+  H258  1  0.15487955  0.72943316  0.48943935  1
  H+  H259  1  0.86047601  0.66029843  0.68767912  1
  H+  H260  1  0.77986475  0.63919598  1.00704832  1
  H+  H261  1  0.64215622  0.77300591  0.70869948  1
  H+  H262  1  0.11982686  0.27865618  0.33436766  1
  H+  H263  1  0.21968091  0.61161013  0.16630307  1
  H+  H264  1  0.11229967  0.39286774  0.83631026  1
  H+  H265  1  0.44596164  0.38791940  0.28186617  1
  H+  H266  1  0.66420984  0.34184545  0.23002935  1
  H+  H267  1  0.60537418  0.62022680  0.67901093  1
  H+  H268  1  0.13769783  0.61093648  0.50012763  1
  H+  H269  1  0.88158759  0.36427232  0.65761594  1
  H+  H270  1  0.62580639  0.89797105  0.81181129  1
  H+  H271  1  0.87671452  0.23155018  0.00294496  1
  H+  H272  1  1.02043866  0.87650759  0.16160384  1
  H+  H273  1  0.85034912  0.72826531  0.50764663  1
  H+  H274  1  0.35643258  0.48114543  0.67370614  1
  H+  H275  1  0.10235145  0.87761818  1.00674347  1
  H+  H276  1  0.91738683  0.76294551  0.84116946  1
  H+  H277  1  0.44895544  0.84943163  0.31905699  1
  H+  H278  1  0.75950576  0.63973169  0.50188711  1
  H+  H279  1  0.11944004  0.14541260  0.32137595  1
  H+  H280  1  0.63176551  0.27807107  0.17184227  1
  H+  H281  1  0.33248068  0.05302070  0.31242324  1
  H+  H282  1  0.62691026  0.38643361  0.15493338  1
  H+  H283  1  0.36012499  0.38001830  0.49497036  1
  H+  H284  1  0.75714047  0.67424624  0.67731196  1
  H+  H285  1  0.72920569  0.36802790  0.84082841  1
  H+  H286  1  0.35914616  0.95776644  0.34110449  1
  H+  H287  1  0.14166712  0.11469143  -0.00529810  1
  H+  H288  1  0.59485892  0.41908536  0.08743319  1
  H+  H289  1  0.08453886  0.41676323  0.09916683  1
  H+  H290  1  0.71459553  0.11414331  0.65656155  1
  H+  H291  1  0.10974113  0.67322789  0.42961078  1
  H+  H292  1  0.16913891  0.82437670  0.23715335  1
  H+  H293  1  0.36630752  0.93309231  0.76891659  1
  H+  H294  1  0.10908128  0.38634947  0.00705755  1
  H+  H295  1  0.02969785  0.78392548  0.45992082  1
  H+  H296  1  0.42679124  0.70024498  0.77495370  1
  H+  H297  1  0.57679170  0.66643167  0.39256580  1
  H+  H298  1  0.42741742  0.09385654  0.90251367  1
  H+  H299  1  0.64321539  0.82903496  0.22254868  1
  H+  H300  1  0.90198764  0.58134033  0.57069223  1
  H+  H301  1  0.82730471  0.67391942  0.41000943  1
  H+  H302  1  0.07639512  0.90563919  0.07030972  1
  H+  H303  1  0.62503830  0.50755514  0.51385558  1
  H+  H304  1  0.11057121  0.62840315  0.16315832  1
  H+  H305  1  0.61914012  0.98252944  0.51102649  1
  H+  H306  1  0.57955771  0.40190111  0.77083961  1
  H+  H307  1  0.33765393  0.17300284  0.05528936  1
  H+  H308  1  0.07807654  0.65931850  0.72830956  1
  H+  H309  1  0.41528344  0.07605332  0.60177229  1
  H+  H310  1  0.35168350  0.37830180  0.16525888  1
  H+  H311  1  0.67330370  0.58487680  0.93642624  1
  H+  H312  1  0.60543615  0.62809666  0.48283675  1
  H+  H313  1  0.05271956  0.81396191  0.86048569  1
  H+  H314  1  0.49164857  0.86637266  0.83485452  1
  H+  H315  1  0.41630455  0.34308471  0.60077949  1
  H+  H316  1  0.34261057  0.42606990  0.75602912  1
  H+  H317  1  0.88814589  0.36389413  0.31487180  1
  H+  H318  1  0.16161957  0.58112512  0.26568551  1
  H+  H319  1  0.33087901  0.41072207  0.06740496  1
  H+  H320  1  0.08247821  0.16340875  0.06471575  1
  H+  H321  1  0.35070210  0.19347985  0.41782676  1
  H+  H322  1  0.16068067  0.32777701  0.23498382  1
  H+  H323  1  0.11590904  0.96155891  0.67205029  1
  H+  H324  1  0.62306065  0.73046413  0.82545111  1
  H+  H325  1  0.91421679  0.32682412  0.89481685  1
  H+  H326  1  0.87025108  0.93087025  0.41627703  1
  H+  H327  1  0.91452376  0.82513782  0.23418224  1
  H+  H328  1  0.61806679  0.38862798  0.00401533  1
  H+  H329  1  0.30782760  0.15438597  0.41169311  1
  H+  H330  1  0.82930338  0.17134730  0.72775755  1
  H+  H331  1  0.64682641  0.07661161  0.22538440  1
  H+  H332  1  0.91231642  0.33226481  0.59955103  1
  H+  H333  1  0.56175319  0.91642810  0.39033860  1
  H+  H334  1  0.86168579  0.17819187  0.06464984  1
  H+  H335  1  0.28072566  0.79949222  0.62899213  1
  H+  H336  1  0.82359084  0.16097041  0.39529528  1
  H+  H337  1  0.85094607  0.66807020  0.09765258  1
  H+  H338  1  0.89415286  0.06425210  0.91217698  1
  H+  H339  1  0.97187735  0.84529104  0.51920212  1
  H+  H340  1  0.12557861  0.50482329  0.50231398  1
  H+  H341  1  0.71954843  0.63293428  0.61455387  1
  H+  H342  1  0.72358243  0.10901833  0.31688539  1
  H+  H343  1  0.12245711  0.11727141  0.50577921  1
  H+  H344  1  0.42875109  0.81989075  0.89632698  1
  H+  H345  1  0.96723649  0.61290500  0.66185062  1
  H+  H346  1  0.14013691  0.06892544  0.60139492  1
  H+  H347  1  0.76791413  0.13842259  0.49218315  1
  H+  H348  1  0.67846139  0.58448979  0.27212996  1
  H+  H349  1  0.17336104  0.83017312  0.59919810  1
  H+  H350  1  0.90739809  0.08695090  0.57393940  1
  H+  H351  1  0.32204664  0.66320955  0.72216246  1
  H+  H352  1  0.16343750  0.33240133  0.60746991  1
  H+  H353  1  0.92536550  0.07857108  0.24014384  1
  H+  H354  1  0.91424750  0.84045391  0.62468343  1
  H+  H355  1  0.08268830  0.66332203  0.06333560  1
  H+  H356  1  0.41547811  0.57781719  0.60592305  1
  H+  H357  1  0.60000016  0.40821725  0.45275891  1
  H+  H358  1  0.32844144  0.41386342  0.43841481  1
  H+  H359  1  -0.02335906  0.85913094  0.82033151  1
  H+  H360  1  0.57851187  0.66756427  0.05806660  1
  H+  H361  1  0.42490242  0.34453508  0.93292602  1
  H+  H362  1  0.85765341  0.22642460  0.49076101  1
  H+  H363  1  0.67966462  0.83878924  0.55554572  1
  H+  H364  1  0.57526595  0.89522774  0.04137134  1
  H+  H365  1  0.56590390  0.62560748  0.74149591  1
  H+  H366  1  0.32511446  0.65738350  0.08962973  1
  H+  H367  1  0.33148306  0.90976083  0.42091331  1
  H+  H368  1  0.28015113  0.63448602  0.48954678  1
  H+  H369  1  0.61065202  0.23017095  0.51712425  1
  H+  H370  1  0.59584492  0.18521321  0.75958621  1
  H+  H371  1  0.64319721  0.90193175  0.64831430  1
  H+  H372  1  0.39753323  0.57771573  0.23061545  1
  H+  H373  1  0.61468469  0.38634596  0.83277894  1
  H+  H374  1  0.92225499  0.33481242  0.23380980  1
  H+  H375  1  0.83686243  0.42024182  0.09944518  1
  H+  H376  1  0.06567258  0.18700966  0.43749532  1
  H+  H377  1  0.36969605  0.27756445  0.22876712  1
  H+  H378  1  0.77558909  0.39084671  0.00637543  1
  H+  H379  1  0.39748362  0.82577029  0.56046232  1
  H+  H380  1  0.08557636  0.42043576  0.43411786  1
  H+  H381  1  0.15323091  0.57034733  0.56746783  1
  H+  H382  1  0.32500786  0.66015064  0.39202617  1
  H+  H383  1  0.16266665  0.58110320  0.93321258  1
  O2-  O384  1  0.08824046  0.15973960  0.14542528  1
  O2-  O385  1  0.07633290  0.18083788  0.48276495  1
  O2-  O386  1  0.08482099  0.12066403  0.81153321  1
  O2-  O387  1  0.08804856  0.41888448  0.14498463  1
  O2-  O388  1  0.08579577  0.42147441  0.48019147  1
  O2-  O389  1  0.08245564  0.42174744  0.81575113  1
  O2-  O390  1  0.07723577  0.65895071  0.15055781  1
  O2-  O391  1  0.11656233  0.67103479  0.47564564  1
  O2-  O392  1  0.07483668  0.66385170  0.80774180  1
  O2-  O393  1  0.07966906  0.90165950  0.14475141  1
  O2-  O394  1  0.05625151  0.84539966  0.46759786  1
  O2-  O395  1  0.19760111  0.98556369  0.81517086  1
  O2-  O396  1  0.33054558  0.16128680  0.12955772  1
  O2-  O397  1  0.32786618  0.16161696  0.53509732  1
  O2-  O398  1  0.29729800  0.19239486  0.79536506  1
  O2-  O399  1  0.32601647  0.41206856  0.14781289  1
  O2-  O400  1  0.32824521  0.41015678  0.48371313  1
  O2-  O401  1  0.35116304  0.42803417  0.80402969  1
  O2-  O402  1  0.32372275  0.66352813  0.13591576  1
  O2-  O403  1  0.33305111  0.66780793  0.46635247  1
  O2-  O404  1  0.37430330  0.68576741  0.79733431  1
  O2-  O405  1  0.32498145  0.90599379  0.14419307  1
  O2-  O406  1  0.33858801  0.91793445  0.47030139  1
  O2-  O407  1  0.36491975  0.92740889  0.81928048  1
  O2-  O408  1  0.56866100  0.17784692  0.14862508  1
  O2-  O409  1  0.58183268  0.17453699  0.49277213  1
  O2-  O410  1  0.59964743  0.18671013  0.80465772  1
  O2-  O411  1  0.60179185  0.42306201  0.13606136  1
  O2-  O412  1  0.59053332  0.40794650  0.49726154  1
  O2-  O413  1  0.58331758  0.41492334  0.81572947  1
  O2-  O414  1  0.55260002  0.66426774  0.14222781  1
  O2-  O415  1  0.58108270  0.66371850  0.46773623  1
  O2-  O416  1  0.59082128  0.66731860  0.82138517  1
  O2-  O417  1  0.56220150  0.90544621  0.13119552  1
  O2-  O418  1  0.59418229  0.91815924  0.51389433  1
  O2-  O419  1  0.58719406  0.92053524  0.80301762  1
  O2-  O420  1  0.87110565  0.18067627  0.14569040  1
  O2-  O421  1  0.82763883  0.16591998  0.47502979  1
  O2-  O422  1  0.89859694  0.18064518  0.80012214  1
  O2-  O423  1  0.83920115  0.42305159  0.14544957  1
  O2-  O424  1  0.82080572  0.40323963  0.49914955  1
  O2-  O425  1  0.82956744  0.41392798  0.80651752  1
  O2-  O426  1  0.85435332  0.66563114  0.14350963  1
  O2-  O427  1  0.81900918  0.67132315  0.48618584  1
  O2-  O428  1  0.84396637  0.66763776  0.81914713  1
  O2-  O429  1  0.82952638  0.90954888  0.14764473  1
  O2-  O430  1  0.85508672  0.92728448  0.48806220  1
  O2-  O431  1  0.78613951  0.89937947  0.82330636  1
  O2-  O432  1  0.16745389  0.06768213  0.17161306  1
  O2-  O433  1  0.14338804  0.07896625  0.52132619  1
  O2-  O434  1  0.17977596  0.03580471  0.84538127  1
  O2-  O435  1  0.16138717  0.32530067  0.18920343  1
  O2-  O436  1  0.16233001  0.33968386  0.52574620  1
  O2-  O437  1  0.15826078  0.35052941  0.87677226  1
  O2-  O438  1  0.16004769  0.58165591  0.18316816  1
  O2-  O439  1  0.15797092  0.56987056  0.52047998  1
  O2-  O440  1  0.16268942  0.58343870  0.85277671  1
  O2-  O441  1  0.16306314  0.81895767  0.19061800  1
  O2-  O442  1  0.20270193  0.88895758  0.52624397  1
  O2-  O443  1  0.11040653  0.81530826  0.86268152  1
  O2-  O444  1  0.40400891  0.07795095  0.18515437  1
  O2-  O445  1  0.41320838  0.07450389  0.52292182  1
  O2-  O446  1  0.42989715  0.08638475  0.85682123  1
  O2-  O447  1  0.39062166  0.31374405  0.19162051  1
  O2-  O448  1  0.41955565  0.33487175  0.52455205  1
  O2-  O449  1  0.42078248  0.34520513  0.84962374  1
  O2-  O450  1  0.39532994  0.57684475  0.18464641  1
  O2-  O451  1  0.42426432  0.57109483  0.53542253  1
  O2-  O452  1  0.41743556  0.57646697  0.85689563  1
  O2-  O453  1  0.40518057  0.82141814  0.16453049  1
  O2-  O454  1  0.41610962  0.83062479  0.51754379  1
  O2-  O455  1  0.42979538  0.83405982  0.84967025  1
  O2-  O456  1  0.62866615  0.06811345  0.18103428  1
  O2-  O457  1  0.66604304  0.08757192  0.52100270  1
  O2-  O458  1  0.59221943  0.00755715  0.92248923  1
  O2-  O459  1  0.66681005  0.34059696  0.18405393  1
  O2-  O460  1  0.66116982  0.32532834  0.55179370  1
  O2-  O461  1  0.66985832  0.33817688  0.85834858  1
  O2-  O462  1  0.69511715  0.58015121  0.18379062  1
  O2-  O463  1  0.64512077  0.57048908  0.52214490  1
  O2-  O464  1  0.67099161  0.58180357  0.86181149  1
  O2-  O465  1  0.65184523  0.83329295  0.17761313  1
  O2-  O466  1  0.68214474  0.82800564  0.51047856  1
  O2-  O467  1  0.69406754  0.85124550  0.84010550  1
  O2-  O468  1  0.92559092  0.07209156  0.19412696  1
  O2-  O469  1  0.91064622  0.08657255  0.52835788  1
  O2-  O470  1  0.88807083  0.05715415  0.86298563  1
  O2-  O471  1  0.92339188  0.33617078  0.18775330  1
  O2-  O472  1  0.90910693  0.32878735  0.52203314  1
  O2-  O473  1  0.91600295  0.32610520  0.84939414  1
  O2-  O474  1  0.92840853  0.58241523  0.18400345  1
  O2-  O475  1  0.89870327  0.57351341  0.52557555  1
  O2-  O476  1  0.90972651  0.57540789  0.85441811  1
  O2-  O477  1  0.91284768  0.82317738  0.18840346  1
  O2-  O478  1  0.91543797  0.82851457  0.53752965  1
  O2-  O479  1  0.96818651  0.82006657  0.85373804  1
  O2-  O480  1  0.21744873  0.04769095  0.28255118  1
  O2-  O481  1  0.14646680  0.06577485  0.64631417  1
  O2-  O482  1  0.17508855  0.08702271  0.98177531  1
  O2-  O483  1  0.16419403  0.33532906  0.31275089  1
  O2-  O484  1  0.16511864  0.33414404  0.65293673  1
  O2-  O485  1  0.16114694  0.33753495  0.98465683  1
  O2-  O486  1  0.16112698  0.58175564  0.31084272  1
  O2-  O487  1  0.15112380  0.57183114  0.63736758  1
  O2-  O488  1  0.16204146  0.58137500  0.97857234  1
  O2-  O489  1  0.17737274  0.82854744  0.30983530  1
  O2-  O490  1  0.16849008  0.81514553  0.64270950  1
  O2-  O491  1  0.15462496  0.83265109  0.97893929  1
  O2-  O492  1  0.39533617  0.08344643  0.30896266  1
  O2-  O493  1  0.41918292  0.08409817  0.64694139  1
  O2-  O494  1  0.42201957  0.09996693  0.97599759  1
  O2-  O495  1  0.44001372  0.37834607  0.32579451  1
  O2-  O496  1  0.41059660  0.33668634  0.64620988  1
  O2-  O497  1  0.42676826  0.34250886  0.97807188  1
  O2-  O498  1  0.40385882  0.57959367  0.30697198  1
  O2-  O499  1  0.40713170  0.57948748  0.65177101  1
  O2-  O500  1  0.41387948  0.57141189  0.97659309  1
  O2-  O501  1  0.38779180  0.81382829  0.30936401  1
  O2-  O502  1  0.33935703  0.80923299  0.63297601  1
  O2-  O503  1  0.42164386  0.79532579  0.96240353  1
  O2-  O504  1  0.66312412  0.08568937  0.30136650  1
  O2-  O505  1  0.65548810  0.08244788  0.63957364  1
  O2-  O506  1  0.67011890  0.10759909  1.01912275  1
  O2-  O507  1  0.66788010  0.34541117  0.30511518  1
  O2-  O508  1  0.66232351  0.32892366  0.61989884  1
  O2-  O509  1  0.67086332  0.34426587  0.97964224  1
  O2-  O510  1  0.67203034  0.59042237  0.31605518  1
  O2-  O511  1  0.70624396  0.66070420  0.64724504  1
  O2-  O512  1  0.67536121  0.58778785  0.98264698  1
  O2-  O513  1  0.62944241  0.82051350  0.30176621  1
  O2-  O514  1  0.67866212  0.88484626  0.62049762  1
  O2-  O515  1  0.68481199  0.83265831  0.96527157  1
  O2-  O516  1  0.91900822  0.09095146  0.31387842  1
  O2-  O517  1  0.90002451  0.08072635  0.65185728  1
  O2-  O518  1  0.90857290  0.07502078  0.97442609  1
  O2-  O519  1  0.92038343  0.33158210  0.30928838  1
  O2-  O520  1  0.91228953  0.33288605  0.64534658  1
  O2-  O521  1  0.91664127  0.33148845  0.97528065  1
  O2-  O522  1  0.92738112  0.60221023  0.32553787  1
  O2-  O523  1  0.90633333  0.58896211  0.64947454  1
  O2-  O524  1  0.91512463  0.58425597  0.97642941  1
  O2-  O525  1  0.92509947  0.82975907  0.31118305  1
  O2-  O526  1  0.91567237  0.84626898  0.66933655  1
  O2-  O527  1  0.92021985  0.83430749  0.99337180  1
  O2-  O528  1  0.08449207  0.16612598  0.01928583  1
  O2-  O529  1  0.04337945  0.20673283  0.37127096  1
  O2-  O530  1  0.03602006  0.19111237  0.72117741  1
  O2-  O531  1  0.07716176  0.41558958  0.02215735  1
  O2-  O532  1  0.08219681  0.42140315  0.35851174  1
  O2-  O533  1  0.07564819  0.41109303  0.69063161  1
  O2-  O534  1  0.08309262  0.66612908  0.01854087  1
  O2-  O535  1  0.09416277  0.67399457  0.35846277  1
  O2-  O536  1  0.07706459  0.65446809  0.68298366  1
  O2-  O537  1  0.07199025  0.90748693  0.02438312  1
  O2-  O538  1  0.09375827  0.91308124  0.35034213  1
  O2-  O539  1  0.09282651  0.90107641  0.68594386  1
  O2-  O540  1  0.33898912  0.17781652  0.00953785  1
  O2-  O541  1  0.35123138  0.20895534  0.29477326  1
  O2-  O542  1  0.33214391  0.16962386  0.67329677  1
  O2-  O543  1  0.33232153  0.41291392  0.02196350  1
  O2-  O544  1  0.32517201  0.42044150  0.35928695  1
  O2-  O545  1  0.32899296  0.42034894  0.69135591  1
  O2-  O546  1  0.32683183  0.65078166  0.01688355  1
  O2-  O547  1  0.32273767  0.65716938  0.34612947  1
  O2-  O548  1  0.31567592  0.65684781  0.67740021  1
  O2-  O549  1  0.31401065  0.93133677  0.02112257  1
  O2-  O550  1  0.32255179  0.90028999  0.35793547  1
  O2-  O551  1  0.36359380  0.93855350  0.70925584  1
  O2-  O552  1  0.58320519  0.18719166  0.02913393  1
  O2-  O553  1  0.65160510  0.20841861  0.37141962  1
  O2-  O554  1  0.59059218  0.17755950  0.67535209  1
  O2-  O555  1  0.58722584  0.41768454  0.02307996  1
  O2-  O556  1  0.59950968  0.42599010  0.36966225  1
  O2-  O557  1  0.55594541  0.35840021  0.70155560  1
  O2-  O558  1  0.58374668  0.66583375  0.01343156  1
  O2-  O559  1  0.57553852  0.66705428  0.34645828  1
  O2-  O560  1  0.54967273  0.59864249  0.70103686  1
  O2-  O561  1  0.57507473  0.87924239  -0.00138624  1
  O2-  O562  1  0.56651573  0.92043264  0.34609790  1
  O2-  O563  1  0.59169941  0.93541150  0.68498413  1
  O2-  O564  1  0.84961938  0.17161892  0.02030916  1
  O2-  O565  1  0.82284259  0.16093802  0.34962725  1
  O2-  O566  1  0.81961213  0.16956057  0.68359298  1
  O2-  O567  1  0.83569843  0.41888464  0.02273243  1
  O2-  O568  1  0.84454249  0.42385751  0.30685795  1
  O2-  O569  1  0.82594015  0.41409090  0.68080169  1
  O2-  O570  1  0.84116210  0.66985323  0.02182186  1
  O2-  O571  1  0.83158086  0.67306869  0.36425807  1
  O2-  O572  1  0.83783460  0.69267599  0.70924042  1
  O2-  O573  1  0.83669384  0.91466894  0.02272560  1
  O2-  O574  1  0.86963008  0.92749159  0.36977357  1
  O2-  O575  1  0.82007525  0.91763727  0.70397385  1
