# generated using pymatgen
data_H2O
_symmetry_space_group_name_H-M   'P 1'
_cell_length_a   17.99254826
_cell_length_b   17.99329592
_cell_length_c   21.99626919
_cell_angle_alpha   90.05147830
_cell_angle_beta   89.98822394
_cell_angle_gamma   120.02960585
_symmetry_Int_Tables_number   1
_chemical_formula_structural   H2O
_chemical_formula_sum   'H384 O192'
_cell_volume   6165.28594903
_cell_formula_units_Z   192
loop_
 _symmetry_equiv_pos_site_id
 _symmetry_equiv_pos_as_xyz
  1  'x, y, z'
loop_
 _atom_type_symbol
 _atom_type_oxidation_number
  H+  1.0
  O2-  -2.0
loop_
 _atom_site_type_symbol
 _atom_site_label
 _atom_site_symmetry_multiplicity
 _atom_site_fract_x
 _atom_site_fract_y
 _atom_site_fract_z
 _atom_site_occupancy
  H+  H0  1  0.27263090  0.37741159  0.68399447  1
  H+  H1  1  0.48367253  0.60834599  0.84318997  1
  H+  H2  1  0.62448627  0.27281492  0.84274649  1
  H+  H3  1  0.51716002  0.13250526  0.82376365  1
  H+  H4  1  0.39363065  0.60327791  0.83390269  1
  H+  H5  1  0.37611320  1.00801404  0.32723673  1
  H+  H6  1  0.36027807  0.89260286  0.16292695  1
  H+  H7  1  0.98829498  0.81506302  0.98966838  1
  H+  H8  1  0.96178265  0.60844900  0.82808587  1
  H+  H9  1  0.30811668  0.19194623  0.15641902  1
  H+  H10  1  0.12174672  0.97170237  0.51508658  1
  H+  H11  1  0.84649235  0.22087171  0.99369175  1
  H+  H12  1  0.09260247  0.37931600  0.31307116  1
  H+  H13  1  0.35392307  0.86195090  0.51885240  1
  H+  H14  1  0.67504103  0.84107422  0.77059043  1
  H+  H15  1  0.60751643  0.89367897  0.50318563  1
  H+  H16  1  0.89719381  0.39490787  0.83833924  1
  H+  H17  1  0.89359087  0.74524802  0.35639471  1
  H+  H18  1  0.38197164  0.26721117  0.66234757  1
  H+  H19  1  0.43444367  0.58785362  0.29312154  1
  H+  H20  1  0.48047932  0.59801186  0.66903307  1
  H+  H21  1  0.37589465  0.70239178  0.65190236  1
  H+  H22  1  0.86891475  0.48008233  0.00971879  1
  H+  H23  1  0.32096322  0.15256292  -0.01624771  1
  H+  H24  1  0.77772211  0.14020856  0.67696537  1
  H+  H25  1  0.40281371  0.88864762  0.32457541  1
  H+  H26  1  0.36077961  0.73008249  0.16267103  1
  H+  H27  1  0.86628996  0.38406277  0.34431081  1
  H+  H28  1  0.41503540  0.29544398  0.99221653  1
  H+  H29  1  0.14082865  0.62473296  0.65931842  1
  H+  H30  1  0.37820627  0.48719150  1.01956124  1
  H+  H31  1  0.10972079  0.89663014  0.16165787  1
  H+  H32  1  0.66516361  0.09188135  0.60535934  1
  H+  H33  1  0.88181403  0.90293728  -0.03345913  1
  H+  H34  1  0.89928729  0.64271072  0.18048052  1
  H+  H35  1  0.03163635  0.14384147  0.67162451  1
  H+  H36  1  0.96575659  0.11049456  0.18052261  1
  H+  H37  1  0.39109650  0.50641037  0.67073906  1
  H+  H38  1  0.85978852  0.75032624  1.02121190  1
  H+  H39  1  0.86638270  0.24544282  0.83050579  1
  H+  H40  1  0.85444281  0.14405016  0.35437297  1
  H+  H41  1  0.12859371  0.64187420  0.33531366  1
  H+  H42  1  0.35193841  0.36033876  0.49333762  1
  H+  H43  1  0.12018455  0.75430083  0.52169057  1
  H+  H44  1  0.77741075  0.54042811  1.05477621  1
  H+  H45  1  0.12999104  0.36597815  -0.00324404  1
  H+  H46  1  0.40509733  0.39723350  0.82484626  1
  H+  H47  1  0.86670776  0.89223966  0.13182814  1
  H+  H48  1  0.88727776  0.12810354  0.17905597  1
  H+  H49  1  0.08579788  0.13148364  -0.00772887  1
  H+  H50  1  0.78826436  0.89568271  0.82767091  1
  H+  H51  1  0.12192779  0.87139548  0.52272046  1
  H+  H52  1  0.40258857  0.77797637  0.82908287  1
  H+  H53  1  0.84288137  0.45469224  0.50293910  1
  H+  H54  1  0.72969442  0.64657001  1.00745977  1
  H+  H55  1  0.36015339  0.37216386  0.67746312  1
  H+  H56  1  0.11726700  0.13484245  0.67501262  1
  H+  H57  1  0.45907874  0.10664238  0.16903785  1
  H+  H58  1  0.64539122  0.37583708  0.99347767  1
  H+  H59  1  0.04247728  0.50360102  0.87770911  1
  H+  H60  1  0.14413788  0.27363441  0.66393647  1
  H+  H61  1  0.37433243  0.91993705  0.65254274  1
  H+  H62  1  0.61655059  0.63310494  0.67698754  1
  H+  H63  1  0.62211575  0.23913103  0.67525484  1
  H+  H64  1  0.59687381  0.30143448  0.17547850  1
  H+  H65  1  0.59449826  0.21556197  0.49440198  1
  H+  H66  1  0.64672715  0.34919697  0.33610002  1
  H+  H67  1  0.59851024  0.87932832  -0.00133387  1
  H+  H68  1  0.40556965  0.31973106  0.60005550  1
  H+  H69  1  0.38691816  0.85727613  0.83576702  1
  H+  H70  1  0.89040106  0.76841168  0.83599287  1
  H+  H71  1  0.32576835  0.60108017  0.51662239  1
  H+  H72  1  0.23178633  0.11523729  0.84273662  1
  H+  H73  1  0.09814702  0.66785384  0.82233497  1
  H+  H74  1  0.87876801  0.35480870  -0.00959929  1
  H+  H75  1  0.81592495  0.43415212  0.16264286  1
  H+  H76  1  0.91791625  0.63769867  0.97933104  1
  H+  H77  1  0.61663839  0.21964384  0.34146954  1
  H+  H78  1  0.64237287  0.01369763  0.17711929  1
  H+  H79  1  0.81489936  0.55615042  0.07603003  1
  H+  H80  1  0.73037533  0.87317623  0.32707653  1
  H+  H81  1  0.51504148  0.38221613  0.67502626  1
  H+  H82  1  0.38779351  0.40181238  1.02259407  1
  H+  H83  1  0.71003608  0.83757343  0.17023686  1
  H+  H84  1  0.02406773  0.38710444  0.65510639  1
  H+  H85  1  0.65254882  0.07688571  0.89775830  1
  H+  H86  1  0.16894375  0.80056428  0.32695873  1
  H+  H87  1  0.22440573  0.61232031  0.65731631  1
  H+  H88  1  0.87852414  0.91609912  0.33877422  1
  H+  H89  1  0.72219906  0.12277730  0.51456914  1
  H+  H90  1  0.70933679  0.87951223  0.99377103  1
  H+  H91  1  0.80820583  0.81317809  0.09032281  1
  H+  H92  1  0.36666219  0.02900915  0.17346120  1
  H+  H93  1  0.86165641  0.39202024  0.67118419  1
  H+  H94  1  0.90940121  0.84128369  0.48197131  1
  H+  H95  1  0.58765225  0.53279597  0.31082250  1
  H+  H96  1  0.30430732  0.87518672  0.77278517  1
  H+  H97  1  1.09348676  0.20729024  0.14754056  1
  H+  H98  1  0.14420334  0.92340874  0.34108723  1
  H+  H99  1  0.69601232  0.32538064  0.16727783  1
  H+  H100  1  0.86370250  0.22812311  0.67260205  1
  H+  H101  1  0.47881216  0.14358713  0.33012247  1
  H+  H102  1  0.21102518  0.19712559  0.31494905  1
  H+  H103  1  0.27467660  0.63977017  0.16497599  1
  H+  H104  1  0.48972815  0.39543927  0.16742134  1
  H+  H105  1  1.06680511  0.94170412  0.33938854  1
  H+  H106  1  0.85621631  0.63062270  0.82782948  1
  H+  H107  1  0.13747206  0.28559759  0.31435454  1
  H+  H108  1  0.08739008  0.91430470  0.76699079  1
  H+  H109  1  0.10044006  0.62724728  0.50106180  1
  H+  H110  1  0.33532785  0.91558566  0.07374974  1
  H+  H111  1  0.11887501  0.20541722  0.50030644  1
  H+  H112  1  0.58764443  0.71461242  0.16125909  1
  H+  H113  1  0.14824767  0.88579203  0.85072074  1
  H+  H114  1  0.48575086  0.87812773  0.32714089  1
  H+  H115  1  0.86159283  0.87358947  0.67781954  1
  H+  H116  1  0.85724406  0.22345516  0.15374637  1
  H+  H117  1  0.14342964  0.01000741  0.66527672  1
  H+  H118  1  0.14056454  0.78476378  0.17600625  1
  H+  H119  1  0.36503657  0.63484295  1.01383979  1
  H+  H120  1  0.87676605  0.73092115  0.32474163  1
  H+  H121  1  0.07427815  0.91324987  0.06954599  1
  H+  H122  1  0.88169522  0.51309033  0.32907606  1
  H+  H123  1  0.59545588  0.46158984  0.50455702  1
  H+  H124  1  0.58083133  0.37054920  0.83991477  1
  H+  H125  1  0.63692686  0.11001904  0.98745857  1
  H+  H126  1  0.20972481  0.62518407  0.49741653  1
  H+  H127  1  1.02337520  0.90067763  0.16573411  1
  H+  H128  1  -0.03424646  0.59214324  0.51657471  1
  H+  H129  1  0.63869363  0.62992176  0.16588597  1
  H+  H130  1  0.26927097  0.89094362  0.16021985  1
  H+  H131  1  0.38840640  0.40817719  0.17040819  1
  H+  H132  1  0.86524515  0.63800886  0.67547367  1
  H+  H133  1  1.02868104  0.87008529  0.50897856  1
  H+  H134  1  0.62964793  0.77902202  0.52105128  1
  H+  H135  1  0.82831620  0.99523450  0.00630643  1
  H+  H136  1  0.29758429  0.64373115  0.81031978  1
  H+  H137  1  0.29686550  0.33804691  0.33106740  1
  H+  H138  1  0.61939544  0.34866358  0.51606245  1
  H+  H139  1  0.98997312  0.61672141  0.99384402  1
  H+  H140  1  0.50789838  0.61733937  0.15156938  1
  H+  H141  1  0.77313711  0.87463610  0.68295809  1
  H+  H142  1  0.37003799  0.13726723  0.83098113  1
  H+  H143  1  0.37526241  0.81346235  0.66971191  1
  H+  H144  1  0.18306403  0.10142957  0.99596674  1
  H+  H145  1  0.49557197  0.13356401  0.69284453  1
  H+  H146  1  0.34177292  0.74743609  0.47795573  1
  H+  H147  1  0.21447493  0.83699974  0.53191240  1
  H+  H148  1  0.81785101  0.41208460  0.76707227  1
  H+  H149  1  0.09085912  0.33308661  0.47804839  1
  H+  H150  1  0.79357417  0.66195520  0.17547659  1
  H+  H151  1  0.51825793  0.89904345  0.67439239  1
  H+  H152  1  0.46085349  0.33873229  0.50881039  1
  H+  H153  1  0.39563346  0.03667508  0.68248235  1
  H+  H154  1  0.13913618  0.77369424  0.62201586  1
  H+  H155  1  0.16148024  0.58662370  0.56082847  1
  H+  H156  1  0.14888738  0.07635450  0.92767338  1
  H+  H157  1  0.77664688  0.37983267  0.33965052  1
  H+  H158  1  0.87532843  0.84775050  0.20395892  1
  H+  H159  1  0.98454892  0.62504205  0.66283603  1
  H+  H160  1  0.02637959  0.12497617  0.49947246  1
  H+  H161  1  0.37767189  0.85407936  1.01039417  1
  H+  H162  1  0.80332233  0.56917295  0.35151948  1
  H+  H163  1  0.87581615  0.26504366  0.33533295  1
  H+  H164  1  -0.00321031  0.63754842  0.34519336  1
  H+  H165  1  0.89719895  0.75059496  0.50128546  1
  H+  H166  1  0.37152573  0.24841874  0.50401536  1
  H+  H167  1  0.28905917  0.92085635  0.67628187  1
  H+  H168  1  0.76966067  0.13343219  0.15725791  1
  H+  H169  1  0.41133721  0.11240157  0.99693391  1
  H+  H170  1  0.72699801  0.61000668  0.66391373  1
  H+  H171  1  0.71209090  0.87252645  0.51672765  1
  H+  H172  1  0.62483210  0.51079139  0.15826001  1
  H+  H173  1  0.35658657  0.60234272  0.30048956  1
  H+  H174  1  0.26758992  0.88341072  0.83690363  1
  H+  H175  1  0.92005772  0.92523878  0.98713257  1
  H+  H176  1  0.63513668  1.03037407  0.51174353  1
  H+  H177  1  0.27371036  0.12820159  0.67938912  1
  H+  H178  1  0.38787845  0.48214511  0.82697013  1
  H+  H179  1  0.14234365  0.56399133  0.34748249  1
  H+  H180  1  0.14179170  0.02541654  0.83566662  1
  H+  H181  1  0.62064427  0.75058468  0.34741801  1
  H+  H182  1  0.77442003  0.39358789  0.67117692  1
  H+  H183  1  0.86889635  0.61865809  0.50161351  1
  H+  H184  1  0.63342836  0.60300236  0.51150893  1
  H+  H185  1  0.37105018  0.74236246  0.32242479  1
  H+  H186  1  0.13411636  0.56753089  0.85147383  1
  H+  H187  1  0.90400045  0.12944628  0.66228845  1
  H+  H188  1  0.35518644  0.43919945  0.33004398  1
  H+  H189  1  0.45752579  0.08656863  0.46818990  1
  H+  H190  1  0.38072387  0.01179057  0.83355934  1
  H+  H191  1  0.13198123  0.38671495  0.17991515  1
  H+  H192  1  0.85835368  0.99066926  0.34350726  1
  H+  H193  1  0.95981077  0.11628667  0.98185970  1
  H+  H194  1  0.61517171  0.72604431  0.82565841  1
  H+  H195  1  0.83028119  0.71195527  0.08827737  1
  H+  H196  1  0.02447191  0.87029215  0.67183436  1
  H+  H197  1  0.62503813  0.51893795  0.85486528  1
  H+  H198  1  0.05214897  0.73081458  0.37160693  1
  H+  H199  1  0.13436130  0.61511134  0.17815362  1
  H+  H200  1  0.25424140  0.89171998  0.32706551  1
  H+  H201  1  0.09146097  0.67526017  0.10760272  1
  H+  H202  1  0.47374259  0.86648077  0.16937167  1
  H+  H203  1  -0.00632342  0.11150241  0.83329302  1
  H+  H204  1  0.89452149  0.13771542  0.51016465  1
  H+  H205  1  0.62743751  0.76820302  0.67045940  1
  H+  H206  1  0.98212491  0.38676534  0.82731294  1
  H+  H207  1  0.77731990  0.39508219  0.00315632  1
  H+  H208  1  0.42759658  0.77779966  0.54153518  1
  H+  H209  1  0.84709536  0.91189978  0.49834743  1
  H+  H210  1  0.63579098  1.03217479  0.66449653  1
  H+  H211  1  0.11872647  0.72898392  0.01472962  1
  H+  H212  1  0.71954826  0.10191869  0.98339910  1
  H+  H213  1  0.47485191  0.61466558  -0.00587563  1
  H+  H214  1  0.88701568  0.76699952  0.65922487  1
  H+  H215  1  0.27592775  0.66299599  0.32418238  1
  H+  H216  1  0.89802643  0.01320396  0.83352410  1
  H+  H217  1  0.34142969  0.11041635  0.46382644  1
  H+  H218  1  0.61702414  0.98055758  0.34629941  1
  H+  H219  1  0.87231428  0.11839899  0.97404387  1
  H+  H220  1  0.62129764  0.11278177  0.83669299  1
  H+  H221  1  0.39661023  0.13074643  0.69513623  1
  H+  H222  1  0.22286605  0.34808371  0.50287374  1
  H+  H223  1  0.11224949  0.13165346  0.13977042  1
  H+  H224  1  0.62917995  0.10809324  0.32941580  1
  H+  H225  1  0.60724815  0.87727210  0.15850314  1
  H+  H226  1  0.12258500  0.26358802  0.84212527  1
  H+  H227  1  0.72768574  0.59050971  0.34831587  1
  H+  H228  1  0.16672541  0.32430610  0.56345380  1
  H+  H229  1  0.88723105  0.35717685  0.17618566  1
  H+  H230  1  0.16422656  0.04352426  0.14970444  1
  H+  H231  1  0.39465735  0.13317000  0.24220519  1
  H+  H232  1  0.21855844  0.09189363  0.50673032  1
  H+  H233  1  0.63517373  0.62502730  0.99607619  1
  H+  H234  1  0.50080538  0.38608590  -0.00539696  1
  H+  H235  1  0.09092427  0.95984168  0.00466667  1
  H+  H236  1  0.42022794  0.35331642  0.32338850  1
  H+  H237  1  0.37983819  0.75745359  0.01093584  1
  H+  H238  1  0.76449651  0.14129953  0.35080048  1
  H+  H239  1  0.96848619  0.12515860  0.33904441  1
  H+  H240  1  0.89571785  0.53283664  0.66922984  1
  H+  H241  1  0.40079445  0.50066245  0.50799712  1
  H+  H242  1  0.22864753  0.86240566  1.00438078  1
  H+  H243  1  0.13894471  0.86274838  0.00608302  1
  H+  H244  1  0.53302958  0.63400169  0.50564311  1
  H+  H245  1  0.61770472  0.62886240  0.32702901  1
  H+  H246  1  0.33035006  0.16206849  0.05478543  1
  H+  H247  1  0.37251328  -0.00156032  0.48573128  1
  H+  H248  1  0.61796104  0.63780255  0.83645479  1
  H+  H249  1  0.52816567  0.67439716  0.36625563  1
  H+  H250  1  0.17488928  0.85355810  0.91218106  1
  H+  H251  1  0.65904972  0.46314344  0.36813743  1
  H+  H252  1  0.96523568  0.35026949  0.34139285  1
  H+  H253  1  0.89507322  0.85850328  0.84490191  1
  H+  H254  1  0.63107960  0.42736650  0.16248345  1
  H+  H255  1  0.37123607  0.96768898  0.01047863  1
  H+  H256  1  0.12712650  0.46100974  0.79984320  1
  H+  H257  1  0.12901283  0.48063420  0.02082418  1
  H+  H258  1  0.23521524  0.38273359  0.17845696  1
  H+  H259  1  0.99718843  0.98300901  0.28608147  1
  H+  H260  1  0.61777766  1.01309106  0.83304663  1
  H+  H261  1  0.69198058  0.21343896  0.04844173  1
  H+  H262  1  0.90832292  0.56194946  0.16282807  1
  H+  H263  1  0.11911410  0.13626455  0.82435853  1
  H+  H264  1  0.37456778  0.53173637  0.20860156  1
  H+  H265  1  0.84139442  0.17960737  0.77831713  1
  H+  H266  1  0.12014426  0.63994061  0.01981468  1
  H+  H267  1  0.09551915  0.35784661  0.38348133  1
  H+  H268  1  0.23063654  0.61456614  1.00331969  1
  H+  H269  1  0.85607250  0.24051712  0.51621485  1
  H+  H270  1  0.10160688  0.85199696  0.68182591  1
  H+  H271  1  0.14338805  0.36241788  0.65815065  1
  H+  H272  1  0.87866942  1.04349305  0.50490906  1
  H+  H273  1  0.11408429  0.34732511  0.83546609  1
  H+  H274  1  0.56067533  0.39304691  0.34407793  1
  H+  H275  1  0.07015024  0.67261133  0.75379372  1
  H+  H276  1  0.60600060  0.73089652  1.00218892  1
  H+  H277  1  0.19438368  1.06444051  0.34949057  1
  H+  H278  1  0.63536130  0.36491149  0.66323847  1
  H+  H279  1  0.34754337  0.63492084  0.54058858  1
  H+  H280  1  1.02787715  0.38799016  0.17543845  1
  H+  H281  1  0.11429792  0.26477543  0.98838463  1
  H+  H282  1  0.64180161  0.24789654  0.01115527  1
  H+  H283  1  0.63052578  0.09406453  0.17638408  1
  H+  H284  1  0.63290204  0.49948683  0.00581172  1
  H+  H285  1  0.57681721  0.14578980  0.10389725  1
  H+  H286  1  0.51904316  0.89187840  0.82493939  1
  H+  H287  1  0.59478538  0.18726096  0.16864927  1
  H+  H288  1  0.16038882  0.59076245  0.24094613  1
  H+  H289  1  0.43859756  0.35928136  0.22961781  1
  H+  H290  1  0.81620080  0.40503067  0.44020457  1
  H+  H291  1  0.90724369  0.57980228  0.27238733  1
  H+  H292  1  0.84529941  0.91236345  0.76872255  1
  H+  H293  1  0.30184937  0.85395339  0.46083816  1
  H+  H294  1  0.17556463  0.85109154  0.23191515  1
  H+  H295  1  0.63599980  0.87336080  0.81933612  1
  H+  H296  1  0.15216980  0.57721679  0.95358126  1
  H+  H297  1  0.06206482  0.15973548  0.05492106  1
  H+  H298  1  0.90907312  0.56920587  0.57633607  1
  H+  H299  1  0.35496526  0.66444130  0.75207320  1
  H+  H300  1  0.64056269  0.87300285  0.32994770  1
  H+  H301  1  0.38527270  0.23276721  0.83196037  1
  H+  H302  1  0.42016300  0.84503460  0.59364331  1
  H+  H303  1  0.91660024  0.32918720  0.23658445  1
  H+  H304  1  0.66690973  0.07996826  0.27270661  1
  H+  H305  1  0.93006051  0.78740569  0.93093083  1
  H+  H306  1  0.95484803  0.88581178  0.26360988  1
  H+  H307  1  0.41984180  0.84511526  0.23046661  1
  H+  H308  1  0.58225175  0.91260389  0.09958149  1
  H+  H309  1  0.76963533  0.63440937  0.82891969  1
  H+  H310  1  0.12825142  0.09146797  0.51356966  1
  H+  H311  1  0.58499165  0.65823140  0.73811442  1
  H+  H312  1  0.36934102  0.97747470  0.39214668  1
  H+  H313  1  0.57622484  0.39895815  0.44748503  1
  H+  H314  1  0.40865783  0.57304176  0.93904152  1
  H+  H315  1  0.43848659  0.27894754  0.29961746  1
  H+  H316  1  0.28593723  0.13122071  0.32135212  1
  H+  H317  1  0.17148656  0.06997573  0.60703243  1
  H+  H318  1  0.70889125  0.34832466  0.51046737  1
  H+  H319  1  0.04314787  0.38545297  0.46759477  1
  H+  H320  1  0.66376853  0.31560672  0.27187217  1
  H+  H321  1  0.80562248  0.62856071  0.45451907  1
  H+  H322  1  0.28991211  0.14368798  0.42427460  1
  H+  H323  1  0.57602977  0.15874583  0.39971292  1
  H+  H324  1  0.65905345  0.83492807  0.61552460  1
  H+  H325  1  1.03547638  0.65442247  0.16859165  1
  H+  H326  1  0.47357836  0.85681275  1.00406420  1
  H+  H327  1  0.35088000  0.41065134  0.76466033  1
  H+  H328  1  0.46428285  0.36009978  0.89550303  1
  H+  H329  1  0.14247473  0.32641625  0.92409749  1
  H+  H330  1  0.56401062  0.40742890  0.73843066  1
  H+  H331  1  0.57966253  0.92936806  0.76421577  1
  H+  H332  1  0.66100140  0.82701954  0.23348069  1
  H+  H333  1  0.57465534  0.67038964  0.06205209  1
  H+  H334  1  0.49247538  0.10159060  0.98910852  1
  H+  H335  1  0.60111509  0.43937915  0.06400799  1
  H+  H336  1  0.88634840  0.75488955  0.18209429  1
  H+  H337  1  0.82215887  0.92873032  0.43236811  1
  H+  H338  1  0.60198142  0.13135299  0.49445087  1
  H+  H339  1  0.91746018  0.82543697  0.59961435  1
  H+  H340  1  0.66114684  0.33119407  0.60273486  1
  H+  H341  1  0.41499223  0.06683595  0.89465406  1
  H+  H342  1  0.06443698  0.66072654  0.44609188  1
  H+  H343  1  0.91287780  0.33479842  0.93008323  1
  H+  H344  1  0.11061461  0.47804902  0.66113115  1
  H+  H345  1  0.91587367  0.10461653  0.27674044  1
  H+  H346  1  0.58713691  0.17339212  0.76925781  1
  H+  H347  1  0.91645010  0.57893315  0.89371839  1
  H+  H348  1  0.83264132  0.19295160  0.45061716  1
  H+  H349  1  0.33530859  0.66451639  0.07607520  1
  H+  H350  1  0.07686348  0.40423629  0.74409905  1
  H+  H351  1  0.47576686  0.13552868  0.57998067  1
  H+  H352  1  0.84407680  0.47316164  0.82519847  1
  H+  H353  1  0.65945547  0.56931806  0.56872134  1
  H+  H354  1  0.43060573  0.12754175  0.58132910  1
  H+  H355  1  0.66986016  0.58740542  0.90893261  1
  H+  H356  1  0.63643771  0.52187494  0.66716250  1
  H+  H357  1  0.93441195  0.10643137  0.60076888  1
  H+  H358  1  0.83185379  0.66678835  0.73354229  1
  H+  H359  1  0.33200595  0.39348969  0.43216416  1
  H+  H360  1  1.02766943  0.88839967  0.82629316  1
  H+  H361  1  0.60340295  0.88894637  0.67771878  1
  H+  H362  1  0.70991234  0.36415418  0.83848595  1
  H+  H363  1  0.35544345  0.43420166  0.09681130  1
  H+  H364  1  0.81424577  0.39735771  0.09675144  1
  H+  H365  1  0.36942907  0.61362335  0.66607583  1
  H+  H366  1  0.52140822  0.89635573  0.50277587  1
  H+  H367  1  0.08707928  0.16462927  0.76399015  1
  H+  H368  1  0.91912687  0.08408312  0.89239079  1
  H+  H369  1  0.62015541  0.14664000  0.67524861  1
  H+  H370  1  0.59995041  0.96906195  0.00034113  1
  H+  H371  1  0.82118925  0.15966990  0.05337548  1
  H+  H372  1  0.79872529  0.92735441  0.06177665  1
  H+  H373  1  0.10266516  0.41573818  0.07685778  1
  H+  H374  1  0.33015115  0.17135974  0.74052188  1
  H+  H375  1  0.16257346  0.31326731  0.22582782  1
  H+  H376  1  0.58303342  0.91935336  0.40511989  1
  H+  H377  1  0.66378647  0.83430653  0.92982029  1
  H+  H378  1  0.11754686  0.48421911  0.17869711  1
  H+  H379  1  0.59600275  0.68279880  0.44988343  1
  H+  H380  1  0.42871307  0.55356231  0.57050729  1
  H+  H381  1  0.66504429  0.33801324  0.93320721  1
  H+  H382  1  0.31559355  0.69696715  0.41564243  1
  H+  H383  1  0.66152882  0.60326527  0.22902876  1
  O2-  O384  1  0.06860215  0.14960800  0.13037720  1
  O2-  O385  1  0.08697787  0.14341083  0.48951683  1
  O2-  O386  1  0.08467238  0.16279745  0.81033423  1
  O2-  O387  1  0.09166699  0.42078312  0.16562392  1
  O2-  O388  1  0.05149712  0.34066887  0.44962214  1
  O2-  O389  1  0.07898563  0.40433301  0.79054501  1
  O2-  O390  1  0.09536622  0.67758321  0.15348599  1
  O2-  O391  1  0.06798192  0.65951933  0.49077043  1
  O2-  O392  1  0.05340066  0.66878478  0.79821016  1
  O2-  O393  1  0.08144614  0.92812141  0.14553803  1
  O2-  O394  1  0.09393825  0.90485575  0.50454484  1
  O2-  O395  1  0.08835470  0.92428354  0.81172727  1
  O2-  O396  1  0.27091390  0.15224359  0.12468015  1
  O2-  O397  1  0.30998558  0.14296787  0.46637928  1
  O2-  O398  1  0.34426469  0.17332847  0.81929026  1
  O2-  O399  1  0.34865020  0.43590210  0.15174157  1
  O2-  O400  1  0.32688948  0.39508287  0.47690981  1
  O2-  O401  1  0.36579988  0.41967254  0.81177359  1
  O2-  O402  1  0.33305063  0.66973666  0.14769909  1
  O2-  O403  1  0.29235533  0.71028923  0.45224145  1
  O2-  O404  1  0.35704527  0.66611800  0.79793565  1
  O2-  O405  1  0.33044414  0.92218858  0.14550116  1
  O2-  O406  1  0.31490787  0.88099761  0.50094129  1
  O2-  O407  1  0.32384248  0.89947296  0.81319847  1
  O2-  O408  1  0.56454176  0.13091275  0.14742817  1
  O2-  O409  1  0.56966441  0.15719736  0.47534121  1
  O2-  O410  1  0.58013191  0.16708883  0.81473891  1
  O2-  O411  1  0.59597200  0.44821627  0.14358795  1
  O2-  O412  1  0.56503567  0.39879683  0.49168760  1
  O2-  O413  1  0.55100310  0.40357868  0.82745191  1
  O2-  O414  1  0.56764440  0.65870810  0.13970021  1
  O2-  O415  1  0.59416855  0.67889916  0.49461390  1
  O2-  O416  1  0.58412748  0.66307861  0.81838169  1
  O2-  O417  1  0.58166436  0.91237773  0.14474732  1
  O2-  O418  1  0.58029278  0.92507066  0.48452342  1
  O2-  O419  1  0.58212872  0.92829845  0.81040431  1
  O2-  O420  1  0.82735345  0.16453964  0.13711323  1
  O2-  O421  1  0.83032562  0.18422201  0.49524934  1
  O2-  O422  1  0.84250138  0.18441068  0.82301708  1
  O2-  O423  1  0.80111795  0.38084048  0.14147382  1
  O2-  O424  1  0.80573188  0.39733779  0.48435500  1
  O2-  O425  1  0.81323188  0.41109690  0.81246943  1
  O2-  O426  1  0.85391672  0.69149567  0.16173055  1
  O2-  O427  1  0.85532517  0.66067396  0.48119904  1
  O2-  O428  1  0.82879493  0.66393756  0.81232713  1
  O2-  O429  1  0.80852173  0.86068035  0.11513465  1
  O2-  O430  1  0.81337839  0.93265518  0.47737950  1
  O2-  O431  1  0.84903905  0.92030947  0.81567322  1
  O2-  O432  1  0.18804724  0.10621559  0.15798810  1
  O2-  O433  1  0.16122142  0.06120805  0.52816969  1
  O2-  O434  1  0.17001997  0.08512726  0.85392651  1
  O2-  O435  1  0.17266363  0.34889206  0.18717234  1
  O2-  O436  1  0.16259397  0.31616241  0.51878743  1
  O2-  O437  1  0.14239582  0.32179208  0.85959098  1
  O2-  O438  1  0.16018425  0.58156659  0.19641589  1
  O2-  O439  1  0.15354737  0.58465678  0.51610153  1
  O2-  O440  1  0.09575721  0.55939861  0.88515157  1
  O2-  O441  1  0.16840835  0.84698120  0.18688729  1
  O2-  O442  1  0.15277350  0.81143794  0.54389583  1
  O2-  O443  1  0.18878048  0.86974776  0.86881370  1
  O2-  O444  1  0.40013875  0.09188260  0.18080994  1
  O2-  O445  1  0.39517826  0.04900233  0.45878960  1
  O2-  O446  1  0.41231512  0.07160337  0.84988788  1
  O2-  O447  1  0.43077307  0.36713600  0.18508330  1
  O2-  O448  1  0.39922304  0.30651349  0.52282407  1
  O2-  O449  1  0.46134477  0.35229198  0.84989420  1
  O2-  O450  1  0.39498115  0.52864703  0.16650786  1
  O2-  O451  1  0.44061446  0.55713286  0.52651814  1
  O2-  O452  1  0.42054429  0.57234871  0.85342045  1
  O2-  O453  1  0.41384955  0.83959588  0.18525889  1
  O2-  O454  1  0.42415498  0.83020462  0.54107604  1
  O2-  O455  1  0.42682945  0.83590302  0.84668262  1
  O2-  O456  1  0.66978233  0.07433592  0.19206118  1
  O2-  O457  1  0.66085483  0.09017358  0.52793397  1
  O2-  O458  1  0.64726323  0.07655069  0.85146029  1
  O2-  O459  1  0.64258843  0.29358235  0.19243053  1
  O2-  O460  1  0.64887541  0.31649814  0.52885223  1
  O2-  O461  1  0.65036130  0.33354234  0.85666536  1
  O2-  O462  1  0.67215767  0.60481491  0.18441680  1
  O2-  O463  1  0.65226716  0.56224999  0.52402022  1
  O2-  O464  1  0.66229782  0.58070684  0.86372018  1
  O2-  O465  1  0.65300906  0.81796053  0.18850877  1
  O2-  O466  1  0.65482038  0.83999370  0.53615169  1
  O2-  O467  1  0.66809643  0.84113182  0.81480077  1
  O2-  O468  1  0.92168506  0.11226470  0.20588817  1
  O2-  O469  1  0.92079259  0.10157986  0.51932619  1
  O2-  O470  1  0.92992473  0.07724461  0.84713234  1
  O2-  O471  1  0.92309738  0.33374270  0.19136084  1
  O2-  O472  1  0.90370553  0.33188768  0.57160347  1
  O2-  O473  1  0.94656512  0.39393707  0.85859275  1
  O2-  O474  1  0.92916588  0.60805335  0.19260978  1
  O2-  O475  1  0.90511443  0.56036540  0.53122890  1
  O2-  O476  1  0.90407470  0.57529469  0.84945350  1
  O2-  O477  1  0.92595425  0.84122417  0.20340351  1
  O2-  O478  1  0.92731559  0.81588366  0.51372717  1
  O2-  O479  1  0.92544011  0.82665468  0.85483370  1
  O2-  O480  1  0.23976707  0.12753427  0.34765882  1
  O2-  O481  1  0.17339388  0.07123587  0.65251454  1
  O2-  O482  1  0.13083532  0.07061609  0.97191222  1
  O2-  O483  1  0.14064018  0.24681863  0.28207829  1
  O2-  O484  1  0.17806868  0.33461911  0.64930179  1
  O2-  O485  1  0.14752870  0.32628640  0.97270197  1
  O2-  O486  1  0.16019377  0.61329857  0.32070686  1
  O2-  O487  1  0.16417196  0.58683156  0.64418157  1
  O2-  O488  1  0.16703588  0.58214629  0.99755295  1
  O2-  O489  1  0.19385691  0.85876551  0.31093700  1
  O2-  O490  1  0.13760667  0.77157014  0.66716988  1
  O2-  O491  1  0.16809419  0.83166314  0.99004516  1
  O2-  O492  1  0.41433508  0.11651028  0.32788913  1
  O2-  O493  1  0.43021694  0.09929136  0.70268705  1
  O2-  O494  1  0.43158513  0.07474914  0.97895575  1
  O2-  O495  1  0.46139802  0.34197800  0.30010201  1
  O2-  O496  1  0.41011567  0.32675611  0.64553809  1
  O2-  O497  1  0.44013982  0.35549832  0.97841849  1
  O2-  O498  1  0.37287286  0.55949620  0.28573337  1
  O2-  O499  1  0.42000119  0.56526966  0.65300586  1
  O2-  O500  1  0.41170512  0.57837329  0.98397292  1
  O2-  O501  1  0.42676553  0.85294909  0.30921800  1
  O2-  O502  1  0.41794979  0.86409758  0.64798015  1
  O2-  O503  1  0.40827718  0.82146530  0.99581711  1
  O2-  O504  1  0.66530192  0.08187255  0.31807188  1
  O2-  O505  1  0.66676047  0.09326721  0.65106288  1
  O2-  O506  1  0.65677916  0.07230406  0.96958130  1
  O2-  O507  1  0.67496729  0.31898563  0.31607868  1
  O2-  O508  1  0.66734643  0.33655624  0.64875693  1
  O2-  O509  1  0.67175764  0.34154206  0.97876366  1
  O2-  O510  1  0.63561455  0.59101339  0.30554888  1
  O2-  O511  1  0.66541519  0.58117233  0.65065970  1
  O2-  O512  1  0.67588332  0.60382447  0.98623106  1
  O2-  O513  1  0.66894534  0.84089174  0.31356286  1
  O2-  O514  1  0.65680638  0.83101164  0.66101978  1
  O2-  O515  1  0.65321144  0.83186749  0.97341873  1
  O2-  O516  1  0.91007270  0.09719980  0.32304257  1
  O2-  O517  1  0.94051505  0.10731537  0.64557183  1
  O2-  O518  1  0.90260878  0.08673998  0.96106269  1
  O2-  O519  1  0.91300795  0.32498525  0.31690810  1
  O2-  O520  1  0.91270959  0.33404011  0.63082324  1
  O2-  O521  1  0.89789364  0.31665448  0.97287743  1
  O2-  O522  1  0.90309981  0.57495945  0.31738945  1
  O2-  O523  1  0.92127365  0.59176050  0.65195645  1
  O2-  O524  1  0.93099884  0.59092324  0.97560169  1
  O2-  O525  1  0.97028653  0.92505411  0.30282475  1
  O2-  O526  1  0.92020530  0.82820618  0.64438186  1
  O2-  O527  1  0.93615207  0.76609748  0.97125323  1
  O2-  O528  1  0.06138630  0.16628859  0.00940491  1
  O2-  O529  1  0.22393785  0.25164045  0.29270821  1
  O2-  O530  1  0.09251461  0.16958959  0.69022682  1
  O2-  O531  1  0.10501288  0.41882661  0.03235389  1
  O2-  O532  1  0.12307519  0.36366746  0.34215482  1
  O2-  O533  1  0.08306063  0.41584053  0.67253147  1
  O2-  O534  1  0.08705240  0.66892707  0.03149872  1
  O2-  O535  1  0.05617222  0.67981751  0.36257002  1
  O2-  O536  1  0.09006428  0.67737546  0.68085174  1
  O2-  O537  1  0.07616243  0.90487151  0.02435674  1
  O2-  O538  1  0.12389334  0.96083419  0.35796459  1
  O2-  O539  1  0.08441139  0.89595757  0.68807115  1
  O2-  O540  1  0.36357307  0.17514153  0.01624122  1
  O2-  O541  1  0.39459125  0.16341077  0.28236076  1
  O2-  O542  1  0.33389734  0.16700114  0.69543558  1
  O2-  O543  1  0.35760060  0.43023152  0.04111614  1
  O2-  O544  1  0.34972212  0.38759715  0.34942926  1
  O2-  O545  1  0.33379396  0.40285707  0.69968798  1
  O2-  O546  1  0.33634849  0.66658471  0.02931077  1
  O2-  O547  1  0.33624193  0.68008902  0.33337877  1
  O2-  O548  1  0.34283995  0.65096491  0.67647198  1
  O2-  O549  1  0.33732900  0.90891999  0.02759611  1
  O2-  O550  1  0.35739221  0.95348507  0.35011238  1
  O2-  O551  1  0.34437381  0.95592763  0.65650767  1
  O2-  O552  1  0.63471370  0.19428571  0.03190949  1
  O2-  O553  1  0.57610225  0.15865948  0.35376883  1
  O2-  O554  1  0.59190422  0.17870232  0.69276099  1
  O2-  O555  1  0.60241153  0.43746448  0.01884152  1
  O2-  O556  1  0.60905756  0.40290877  0.37094442  1
  O2-  O557  1  0.57331802  0.41157761  0.69408040  1
  O2-  O558  1  0.57546706  0.66980401  0.01659513  1
  O2-  O559  1  0.58854395  0.69049729  0.36610100  1
  O2-  O560  1  0.58302187  0.66038663  0.69291046  1
  O2-  O561  1  0.56986645  0.90956250  0.01747343  1
  O2-  O562  1  0.58632509  0.91880508  0.35963011  1
  O2-  O563  1  0.57859365  0.92517067  0.69084654  1
  O2-  O564  1  0.81581210  0.15838689  0.00832050  1
  O2-  O565  1  0.82432880  0.17525768  0.36758620  1
  O2-  O566  1  0.83831998  0.17047638  0.69106028  1
  O2-  O567  1  0.83451794  0.41954112  0.02369801  1
  O2-  O568  1  0.83613665  0.41531878  0.35635672  1
  O2-  O569  1  0.83352918  0.42222388  0.68900992  1
  O2-  O570  1  0.81184990  0.73205423  0.05182220  1
  O2-  O571  1  0.75096954  0.56082793  0.37259442  1
  O2-  O572  1  0.83225378  0.66711114  0.68805677  1
  O2-  O573  1  0.77839063  0.95209866  0.02992736  1
  O2-  O574  1  0.83453580  0.92925266  0.35582611  1
  O2-  O575  1  0.83076294  0.89741028  0.70093338  1
