# generated using pymatgen
data_H2O
_symmetry_space_group_name_H-M   'P 1'
_cell_length_a   17.99010242
_cell_length_b   17.99058674
_cell_length_c   22.00105302
_cell_angle_alpha   89.99809347
_cell_angle_beta   90.04281104
_cell_angle_gamma   119.98064230
_symmetry_Int_Tables_number   1
_chemical_formula_structural   H2O
_chemical_formula_sum   'H384 O192'
_cell_volume   6167.90376597
_cell_formula_units_Z   192
loop_
 _symmetry_equiv_pos_site_id
 _symmetry_equiv_pos_as_xyz
  1  'x, y, z'
loop_
 _atom_type_symbol
 _atom_type_oxidation_number
  H+  1.0
  O2-  -2.0
loop_
 _atom_site_type_symbol
 _atom_site_label
 _atom_site_symmetry_multiplicity
 _atom_site_fract_x
 _atom_site_fract_y
 _atom_site_fract_z
 _atom_site_occupancy
  H+  H0  1  0.12814371  0.40076948  0.33179227  1
  H+  H1  1  0.65166519  0.86635583  0.99770427  1
  H+  H2  1  0.56968080  0.14533728  0.58880630  1
  H+  H3  1  0.10374358  0.83609157  0.52201962  1
  H+  H4  1  0.72232357  0.35001193  0.84600081  1
  H+  H5  1  0.86291875  0.03058135  0.32503444  1
  H+  H6  1  0.25982048  0.37446193  0.65946165  1
  H+  H7  1  0.60486650  0.87438998  0.67832100  1
  H+  H8  1  0.52796444  0.64545618  0.48972716  1
  H+  H9  1  0.61497417  0.89200505  0.48458059  1
  H+  H10  1  0.65450676  0.11916727  0.98412167  1
  H+  H11  1  0.36556957  0.74087458  0.16753665  1
  H+  H12  1  0.01640500  0.13442602  0.83189176  1
  H+  H13  1  0.96726221  0.35928324  0.66685974  1
  H+  H14  1  0.29019921  0.90310645  0.34986545  1
  H+  H15  1  0.70140558  0.35242411  0.49639812  1
  H+  H16  1  0.01168901  0.12719015  0.67593453  1
  H+  H17  1  0.67447487  0.60663694  0.27057545  1
  H+  H18  1  0.96219173  0.59648453  0.50222541  1
  H+  H19  1  0.38511856  0.77354156  0.33191014  1
  H+  H20  1  0.25120256  0.61977524  1.01204026  1
  H+  H21  1  0.42722119  0.58186958  1.09890847  1
  H+  H22  1  0.12868967  0.98820736  0.34365955  1
  H+  H23  1  0.04595291  0.39765005  0.16289887  1
  H+  H24  1  0.36109570  0.97262096  0.67376879  1
  H+  H25  1  0.13497096  0.11698450  0.66383040  1
  H+  H26  1  0.37457101  0.98046991  0.83069404  1
  H+  H27  1  0.34831274  0.63147675  0.81695353  1
  H+  H28  1  0.88629565  0.10283017  1.00246697  1
  H+  H29  1  0.98082100  0.27196248  0.20317223  1
  H+  H30  1  0.85386103  0.87837312  0.66772828  1
  H+  H31  1  0.72393393  0.86185447  0.83932308  1
  H+  H32  1  0.36231470  0.88394757  0.67782096  1
  H+  H33  1  0.11192870  0.98712570  0.68044234  1
  H+  H34  1  0.87615339  1.01733616  0.66071748  1
  H+  H35  1  0.90597085  0.29422679  0.33192170  1
  H+  H36  1  0.53744786  0.88622937  0.00260119  1
  H+  H37  1  0.87075400  0.87947837  1.00174311  1
  H+  H38  1  0.77882568  0.63879014  0.34197391  1
  H+  H39  1  0.13923640  0.65178891  1.02181511  1
  H+  H40  1  0.14403612  0.53412676  0.17340219  1
  H+  H41  1  0.78192571  0.63831048  0.00152036  1
  H+  H42  1  0.48238819  0.35295617  0.83638419  1
  H+  H43  1  0.34594629  0.16974692  0.76264344  1
  H+  H44  1  0.62580121  0.51545328  0.83468223  1
  H+  H45  1  0.59801229  0.00153455  0.32200636  1
  H+  H46  1  0.02246752  0.88634867  0.48939467  1
  H+  H47  1  0.82712137  0.16094818  0.73570438  1
  H+  H48  1  0.00753926  0.62823594  0.65568628  1
  H+  H49  1  0.85995906  0.13497045  0.83099095  1
  H+  H50  1  0.85556991  0.70573442  0.83126922  1
  H+  H51  1  0.97133227  0.11046590  0.50988157  1
  H+  H52  1  0.64756758  0.61174149  0.98671608  1
  H+  H53  1  0.88655899  0.10330883  0.16370991  1
  H+  H54  1  0.21870775  0.35565998  0.83849460  1
  H+  H55  1  0.40334672  0.52672896  0.31567802  1
  H+  H56  1  0.81058884  0.89544268  0.14192167  1
  H+  H57  1  0.10023893  0.37974705  0.67146474  1
  H+  H58  1  0.14622507  1.03382505  0.16206002  1
  H+  H59  1  0.60600455  0.14508315  0.15489674  1
  H+  H60  1  0.16813113  0.37949187  0.49128701  1
  H+  H61  1  0.95619441  0.78679316  0.61958925  1
  H+  H62  1  0.12640579  0.60752611  0.65409535  1
  H+  H63  1  0.12850967  0.60498576  0.49975293  1
  H+  H64  1  0.55122427  0.05988466  0.29914543  1
  H+  H65  1  0.20866781  0.81049810  0.14711509  1
  H+  H66  1  0.21596025  0.11255608  0.50725170  1
  H+  H67  1  0.85795574  0.58297505  0.15786568  1
  H+  H68  1  0.08344245  0.16521466  0.06321738  1
  H+  H69  1  0.62340011  0.75973526  0.66308591  1
  H+  H70  1  0.87535278  0.51390858  0.66743862  1
  H+  H71  1  0.60042342  0.49749051  0.33580727  1
  H+  H72  1  0.59981394  0.63221458  0.83259321  1
  H+  H73  1  0.87761021  0.10735232  0.66421286  1
  H+  H74  1  0.48793047  0.87177544  0.84221840  1
  H+  H75  1  0.13871922  0.28900741  0.16732229  1
  H+  H76  1  0.72660779  0.10863198  0.50672434  1
  H+  H77  1  0.14047283  0.78859090  0.67589694  1
  H+  H78  1  0.90135728  0.56693213  0.90289002  1
  H+  H79  1  0.85381155  0.72050670  0.16347906  1
  H+  H80  1  0.89406170  0.26482896  0.99677465  1
  H+  H81  1  0.65806916  0.86129484  0.14961434  1
  H+  H82  1  0.41583494  0.12481733  -0.00435473  1
  H+  H83  1  0.14155724  0.88681901  -0.00989041  1
  H+  H84  1  0.15888209  0.02695205  0.98261871  1
  H+  H85  1  0.08123229  0.69396333  0.61452654  1
  H+  H86  1  0.23840641  0.86679530  0.84625253  1
  H+  H87  1  0.38901722  0.62811259  0.50199761  1
  H+  H88  1  0.61153073  0.18852193  0.38955616  1
  H+  H89  1  0.13593648  0.27495929  0.99434783  1
  H+  H90  1  0.66284362  0.82997810  0.60727365  1
  H+  H91  1  0.09775974  0.67654016  0.79995812  1
  H+  H92  1  0.10767296  0.36383804  0.82991578  1
  H+  H93  1  0.38876648  0.49893127  0.48351114  1
  H+  H94  1  0.89665024  0.39490277  0.13930863  1
  H+  H95  1  0.31480020  0.90180569  0.15264132  1
  H+  H96  1  0.90432101  0.57008483  0.56298647  1
  H+  H97  1  0.37199067  0.23173512  0.16644450  1
  H+  H98  1  0.38069878  0.76925191  0.66090834  1
  H+  H99  1  0.97664607  0.81597360  0.20135038  1
  H+  H100  1  0.63840383  0.01924819  0.16826574  1
  H+  H101  1  0.60547350  0.72469891  0.83829603  1
  H+  H102  1  0.61317849  0.97300583  0.82737685  1
  H+  H103  1  0.55699819  0.66606197  0.74903627  1
  H+  H104  1  0.62900340  0.72111156  0.01965081  1
  H+  H105  1  0.67304362  0.58352866  0.92501570  1
  H+  H106  1  0.42091380  0.01345086  0.32471320  1
  H+  H107  1  0.12815321  0.61538465  0.32848352  1
  H+  H108  1  0.35350631  0.73343463  0.49052417  1
  H+  H109  1  0.38715895  0.24918146  0.82919581  1
  H+  H110  1  0.11165490  0.01415938  0.83973200  1
  H+  H111  1  0.35291857  0.94390418  0.40970417  1
  H+  H112  1  0.38019625  0.64781884  0.03325911  1
  H+  H113  1  0.10800477  0.56437106  0.80916657  1
  H+  H114  1  0.61469735  0.29517994  0.33323159  1
  H+  H115  1  0.48167532  0.61983518  0.32082131  1
  H+  H116  1  0.84934827  0.44707858  0.14655453  1
  H+  H117  1  0.37507607  0.13812045  0.82361966  1
  H+  H118  1  1.00763338  0.89023903  0.83151586  1
  H+  H119  1  0.85604478  0.71829911  0.67974154  1
  H+  H120  1  0.01103812  0.04893651  0.37368194  1
  H+  H121  1  0.07174913  0.70491893  0.17377415  1
  H+  H122  1  0.72843548  0.60123836  0.65755972  1
  H+  H123  1  0.39992284  0.77531153  -0.00527536  1
  H+  H124  1  0.46027729  0.09632916  0.63765535  1
  H+  H125  1  0.11790428  0.47415983  1.01423944  1
  H+  H126  1  0.44997681  0.07376898  0.26318955  1
  H+  H127  1  0.61191291  0.63702637  0.48665552  1
  H+  H128  1  0.85476123  0.22066051  0.67681761  1
  H+  H129  1  0.57321323  0.61552539  0.69946891  1
  H+  H130  1  0.63601446  0.10521855  0.83614245  1
  H+  H131  1  0.90017889  0.02304910  0.17318080  1
  H+  H132  1  0.22124617  0.16581557  0.30335520  1
  H+  H133  1  0.85774354  0.22259041  0.83108825  1
  H+  H134  1  0.60760683  0.96459342  0.67587967  1
  H+  H135  1  0.39187296  0.28464858  0.98909503  1
  H+  H136  1  0.36077777  0.20828923  0.33885731  1
  H+  H137  1  0.09928841  0.90843062  -0.06317308  1
  H+  H138  1  0.59847740  0.38195705  0.47841437  1
  H+  H139  1  0.61239963  0.97761428  0.48709087  1
  H+  H140  1  0.59337768  0.91457364  0.09889637  1
  H+  H141  1  0.63540885  0.86194270  0.84344738  1
  H+  H142  1  0.46132416  0.24237221  0.04160945  1
  H+  H143  1  0.88156227  1.02563471  0.84081597  1
  H+  H144  1  0.16609427  0.34313084  0.25269651  1
  H+  H145  1  0.30263686  0.89782632  0.00921053  1
  H+  H146  1  0.62207152  0.87089961  0.32978406  1
  H+  H147  1  0.33620494  0.66908598  0.39696129  1
  H+  H148  1  0.39477520  0.87691782  0.84286460  1
  H+  H149  1  0.46456842  0.61484470  0.84317705  1
  H+  H150  1  0.19994971  0.83891047  0.12654214  1
  H+  H151  1  0.62487065  0.97660988  0.00344499  1
  H+  H152  1  0.23269665  0.87359546  0.67758673  1
  H+  H153  1  0.61263636  0.37663148  0.83054110  1
  H+  H154  1  0.10091417  0.29989450  0.59660832  1
  H+  H155  1  0.76175082  0.90133276  0.33762664  1
  H+  H156  1  0.14840701  0.87030534  0.34115827  1
  H+  H157  1  0.52763988  0.15416321  0.35121089  1
  H+  H158  1  0.63910467  0.25191625  0.64012723  1
  H+  H159  1  0.27184010  0.39105896  0.00685992  1
  H+  H160  1  0.54178028  0.88497415  0.16264152  1
  H+  H161  1  0.87646047  0.58999921  -0.00693561  1
  H+  H162  1  0.11283082  0.45208460  0.83764078  1
  H+  H163  1  -0.05390330  0.58424951  0.16011157  1
  H+  H164  1  0.84564343  0.80927070  0.86284707  1
  H+  H165  1  0.37430707  0.87530982  0.50981150  1
  H+  H166  1  0.39456050  0.99656320  0.16058560  1
  H+  H167  1  -0.02005753  0.35803270  -0.00089418  1
  H+  H168  1  0.84892635  0.36187750  -0.00173647  1
  H+  H169  1  0.77451422  0.16439274  0.34061424  1
  H+  H170  1  0.71439014  0.60390246  0.83127918  1
  H+  H171  1  0.13843266  0.79929319  0.84322059  1
  H+  H172  1  0.09830336  0.12315151  0.50064777  1
  H+  H173  1  0.72634571  0.32003364  0.61020008  1
  H+  H174  1  0.85128310  0.25967822  0.51679338  1
  H+  H175  1  0.76895343  0.38071021  0.68884464  1
  H+  H176  1  0.89100045  0.89395467  0.16984591  1
  H+  H177  1  0.35723270  0.13177546  0.66502841  1
  H+  H178  1  0.35994882  0.06428170  0.48303150  1
  H+  H179  1  0.61391210  0.38195898  0.32193379  1
  H+  H180  1  0.47000102  0.35841990  0.66042786  1
  H+  H181  1  0.39911245  0.38362761  0.50567750  1
  H+  H182  1  0.36290583  0.63871046  0.33566530  1
  H+  H183  1  0.28340057  0.14383024  0.15805477  1
  H+  H184  1  0.12013899  0.11552731  0.83968896  1
  H+  H185  1  0.62174375  0.36744513  0.16609711  1
  H+  H186  1  0.84775869  0.61355010  0.82928477  1
  H+  H187  1  0.85267855  0.14606325  0.33686381  1
  H+  H188  1  0.38412854  0.43054148  0.39205841  1
  H+  H189  1  0.61507449  0.62045945  0.15873805  1
  H+  H190  1  0.26417619  0.64324296  0.81163701  1
  H+  H191  1  0.34261287  0.47219283  0.81822797  1
  H+  H192  1  0.60874279  0.73421359  0.34056982  1
  H+  H193  1  0.37789328  0.36607129  -0.01576920  1
  H+  H194  1  0.62100621  0.54204289  0.12918628  1
  H+  H195  1  0.42024329  0.88326441  0.17873614  1
  H+  H196  1  0.09773044  0.63158908  0.16727732  1
  H+  H197  1  0.38127902  0.28754307  0.50505296  1
  H+  H198  1  0.64092687  0.59497682  0.63722487  1
  H+  H199  1  0.72140556  0.10113168  0.66352412  1
  H+  H200  1  0.09562094  0.67733223  0.07483034  1
  H+  H201  1  0.86490415  0.49710263  0.34693103  1
  H+  H202  1  0.98355552  0.86040147  0.33393109  1
  H+  H203  1  0.11589633  0.13788510  0.00376216  1
  H+  H204  1  0.89693347  0.76945160  0.33584334  1
  H+  H205  1  0.16565523  0.78153263  1.00782038  1
  H+  H206  1  0.48711959  0.61013312  0.04166972  1
  H+  H207  1  0.25801170  0.37622216  0.16552122  1
  H+  H208  1  0.98957548  0.11225071  0.34078216  1
  H+  H209  1  0.86194402  0.89002056  0.48532292  1
  H+  H210  1  0.02849818  0.90696103  0.12686266  1
  H+  H211  1  0.41305251  0.03395668  0.99147080  1
  H+  H212  1  0.12576080  0.51680498  0.66224556  1
  H+  H213  1  0.97759111  0.10604879  0.99703412  1
  H+  H214  1  0.35441802  0.11863059  0.35143454  1
  H+  H215  1  0.60195733  0.23261014  0.15811214  1
  H+  H216  1  0.88020485  0.59817480  0.34376182  1
  H+  H217  1  0.87296081  0.60155152  0.66284913  1
  H+  H218  1  0.11013200  0.25673086  0.65627945  1
  H+  H219  1  0.82719922  0.36952270  0.50036758  1
  H+  H220  1  0.85759910  0.46593427  0.83684103  1
  H+  H221  1  0.55171389  0.15786863  -0.01119992  1
  H+  H222  1  0.86556073  0.98119673  0.49128040  1
  H+  H223  1  0.13398766  0.36313036  0.99659381  1
  H+  H224  1  0.02743869  0.13932027  0.15578566  1
  H+  H225  1  0.51199043  0.88517367  0.34277605  1
  H+  H226  1  0.62389835  0.64954772  0.06709613  1
  H+  H227  1  0.88346008  0.77369644  0.50050424  1
  H+  H228  1  0.86209957  0.63578984  0.49462778  1
  H+  H229  1  0.19447951  0.83498875  0.94397688  1
  H+  H230  1  0.87741059  0.90902011  0.81419004  1
  H+  H231  1  0.22524822  0.11717391  0.66408244  1
  H+  H232  1  0.89104239  0.76392750  0.00067765  1
  H+  H233  1  0.09043882  0.70673435  0.49491866  1
  H+  H234  1  0.60817832  0.36900568  0.67123008  1
  H+  H235  1  0.36909001  0.36513033  0.17337044  1
  H+  H236  1  0.71198960  0.12012430  0.17431299  1
  H+  H237  1  0.25158379  0.62100008  0.66772035  1
  H+  H238  1  0.51565966  0.39074616  0.48789191  1
  H+  H239  1  0.72586853  0.10680819  0.83551743  1
  H+  H240  1  0.87136206  0.97555619  0.00117833  1
  H+  H241  1  0.27082011  0.65643980  0.16334426  1
  H+  H242  1  -0.01167899  0.86498290  0.66305028  1
  H+  H243  1  0.45326585  0.60475471  0.66767021  1
  H+  H244  1  0.61552597  0.22232813  0.82384266  1
  H+  H245  1  0.24055613  0.12154555  -0.01454567  1
  H+  H246  1  0.45513716  0.43313505  0.34742610  1
  H+  H247  1  0.22378128  0.62544410  0.32742396  1
  H+  H248  1  0.83708328  0.46364018  0.49432638  1
  H+  H249  1  0.10827730  0.22278865  0.83159139  1
  H+  H250  1  0.10358095  0.84923729  0.18490380  1
  H+  H251  1  0.35073185  0.37855639  0.66507689  1
  H+  H252  1  0.44101322  0.59132131  0.22552211  1
  H+  H253  1  0.63472391  0.51894421  0.49172097  1
  H+  H254  1  0.85976393  0.37693486  0.83759369  1
  H+  H255  1  0.82894751  0.41228444  0.74819262  1
  H+  H256  1  0.11823562  0.14296743  0.15272223  1
  H+  H257  1  0.95960191  0.61083280  0.84137586  1
  H+  H258  1  0.36226851  0.47433374  0.02739166  1
  H+  H259  1  0.30241040  0.40809599  0.47797502  1
  H+  H260  1  0.76149557  0.87096811  0.67128596  1
  H+  H261  1  0.85532601  0.23834921  0.16611690  1
  H+  H262  1  0.27158387  0.63988557  0.48802325  1
  H+  H263  1  0.74582100  0.39299802  0.34195434  1
  H+  H264  1  0.87929859  0.35966725  0.67433346  1
  H+  H265  1  0.48692332  0.12364450  0.17112473  1
  H+  H266  1  0.52021593  0.39547996  -0.01070084  1
  H+  H267  1  0.74247099  0.88934754  0.51446728  1
  H+  H268  1  0.77233265  0.87882153  0.99787076  1
  H+  H269  1  0.61559327  0.47394548  0.99200755  1
  H+  H270  1  0.82244102  0.65492077  0.73773832  1
  H+  H271  1  0.98042898  0.59751780  0.34656394  1
  H+  H272  1  0.36282827  0.22393214  0.66851132  1
  H+  H273  1  0.77777973  0.13008850  0.00476925  1
  H+  H274  1  0.48008897  0.11213691  0.83693247  1
  H+  H275  1  0.11794152  0.90127603  0.68759059  1
  H+  H276  1  0.50624123  0.10954088  0.50000533  1
  H+  H277  1  0.40463170  0.86797724  0.99357524  1
  H+  H278  1  0.09814367  0.92918119  0.40423605  1
  H+  H279  1  0.11416529  0.96983989  0.49956884  1
  H+  H280  1  0.86003580  0.49416874  -0.01329081  1
  H+  H281  1  0.12638576  0.28381261  0.31234418  1
  H+  H282  1  1.00024015  0.37749991  0.32716165  1
  H+  H283  1  0.91733319  0.82355527  0.24826254  1
  H+  H284  1  0.33949398  0.32090503  0.32119419  1
  H+  H285  1  0.36783094  0.51293127  0.65600248  1
  H+  H286  1  0.39336914  0.11437935  0.18131877  1
  H+  H287  1  0.97130126  0.35095336  0.84396708  1
  H+  H288  1  0.77323759  0.63606265  0.49049173  1
  H+  H289  1  0.65380008  0.30260199  0.89983428  1
  H+  H290  1  0.91359751  0.83913582  0.55629214  1
  H+  H291  1  0.94508165  0.32082885  0.24561346  1
  H+  H292  1  0.79879439  0.40189100  0.40363023  1
  H+  H293  1  0.78721922  0.25195270  0.13248473  1
  H+  H294  1  0.82419694  0.93136487  0.39488095  1
  H+  H295  1  0.58395002  0.40293714  0.76879331  1
  H+  H296  1  0.70624775  0.30795571  0.99357580  1
  H+  H297  1  0.98290574  0.85462343  0.99375425  1
  H+  H298  1  0.32091930  0.39525245  0.10570732  1
  H+  H299  1  0.31117152  0.41061749  0.76057077  1
  H+  H300  1  0.91244303  0.81506518  0.91046941  1
  H+  H301  1  0.75927040  0.64677268  0.14300012  1
  H+  H302  1  0.14746832  0.82345683  0.58003062  1
  H+  H303  1  0.14968253  0.78263363  0.34607735  1
  H+  H304  1  0.07361958  0.16302932  0.73448449  1
  H+  H305  1  0.58285417  0.67193974  0.39929521  1
  H+  H306  1  0.12496768  0.47096048  0.49065843  1
  H+  H307  1  0.57810743  0.90853213  0.76964763  1
  H+  H308  1  0.64162885  0.63490550  0.32876272  1
  H+  H309  1  0.60264292  0.11573889  0.64560183  1
  H+  H310  1  0.91671732  0.32403856  0.90570776  1
  H+  H311  1  0.13996064  0.62053963  0.86741807  1
  H+  H312  1  0.63000566  0.06400176  0.25422700  1
  H+  H313  1  0.61559223  0.45997232  0.67026387  1
  H+  H314  1  0.39232178  0.57841325  0.89392820  1
  H+  H315  1  0.06613661  0.15110069  0.44259402  1
  H+  H316  1  0.16488793  0.59166805  0.23382394  1
  H+  H317  1  0.82527027  0.16992259  0.06733973  1
  H+  H318  1  0.04634131  0.69931593  0.75402179  1
  H+  H319  1  0.16395484  0.08735320  0.89808951  1
  H+  H320  1  0.06815117  0.65737061  0.43022117  1
  H+  H321  1  0.57619485  0.42226088  0.08042068  1
  H+  H322  1  0.21063815  0.35393449  0.54570055  1
  H+  H323  1  0.91175472  0.07866409  0.90380922  1
  H+  H324  1  0.07101580  0.92620665  0.77313196  1
  H+  H325  1  0.58714495  0.20751079  0.50207167  1
  H+  H326  1  0.83517392  0.66634867  0.06464719  1
  H+  H327  1  0.39636587  0.83435535  0.56669567  1
  H+  H328  1  0.64560214  0.84046000  0.26974374  1
  H+  H329  1  0.47118985  0.85606434  0.66458452  1
  H+  H330  1  0.16433981  0.07923363  0.57046678  1
  H+  H331  1  0.67073045  0.57024107  0.55324481  1
  H+  H332  1  0.56281145  0.70775421  0.16336551  1
  H+  H333  1  0.38730109  0.86513356  0.33734364  1
  H+  H334  1  0.41472569  0.33557791  0.59929478  1
  H+  H335  1  0.37475622  0.18801295  0.07627288  1
  H+  H336  1  0.42577119  0.83974575  0.90672746  1
  H+  H337  1  0.90762846  0.07995116  0.56743229  1
  H+  H338  1  0.11462329  0.81680952  0.24953807  1
  H+  H339  1  0.34571957  0.61686588  0.66676076  1
  H+  H340  1  0.12493831  0.48903023  0.33852553  1
  H+  H341  1  0.41126870  0.32407582  0.89249413  1
  H+  H342  1  0.67520762  0.07733951  0.92831053  1
  H+  H343  1  0.56498874  0.43153096  0.39136035  1
  H+  H344  1  0.88048657  0.31866749  0.57702956  1
  H+  H345  1  0.63832012  0.32699653  0.55243930  1
  H+  H346  1  0.34151415  0.68808277  0.07802655  1
  H+  H347  1  0.42471502  0.08740897  0.89805753  1
  H+  H348  1  0.66818348  0.06660376  0.60115905  1
  H+  H349  1  0.82804148  0.91930103  0.75946995  1
  H+  H350  1  0.51727062  0.40122315  0.13961501  1
  H+  H351  1  0.08011305  0.40996217  0.73477283  1
  H+  H352  1  0.13562442  0.39556106  0.16126518  1
  H+  H353  1  0.71607760  0.94474329  0.55330134  1
  H+  H354  1  0.43452241  0.84482373  0.24071673  1
  H+  H355  1  0.67480221  0.83229588  0.93725455  1
  H+  H356  1  0.41466190  0.59393078  0.56108536  1
  H+  H357  1  0.38648382  0.05207477  0.58868483  1
  H+  H358  1  0.58210874  0.92556027  0.39951207  1
  H+  H359  1  0.90286195  0.09065732  0.26510404  1
  H+  H360  1  0.81728935  0.38586182  0.05754452  1
  H+  H361  1  0.10164767  0.41682687  0.43054553  1
  H+  H362  1  0.32960356  0.18160061  0.43034134  1
  H+  H363  1  0.63469627  0.10387223  0.51489585  1
  H+  H364  1  0.34585467  0.91928201  0.77124479  1
  H+  H365  1  0.44879447  0.37558444  0.22032651  1
  H+  H366  1  0.12106113  0.11496962  0.31609796  1
  H+  H367  1  0.31737981  0.65175114  0.73317300  1
  H+  H368  1  0.85936371  0.13465227  0.49464183  1
  H+  H369  1  0.64038901  0.33784201  0.22968442  1
  H+  H370  1  0.16884992  0.09270857  0.22246118  1
  H+  H371  1  0.06365514  0.68391048  0.31669814  1
  H+  H372  1  0.10521286  0.92285963  0.08521162  1
  H+  H373  1  0.82922303  0.16814213  0.43634490  1
  H+  H374  1  0.69484598  0.80997707  0.18625102  1
  H+  H375  1  0.34243416  0.27969382  0.25887575  1
  H+  H376  1  0.16181735  0.58033175  0.55956862  1
  H+  H377  1  0.08939490  0.41621550  0.07331342  1
  H+  H378  1  0.83487283  0.66373318  0.40283049  1
  H+  H379  1  0.37187261  0.93424909  0.06367882  1
  H+  H380  1  0.27074140  0.22005956  0.44691060  1
  H+  H381  1  0.16286831  0.32728080  0.90208224  1
  H+  H382  1  0.19524092  0.58764860  0.95283474  1
  H+  H383  1  0.58477433  0.16296958  0.76437845  1
  O2-  O384  1  0.08500290  0.16949594  0.13643860  1
  O2-  O385  1  0.06770243  0.15346449  0.48736761  1
  O2-  O386  1  0.07656629  0.16170439  0.81554902  1
  O2-  O387  1  0.10363061  0.43030687  0.14478326  1
  O2-  O388  1  0.10494449  0.41215426  0.47567954  1
  O2-  O389  1  0.07985683  0.39859713  0.81526053  1
  O2-  O390  1  0.06118032  0.65407884  0.14977724  1
  O2-  O391  1  0.06626702  0.64950580  0.47536738  1
  O2-  O392  1  0.05668252  0.69772998  0.79754142  1
  O2-  O393  1  0.09033013  0.92805822  0.12699562  1
  O2-  O394  1  0.08487452  0.91120718  0.48073959  1
  O2-  O395  1  0.06748895  0.92899873  0.81882539  1
  O2-  O396  1  0.34637758  0.17270877  0.14903626  1
  O2-  O397  1  0.30227810  0.19517582  0.46609176  1
  O2-  O398  1  0.34927992  0.17304446  0.80825406  1
  O2-  O399  1  0.32208591  0.39801579  0.15051040  1
  O2-  O400  1  0.36660495  0.43927048  0.46821609  1
  O2-  O401  1  0.30909978  0.41176202  0.80543526  1
  O2-  O402  1  0.33024939  0.68550658  0.14647176  1
  O2-  O403  1  0.33262894  0.67347771  0.47462186  1
  O2-  O404  1  0.32127511  0.66054924  0.79445258  1
  O2-  O405  1  0.37556164  0.93724912  0.14221549  1
  O2-  O406  1  0.35166287  0.95248007  0.47875383  1
  O2-  O407  1  0.34814632  0.91877816  0.81712575  1
  O2-  O408  1  0.57282572  0.17187071  0.14159832  1
  O2-  O409  1  0.56681772  0.14652585  0.51320652  1
  O2-  O410  1  0.58466206  0.16058847  0.80866866  1
  O2-  O411  1  0.57735707  0.43328697  0.12586422  1
  O2-  O412  1  0.57327485  0.41876347  0.46745946  1
  O2-  O413  1  0.58205362  0.40605274  0.81398988  1
  O2-  O414  1  0.55387613  0.66175387  0.19178518  1
  O2-  O415  1  0.58606359  0.67069169  0.47148673  1
  O2-  O416  1  0.56902085  0.66457071  0.82298457  1
  O2-  O417  1  0.60071454  0.91542748  0.14397628  1
  O2-  O418  1  0.58585810  0.92066225  0.46644838  1
  O2-  O419  1  0.57975815  0.91011559  0.81560426  1
  O2-  O420  1  0.80097090  0.20647613  0.14100468  1
  O2-  O421  1  0.82550281  0.16225278  0.48147328  1
  O2-  O422  1  0.82831272  0.16271132  0.81405952  1
  O2-  O423  1  0.84135710  0.39038987  0.13111375  1
  O2-  O424  1  0.80120469  0.40274041  0.48134679  1
  O2-  O425  1  0.82681817  0.40468967  0.82251429  1
  O2-  O426  1  0.82164616  0.66636220  0.13978750  1
  O2-  O427  1  0.83588562  0.67025637  0.47985880  1
  O2-  O428  1  0.82157868  0.64816428  0.81258266  1
  O2-  O429  1  0.87329400  0.93049507  0.14769655  1
  O2-  O430  1  0.83119418  0.92140656  0.47437690  1
  O2-  O431  1  0.83290104  0.92339861  0.80522763  1
  O2-  O432  1  0.17554317  0.09376833  0.17696898  1
  O2-  O433  1  0.15880904  0.07306485  0.52531688  1
  O2-  O434  1  0.14923035  0.08042189  0.85330961  1
  O2-  O435  1  0.17101169  0.34748758  0.18371434  1
  O2-  O436  1  0.20822408  0.35587606  0.50167167  1
  O2-  O437  1  0.15844896  0.32109356  0.85637519  1
  O2-  O438  1  0.16493843  0.59408338  0.18823951  1
  O2-  O439  1  0.16533356  0.58174986  0.51490003  1
  O2-  O440  1  0.15317322  0.61970126  0.82440694  1
  O2-  O441  1  0.07682359  0.80058881  0.21325557  1
  O2-  O442  1  0.10875761  0.79176480  0.54604339  1
  O2-  O443  1  0.18352869  0.84395027  0.86864125  1
  O2-  O444  1  0.42715401  0.08601626  0.19162495  1
  O2-  O445  1  0.39279308  0.04132237  0.50315697  1
  O2-  O446  1  0.41988311  0.08329789  0.85238846  1
  O2-  O447  1  0.40890298  0.33739008  0.18968989  1
  O2-  O448  1  0.41973347  0.34479950  0.52357494  1
  O2-  O449  1  0.41910144  0.31875367  0.84721793  1
  O2-  O450  1  0.46261908  0.59891735  0.18217464  1
  O2-  O451  1  0.42102676  0.59883183  0.51658564  1
  O2-  O452  1  0.40070682  0.58523561  0.85004694  1
  O2-  O453  1  0.44339265  0.84746798  0.19574200  1
  O2-  O454  1  0.38370841  0.82755529  0.52294594  1
  O2-  O455  1  0.42635191  0.84518086  0.85949200  1
  O2-  O456  1  0.65354164  0.07534165  0.18818576  1
  O2-  O457  1  0.66712606  0.07393665  0.52478836  1
  O2-  O458  1  0.66481356  0.07335709  0.85053487  1
  O2-  O459  1  0.63940623  0.32911452  0.18510204  1
  O2-  O460  1  0.63789782  0.32068773  0.50802225  1
  O2-  O461  1  0.65925454  0.31692251  0.85537082  1
  O2-  O462  1  0.64896977  0.60657123  0.12990573  1
  O2-  O463  1  0.66892744  0.57870804  0.50914196  1
  O2-  O464  1  0.65385257  0.57740309  0.84609598  1
  O2-  O465  1  0.68746439  0.82659763  0.14551046  1
  O2-  O466  1  0.69412256  0.88540581  0.54047093  1
  O2-  O467  1  0.66642286  0.83200602  0.85851881  1
  O2-  O468  1  0.92117070  0.08505586  0.18644251  1
  O2-  O469  1  0.90810017  0.08022107  0.52220026  1
  O2-  O470  1  0.91400280  0.08426473  0.85853832  1
  O2-  O471  1  0.94754150  0.30106955  0.20042560  1
  O2-  O472  1  0.85313967  0.31008942  0.53669841  1
  O2-  O473  1  0.91181809  0.32371462  0.85985515  1
  O2-  O474  1  0.88372941  0.54742503  0.16770853  1
  O2-  O475  1  0.90187387  0.57099963  0.51801204  1
  O2-  O476  1  0.90112272  0.57004389  0.85571326  1
  O2-  O477  1  0.92396457  0.82002843  0.20202469  1
  O2-  O478  1  0.91380134  0.83657372  0.51160409  1
  O2-  O479  1  0.90128960  0.81220004  0.86494160  1
  O2-  O480  1  0.16860094  0.10864251  0.29845574  1
  O2-  O481  1  0.16426191  0.08532308  0.64972291  1
  O2-  O482  1  0.18076756  0.08890924  0.97216872  1
  O2-  O483  1  0.16427167  0.34282608  0.29999047  1
  O2-  O484  1  0.13227177  0.31401062  0.63512017  1
  O2-  O485  1  0.16533356  0.33487907  0.97857302  1
  O2-  O486  1  0.16450152  0.59204816  0.31120800  1
  O2-  O487  1  0.15976288  0.57755277  0.64687493  1
  O2-  O488  1  0.18937627  0.58646490  0.99676777  1
  O2-  O489  1  0.17539781  0.83752993  0.32414486  1
  O2-  O490  1  0.17062910  0.85007704  0.66604521  1
  O2-  O491  1  0.19741199  0.84249482  0.98934559  1
  O2-  O492  1  0.47050522  0.06406521  0.30346078  1
  O2-  O493  1  0.39654428  0.06590925  0.63270768  1
  O2-  O494  1  0.43987062  0.09314385  0.97370831  1
  O2-  O495  1  0.32108932  0.26402208  0.30108802  1
  O2-  O496  1  0.41017175  0.33077954  0.64505594  1
  O2-  O497  1  0.40739656  0.33677172  0.96487301  1
  O2-  O498  1  0.42314134  0.58644526  0.30206769  1
  O2-  O499  1  0.39638138  0.57627243  0.64675442  1
  O2-  O500  1  0.42570976  0.58346683  1.05401326  1
  O2-  O501  1  0.41699353  0.83582778  0.31908981  1
  O2-  O502  1  0.41026093  0.83060408  0.65075803  1
  O2-  O503  1  0.43044534  0.83430788  0.97544131  1
  O2-  O504  1  0.60885263  0.05881909  0.29899595  1
  O2-  O505  1  0.66191882  0.06577357  0.64669003  1
  O2-  O506  1  0.67773786  0.08048611  0.97378856  1
  O2-  O507  1  0.64498594  0.35117971  0.31106305  1
  O2-  O508  1  0.67937720  0.31607678  0.63518760  1
  O2-  O509  1  0.64717461  0.27353106  0.97445727  1
  O2-  O510  1  0.67334768  0.60401514  0.31479887  1
  O2-  O511  1  0.67122676  0.56279881  0.63738406  1
  O2-  O512  1  0.68009369  0.58478250  0.96997577  1
  O2-  O513  1  0.65197630  0.83992940  0.31362217  1
  O2-  O514  1  0.65875051  0.82127380  0.65254667  1
  O2-  O515  1  0.68249760  0.83585640  0.98249430  1
  O2-  O516  1  0.89722840  0.09317471  0.30990979  1
  O2-  O517  1  0.90924636  0.07846531  0.64835749  1
  O2-  O518  1  0.91519856  0.07259976  0.98416398  1
  O2-  O519  1  0.94154195  0.34612245  0.30767301  1
  O2-  O520  1  0.90524016  0.32703949  0.65619646  1
  O2-  O521  1  0.92116448  0.32460263  0.98064801  1
  O2-  O522  1  0.90688923  0.56195427  0.33547733  1
  O2-  O523  1  0.90282038  0.57145179  0.64709488  1
  O2-  O524  1  0.89518258  0.55395840  0.97161263  1
  O2-  O525  1  0.92358162  0.82909502  0.31975141  1
  O2-  O526  1  0.93492655  0.82028106  0.64077064  1
  O2-  O527  1  0.92084654  0.82660373  0.98441400  1
  O2-  O528  1  0.08138303  0.16366439  0.01689024  1
  O2-  O529  1  0.03825237  0.10901808  0.36136301  1
  O2-  O530  1  0.07335644  0.16159859  0.68923674  1
  O2-  O531  1  0.08413440  0.41312085  0.02674089  1
  O2-  O532  1  0.09852553  0.42856978  0.35331168  1
  O2-  O533  1  0.07727505  0.41504479  0.68989224  1
  O2-  O534  1  0.11461685  0.68851952  0.03147586  1
  O2-  O535  1  0.06007774  0.64773935  0.35093889  1
  O2-  O536  1  0.07221843  0.66728911  0.65492123  1
  O2-  O537  1  0.10542427  0.91600167  -0.01895418  1
  O2-  O538  1  0.10042145  0.92870178  0.35856291  1
  O2-  O539  1  0.08101953  0.92702304  0.69772815  1
  O2-  O540  1  0.40039630  0.20271582  0.03388392  1
  O2-  O541  1  0.37475329  0.17522751  0.36894076  1
  O2-  O542  1  0.33286255  0.16430930  0.68551176  1
  O2-  O543  1  0.33084612  0.41083994  0.02254348  1
  O2-  O544  1  0.39632281  0.42573405  0.34823050  1
  O2-  O545  1  0.31808236  0.40848810  0.67632884  1
  O2-  O546  1  0.34962297  0.68130125  0.03196975  1
  O2-  O547  1  0.33543151  0.67092530  0.35131999  1
  O2-  O548  1  0.31502380  0.64937795  0.68305245  1
  O2-  O549  1  0.36603818  0.92973835  0.01835546  1
  O2-  O550  1  0.35101475  0.93170797  0.36288082  1
  O2-  O551  1  0.33543565  0.91634404  0.69575640  1
  O2-  O552  1  0.61463149  0.18647227  -0.00210730  1
  O2-  O553  1  0.56923407  0.20356301  0.37610543  1
  O2-  O554  1  0.57224832  0.14814071  0.63476120  1
  O2-  O555  1  0.57736720  0.41478331  0.00723707  1
  O2-  O556  1  0.55734320  0.43736882  0.34686461  1
  O2-  O557  1  0.58202425  0.40122938  0.68785955  1
  O2-  O558  1  0.60001635  0.65907416  0.02850378  1
  O2-  O559  1  0.58333557  0.67310782  0.35272291  1
  O2-  O560  1  0.55392549  0.65724363  0.70330253  1
  O2-  O561  1  0.59738960  0.91609878  0.01876407  1
  O2-  O562  1  0.57579401  0.92372135  0.35217902  1
  O2-  O563  1  0.57503202  0.90500768  0.69332199  1
  O2-  O564  1  0.83580232  0.15874076  0.02486315  1
  O2-  O565  1  0.83040789  0.18100932  0.35811454  1
  O2-  O566  1  0.82577146  0.15911973  0.69021195  1
  O2-  O567  1  0.80840477  0.38092771  0.01208486  1
  O2-  O568  1  0.80360468  0.40965283  0.35882954  1
  O2-  O569  1  0.82927691  0.41508957  0.70218743  1
  O2-  O570  1  0.84141368  0.66865449  0.01894600  1
  O2-  O571  1  0.83826369  0.66146417  0.35749506  1
  O2-  O572  1  0.82268312  0.65720112  0.69177042  1
  O2-  O573  1  0.83823533  0.91080237  0.01142608  1
  O2-  O574  1  0.82198078  0.93899648  0.35032356  1
  O2-  O575  1  0.82369132  0.90663479  0.68405359  1
