# generated using pymatgen
data_H2O
_symmetry_space_group_name_H-M   'P 1'
_cell_length_a   17.99096286
_cell_length_b   17.99240627
_cell_length_c   21.99866352
_cell_angle_alpha   90.02486296
_cell_angle_beta   89.99159696
_cell_angle_gamma   120.01391624
_symmetry_Int_Tables_number   1
_chemical_formula_structural   H2O
_chemical_formula_sum   'H384 O192'
_cell_volume   6166.08666267
_cell_formula_units_Z   192
loop_
 _symmetry_equiv_pos_site_id
 _symmetry_equiv_pos_as_xyz
  1  'x, y, z'
loop_
 _atom_type_symbol
 _atom_type_oxidation_number
  H+  1.0
  O2-  -2.0
loop_
 _atom_site_type_symbol
 _atom_site_label
 _atom_site_symmetry_multiplicity
 _atom_site_fract_x
 _atom_site_fract_y
 _atom_site_fract_z
 _atom_site_occupancy
  H+  H0  1  0.59373289  0.63096421  0.33541630  1
  H+  H1  1  0.85505755  0.90597765  0.82656015  1
  H+  H2  1  0.27397708  0.13963877  1.01369062  1
  H+  H3  1  0.12664502  0.09428703  1.00205812  1
  H+  H4  1  0.83466765  0.41441219  0.06980718  1
  H+  H5  1  0.51949739  0.61853420  0.15344618  1
  H+  H6  1  0.37351075  0.71380395  0.49969517  1
  H+  H7  1  0.59256900  0.67383565  0.43275760  1
  H+  H8  1  0.56174844  0.92245366  0.48500723  1
  H+  H9  1  0.41631122  0.33479707  0.93530634  1
  H+  H10  1  0.85962251  0.38339460  0.83198212  1
  H+  H11  1  0.11960833  0.38971733  0.48077622  1
  H+  H12  1  1.01940841  0.62960192  0.99980464  1
  H+  H13  1  0.64455211  0.03460719  0.99087172  1
  H+  H14  1  0.86447936  0.79768374  0.65724221  1
  H+  H15  1  0.65171322  0.28253686  1.00730025  1
  H+  H16  1  0.73212383  0.36156121  0.84022225  1
  H+  H17  1  0.98151538  0.36058418  0.32462082  1
  H+  H18  1  0.38442385  0.12159527  0.16484824  1
  H+  H19  1  0.36041265  0.38953903  0.66810208  1
  H+  H20  1  0.62546116  0.14592875  0.34051868  1
  H+  H21  1  0.63096836  0.77197264  0.32679337  1
  H+  H22  1  0.34896781  0.71495134  0.31380795  1
  H+  H23  1  0.26900497  0.13790641  0.66647469  1
  H+  H24  1  0.53344089  0.89339995  0.00106064  1
  H+  H25  1  0.86767077  0.23544461  0.16912035  1
  H+  H26  1  0.24926689  0.61632911  0.47713654  1
  H+  H27  1  0.75916120  0.61308674  0.67585081  1
  H+  H28  1  0.35739165  0.93367327  0.23313580  1
  H+  H29  1  0.76300076  0.89968551  0.81882579  1
  H+  H30  1  0.89202156  0.12008458  0.49032119  1
  H+  H31  1  0.63124432  0.34301891  0.83377391  1
  H+  H32  1  0.65494586  0.12716075  1.00175636  1
  H+  H33  1  0.88865375  0.28030756  0.66966797  1
  H+  H34  1  0.39056122  0.52287839  0.50252938  1
  H+  H35  1  0.50853363  0.14543390  1.03239738  1
  H+  H36  1  0.76903557  0.63118906  0.49912858  1
  H+  H37  1  0.11326797  0.47667730  0.48377653  1
  H+  H38  1  0.98657797  0.11896909  0.32229664  1
  H+  H39  1  1.01266734  0.38556165  0.16212787  1
  H+  H40  1  1.02327526  0.64524575  0.49306737  1
  H+  H41  1  1.01427672  0.62967853  0.15354844  1
  H+  H42  1  0.64331732  0.78621361  0.65508400  1
  H+  H43  1  0.44880430  0.80826626  0.67636519  1
  H+  H44  1  0.87923300  0.03740347  0.82611821  1
  H+  H45  1  0.61519709  0.98035442  0.33341276  1
  H+  H46  1  0.85682268  0.68473545  0.68778367  1
  H+  H47  1  0.97430126  0.85571172  0.18232628  1
  H+  H48  1  0.12329587  0.72580067  0.83468105  1
  H+  H49  1  0.38881627  1.03249331  0.50686219  1
  H+  H50  1  0.25485709  0.60806163  0.82630722  1
  H+  H51  1  0.88910281  0.37232204  0.99693934  1
  H+  H52  1  0.39561332  0.62649733  -0.01212979  1
  H+  H53  1  0.47375294  0.37423598  0.17041372  1
  H+  H54  1  0.59966042  0.38859561  0.66327066  1
  H+  H55  1  0.78481177  0.15386035  0.67116109  1
  H+  H56  1  0.12893604  0.02390527  0.66196253  1
  H+  H57  1  0.36093007  0.39004850  0.15501117  1
  H+  H58  1  0.04709690  0.71712393  0.12235254  1
  H+  H59  1  -0.02371235  0.36236296  0.84099737  1
  H+  H60  1  0.48254019  0.61068510  0.50273898  1
  H+  H61  1  0.22750955  0.36739325  0.83472800  1
  H+  H62  1  0.46574339  0.61596466  0.83319901  1
  H+  H63  1  0.41892234  0.31296860  0.49654525  1
  H+  H64  1  0.88760074  0.61435562  -0.00201683  1
  H+  H65  1  0.86539813  0.99851807  0.66896795  1
  H+  H66  1  0.93249050  0.10570906  0.26295643  1
  H+  H67  1  0.34326935  0.67251129  0.05664175  1
  H+  H68  1  0.13025472  0.77234993  -0.00768132  1
  H+  H69  1  0.61008732  0.13628212  0.68331822  1
  H+  H70  1  0.36940191  -0.00811252  0.17757191  1
  H+  H71  1  0.36364241  0.47518930  0.82582286  1
  H+  H72  1  0.86226953  0.23639442  0.82398130  1
  H+  H73  1  0.86923114  0.23714979  0.33160978  1
  H+  H74  1  0.36062917  0.39027963  0.49333470  1
  H+  H75  1  0.38929392  0.80464193  0.51513634  1
  H+  H76  1  0.47508907  0.61884667  0.65133650  1
  H+  H77  1  0.90781723  0.53213768  0.50130152  1
  H+  H78  1  0.87520773  0.86367430  0.49779532  1
  H+  H79  1  0.11105603  0.38521788  0.66617428  1
  H+  H80  1  0.14746088  0.79665771  0.34029785  1
  H+  H81  1  0.40122600  0.87383607  0.16210842  1
  H+  H82  1  0.37875493  0.01959033  0.65926157  1
  H+  H83  1  0.34744669  0.87560904  0.66760874  1
  H+  H84  1  0.46935450  0.11782406  0.83645839  1
  H+  H85  1  0.13629775  0.66684517  0.34639890  1
  H+  H86  1  0.67855393  0.84286942  0.56349260  1
  H+  H87  1  0.77437263  0.60235150  0.86718604  1
  H+  H88  1  0.78362266  0.14980014  0.47982392  1
  H+  H89  1  0.88619081  0.65878185  0.33223445  1
  H+  H90  1  0.84651013  0.87005848  1.00350084  1
  H+  H91  1  0.89798626  0.13096673  0.17208208  1
  H+  H92  1  0.22522716  0.36496331  0.49727628  1
  H+  H93  1  0.88071341  0.89137648  0.65687590  1
  H+  H94  1  0.77895902  0.39436453  0.00817795  1
  H+  H95  1  0.11167168  0.98252922  0.82454122  1
  H+  H96  1  0.11243602  0.13414261  0.49113889  1
  H+  H97  1  0.85592538  0.71969932  0.49506840  1
  H+  H98  1  0.32026752  0.88163525  0.50024575  1
  H+  H99  1  1.00035235  0.59432787  0.31047018  1
  H+  H100  1  0.52524771  0.63915909  0.00323989  1
  H+  H101  1  0.86079142  0.62734240  0.16730376  1
  H+  H102  1  0.11758477  0.23383361  0.66283762  1
  H+  H103  1  0.73462766  0.12068589  0.32390709  1
  H+  H104  1  0.87693182  0.50552074  0.16000377  1
  H+  H105  1  0.07952666  0.17302137  -0.00632236  1
  H+  H106  1  0.13433156  0.11276190  0.17495710  1
  H+  H107  1  0.88434337  0.63569314  0.83129122  1
  H+  H108  1  0.38929144  0.85833610  0.30082600  1
  H+  H109  1  0.11680455  0.50341712  0.19843211  1
  H+  H110  1  0.14461187  0.53297554  0.99419799  1
  H+  H111  1  0.73299532  0.87843287  0.65763226  1
  H+  H112  1  0.62899515  0.23736714  0.33913264  1
  H+  H113  1  0.62419879  0.73455934  0.49198327  1
  H+  H114  1  0.75739209  0.87835666  0.33802538  1
  H+  H115  1  0.22927468  0.85648888  0.84311874  1
  H+  H116  1  0.02182898  0.38595527  0.67413379  1
  H+  H117  1  0.61828935  0.62312168  0.15318612  1
  H+  H118  1  0.89233418  0.36354103  0.32618831  1
  H+  H119  1  0.77818670  0.89944501  0.48815243  1
  H+  H120  1  0.21406984  0.59578469  0.65120400  1
  H+  H121  1  0.41523639  0.13458825  0.02455271  1
  H+  H122  1  0.14253854  0.61940925  0.98642312  1
  H+  H123  1  0.75166549  0.87161840  -0.00540491  1
  H+  H124  1  0.30943277  0.62778472  0.76507800  1
  H+  H125  1  0.54041001  0.90256737  0.14827766  1
  H+  H126  1  0.16504005  0.33002967  0.26126699  1
  H+  H127  1  0.54940094  0.92012886  0.65279053  1
  H+  H128  1  0.28663808  0.40952229  -0.00249591  1
  H+  H129  1  0.74368807  0.88792375  0.17052282  1
  H+  H130  1  0.62514485  1.00022938  0.82273963  1
  H+  H131  1  0.65092326  0.16467956  0.12897188  1
  H+  H132  1  0.50018858  0.42120649  0.48847171  1
  H+  H133  1  0.72821440  0.61461803  0.17080364  1
  H+  H134  1  0.88153714  0.99148248  0.16557179  1
  H+  H135  1  0.63937254  0.36535630  0.32406834  1
  H+  H136  1  0.12891315  0.61279690  0.50290943  1
  H+  H137  1  0.61641950  0.63919736  0.00709061  1
  H+  H138  1  0.33624166  0.69516728  0.67446723  1
  H+  H139  1  0.51506716  0.12508362  0.68769531  1
  H+  H140  1  0.10187360  0.14465305  0.39130488  1
  H+  H141  1  0.62760762  0.90213016  0.66158991  1
  H+  H142  1  0.48481467  0.88558748  0.83532352  1
  H+  H143  1  0.32788645  0.16977419  0.75947490  1
  H+  H144  1  0.61842130  0.39637448  0.16242212  1
  H+  H145  1  0.63215246  0.86590300  0.98946765  1
  H+  H146  1  0.49708576  0.35098054  0.33661579  1
  H+  H147  1  0.50523371  0.34383986  0.82020154  1
  H+  H148  1  0.57395198  0.90768959  0.38601266  1
  H+  H149  1  0.33079414  0.20549090  0.50786139  1
  H+  H150  1  0.74910727  0.34960843  0.47091861  1
  H+  H151  1  0.16055860  0.30268556  0.98790104  1
  H+  H152  1  0.28099960  0.90570790  0.32607271  1
  H+  H153  1  0.86894248  0.98960086  0.48389472  1
  H+  H154  1  0.26980584  0.14123748  0.17013532  1
  H+  H155  1  0.73167669  0.12372997  0.17220021  1
  H+  H156  1  0.34945775  0.61447696  0.66551937  1
  H+  H157  1  0.09788131  0.88360632  0.67704645  1
  H+  H158  1  0.62863877  0.53759751  0.50478211  1
  H+  H159  1  0.10826729  0.97123809  0.17185739  1
  H+  H160  1  0.39311233  0.37468535  0.99246734  1
  H+  H161  1  0.87506822  0.35803629  0.17038327  1
  H+  H162  1  0.65415823  0.83799034  0.89248509  1
  H+  H163  1  0.37671986  0.64446580  0.14639268  1
  H+  H164  1  -0.02928154  0.12292560  0.82424270  1
  H+  H165  1  0.96554284  0.86987717  0.33619514  1
  H+  H166  1  0.08102895  0.41176159  0.76536271  1
  H+  H167  1  1.02790156  0.13860409  0.47946315  1
  H+  H168  1  0.35921245  0.23331443  0.01295336  1
  H+  H169  1  0.19876666  0.87206365  0.52308181  1
  H+  H170  1  0.63121921  0.24160837  0.83398001  1
  H+  H171  1  0.65997822  0.05466167  0.51034548  1
  H+  H172  1  0.10774537  0.46999664  0.82585387  1
  H+  H173  1  0.41176681  1.00591890  0.02576032  1
  H+  H174  1  0.91047826  0.39734106  0.48351261  1
  H+  H175  1  0.62458381  0.52525483  0.66036671  1
  H+  H176  1  0.60076363  0.61358360  0.89575885  1
  H+  H177  1  0.36249000  0.47909101  0.66850218  1
  H+  H178  1  0.22767826  0.36887259  0.64974407  1
  H+  H179  1  0.38465164  0.51394185  0.16252986  1
  H+  H180  1  0.22177823  0.36976650  0.16814018  1
  H+  H181  1  0.41134586  0.88029665  -0.00421156  1
  H+  H182  1  0.25416928  0.37814965  0.33332733  1
  H+  H183  1  0.58087143  0.50173690  0.81097809  1
  H+  H184  1  0.38140940  0.27718398  0.64919642  1
  H+  H185  1  0.87425658  0.15012403  0.33083336  1
  H+  H186  1  0.75484904  0.35948559  0.50437057  1
  H+  H187  1  0.60877816  0.51242085  0.31513442  1
  H+  H188  1  0.22814728  0.58048069  0.28968463  1
  H+  H189  1  0.36937624  0.59840578  0.83715438  1
  H+  H190  1  0.13677407  0.36721201  0.83490388  1
  H+  H191  1  0.86204870  0.47255623  0.83343594  1
  H+  H192  1  0.86776769  0.78499089  0.33813038  1
  H+  H193  1  0.11538675  0.88627912  0.17161010  1
  H+  H194  1  0.52458907  0.38784688  0.00782159  1
  H+  H195  1  0.10576948  0.85939912  0.51702799  1
  H+  H196  1  0.64710879  0.13560648  0.50417415  1
  H+  H197  1  0.51062278  0.63652013  0.35658369  1
  H+  H198  1  0.37856753  0.73353499  0.14277774  1
  H+  H199  1  0.24312502  0.14324891  0.83968944  1
  H+  H200  1  0.35986517  0.13578651  0.81729531  1
  H+  H201  1  0.88532190  0.52340621  0.99915491  1
  H+  H202  1  0.49873148  0.14116722  0.32295132  1
  H+  H203  1  0.23637066  0.86741174  0.19176614  1
  H+  H204  1  0.64499530  0.63013297  0.51020004  1
  H+  H205  1  0.11574094  0.15073062  0.82078316  1
  H+  H206  1  0.50458734  0.82417830  0.48284894  1
  H+  H207  1  0.98612541  0.35268249  0.49654476  1
  H+  H208  1  0.77884436  0.38592529  0.34065569  1
  H+  H209  1  0.52843818  0.14216786  0.49201910  1
  H+  H210  1  0.74135493  0.65425951  0.34608995  1
  H+  H211  1  0.13103718  0.60482912  0.83953142  1
  H+  H212  1  0.39795920  0.78481460  0.98837226  1
  H+  H213  1  -0.01891470  0.12488577  0.65021760  1
  H+  H214  1  0.11437569  0.45364795  0.32260861  1
  H+  H215  1  0.60494411  0.33559337  0.48594599  1
  H+  H216  1  0.12283716  0.51365515  0.65190827  1
  H+  H217  1  0.01262647  0.89133006  0.66913780  1
  H+  H218  1  0.86334418  0.14738698  0.81972843  1
  H+  H219  1  0.10500395  0.96897480  0.01274522  1
  H+  H220  1  0.82702334  0.63947905  0.77861767  1
  H+  H221  1  0.90039780  0.25126394  0.01407563  1
  H+  H222  1  0.73642784  0.37379235  0.17192605  1
  H+  H223  1  0.76205656  0.41941975  0.67439240  1
  H+  H224  1  0.84835567  -0.03276194  1.00832163  1
  H+  H225  1  0.61448953  0.51996012  0.78650001  1
  H+  H226  1  0.37699431  0.49541616  0.00227730  1
  H+  H227  1  0.40357602  0.06445061  0.30964655  1
  H+  H228  1  0.63922946  0.37373549  0.50364607  1
  H+  H229  1  0.37061711  0.89660440  0.82615529  1
  H+  H230  1  0.11128288  0.23541007  0.81899798  1
  H+  H231  1  0.38354426  0.35865261  0.83883157  1
  H+  H232  1  0.12340889  0.85642317  0.99512814  1
  H+  H233  1  0.39027658  0.12007008  0.50763988  1
  H+  H234  1  0.12667282  0.76848058  0.67174449  1
  H+  H235  1  0.65682298  1.04700444  0.65687411  1
  H+  H236  1  0.88051929  0.77348183  1.00066625  1
  H+  H237  1  -0.01099560  0.60870311  0.84567847  1
  H+  H238  1  0.12891705  0.34636811  0.32255074  1
  H+  H239  1  0.85796424  0.88748196  0.33749311  1
  H+  H240  1  0.62792347  0.77301416  0.98863505  1
  H+  H241  1  0.64058064  0.85873518  0.50158709  1
  H+  H242  1  0.61425874  0.38754270  0.00886444  1
  H+  H243  1  0.88665906  0.58891119  0.66128937  1
  H+  H244  1  0.38920047  0.58780394  0.41669840  1
  H+  H245  1  0.20919374  0.09443618  0.51017982  1
  H+  H246  1  -0.01748701  0.38150239  -0.00429943  1
  H+  H247  1  0.12024840  0.40297366  0.00833798  1
  H+  H248  1  0.38481707  0.28638866  0.17448725  1
  H+  H249  1  0.26614649  0.17396621  0.34809617  1
  H+  H250  1  0.35846955  0.13823856  0.66783889  1
  H+  H251  1  0.64600092  0.64179700  0.88442714  1
  H+  H252  1  0.96534689  0.89221636  0.84438993  1
  H+  H253  1  0.91751276  0.50074750  0.31176808  1
  H+  H254  1  0.92070913  0.09443850  0.55243318  1
  H+  H255  1  0.88611558  0.60991672  0.50333429  1
  H+  H256  1  0.89437796  0.12875953  0.65248822  1
  H+  H257  1  0.63361719  0.24246028  0.55476486  1
  H+  H258  1  0.73593013  0.12963357  0.84014434  1
  H+  H259  1  0.40312037  0.19269654  0.32326455  1
  H+  H260  1  0.77848270  0.64059875  0.02055261  1
  H+  H261  1  0.38279708  0.02748647  0.82947508  1
  H+  H262  1  0.63747738  0.52312346  0.16629480  1
  H+  H263  1  0.37783025  0.26683201  0.83854234  1
  H+  H264  1  0.13657308  0.27508639  0.49336386  1
  H+  H265  1  0.13842269  0.27867470  0.16375756  1
  H+  H266  1  0.83442196  0.36507006  0.70983552  1
  H+  H267  1  0.87314579  0.89881002  0.16820688  1
  H+  H268  1  0.63289788  0.90920810  0.15429483  1
  H+  H269  1  0.60023523  0.74836733  0.81664111  1
  H+  H270  1  0.63910154  0.52749245  1.01157742  1
  H+  H271  1  0.96475006  0.86604948  1.00241304  1
  H+  H272  1  0.96357335  0.07806189  1.01027837  1
  H+  H273  1  0.36891348  0.51982017  0.36387458  1
  H+  H274  1  0.90137539  0.63209180  0.31570199  1
  H+  H275  1  0.98946102  0.13668496  0.16599825  1
  H+  H276  1  0.77544528  0.32425542  0.12172919  1
  H+  H277  1  0.11595185  0.63632202  0.67387197  1
  H+  H278  1  0.67121593  0.09226066  0.26672464  1
  H+  H279  1  0.86479835  0.72005527  0.17224755  1
  H+  H280  1  0.61274423  0.64774595  0.66812901  1
  H+  H281  1  0.21688415  0.19023977  0.88779374  1
  H+  H282  1  0.09342551  0.97106626  0.50063442  1
  H+  H283  1  0.58527599  0.41949708  0.10127316  1
  H+  H284  1  0.10970673  0.90526741  0.34603803  1
  H+  H285  1  0.89379014  0.26977052  0.49058936  1
  H+  H286  1  0.88498073  0.09614262  0.00917219  1
  H+  H287  1  0.91993849  0.33704857  0.90243514  1
  H+  H288  1  0.84360738  0.67149864  0.07567419  1
  H+  H289  1  0.16098428  0.57368394  0.89864071  1
  H+  H290  1  0.07280958  0.91044147  0.07230152  1
  H+  H291  1  0.57890591  0.68355674  0.72216339  1
  H+  H292  1  0.09884412  0.16313408  0.07881263  1
  H+  H293  1  0.70927125  0.32430510  0.65135620  1
  H+  H294  1  0.16836455  0.07625291  0.94326578  1
  H+  H295  1  0.32469414  0.17482223  0.10805374  1
  H+  H296  1  0.43108785  0.83307461  0.21154752  1
  H+  H297  1  0.07189748  0.92238749  0.40665891  1
  H+  H298  1  0.85118268  0.41936805  0.39566545  1
  H+  H299  1  0.28426568  0.90699129  0.44497754  1
  H+  H300  1  0.58708734  0.16558419  0.77177463  1
  H+  H301  1  0.41906614  0.57624797  0.22068231  1
  H+  H302  1  0.33131620  0.91624710  0.76672759  1
  H+  H303  1  0.58161984  0.65725029  0.08972876  1
  H+  H304  1  0.42316120  0.59136408  0.92925206  1
  H+  H305  1  0.06720304  0.92788931  0.76595949  1
  H+  H306  1  0.08228045  0.65930599  0.05673403  1
  H+  H307  1  0.44160516  0.11526905  0.21550496  1
  H+  H308  1  0.67610589  0.09837950  0.90236316  1
  H+  H309  1  0.66790484  0.32901996  0.94098487  1
  H+  H310  1  0.59704559  0.94381771  0.76108844  1
  H+  H311  1  0.14959616  0.08780367  0.24177524  1
  H+  H312  1  0.68277998  0.11424781  0.60249771  1
  H+  H313  1  0.91524517  0.33794157  0.23277363  1
  H+  H314  1  0.67409409  0.34091860  0.26512044  1
  H+  H315  1  0.32165901  0.17041758  0.44130827  1
  H+  H316  1  0.64654367  0.29334251  0.16646208  1
  H+  H317  1  0.47732355  0.85926869  0.30966087  1
  H+  H318  1  0.18986983  0.21855788  0.11676296  1
  H+  H319  1  0.85102914  0.18098022  0.10883564  1
  H+  H320  1  0.59348697  0.17911871  0.43498264  1
  H+  H321  1  0.41941256  0.08580911  0.60418086  1
  H+  H322  1  0.69161637  0.58211597  0.95549923  1
  H+  H323  1  0.92449749  0.58077058  0.90328027  1
  H+  H324  1  0.64902888  0.57901164  0.26048019  1
  H+  H325  1  0.41406357  0.34368383  0.59063785  1
  H+  H326  1  0.69951240  0.50554249  0.87926772  1
  H+  H327  1  0.34746578  0.38616536  0.33725265  1
  H+  H328  1  0.33340214  0.41745967  0.76523815  1
  H+  H329  1  0.92914121  0.58421493  0.59943068  1
  H+  H330  1  0.14439575  0.82730418  0.61281898  1
  H+  H331  1  0.16874880  0.82867877  0.90175740  1
  H+  H332  1  0.15559772  0.57500863  0.55996954  1
  H+  H333  1  1.00227278  0.88202699  0.49558163  1
  H+  H334  1  0.90623350  0.85781365  0.90357481  1
  H+  H335  1  0.59686014  0.92681877  0.05972392  1
  H+  H336  1  0.37422136  0.94798577  0.35971973  1
  H+  H337  1  0.80036828  0.67822525  0.40574335  1
  H+  H338  1  0.63108237  0.87901390  0.83470399  1
  H+  H339  1  0.09049514  0.68128064  0.40309349  1
  H+  H340  1  0.96903910  0.48183253  0.44575516  1
  H+  H341  1  0.11936264  1.03701773  0.34327773  1
  H+  H342  1  0.34780371  0.63129100  0.33970886  1
  H+  H343  1  0.13331007  0.11617777  0.65911186  1
  H+  H344  1  0.02672584  0.63323007  0.67608338  1
  H+  H345  1  0.28312937  0.64532384  0.99703813  1
  H+  H346  1  0.14770594  0.77604120  0.18654213  1
  H+  H347  1  0.08562722  0.41470959  0.39165443  1
  H+  H348  1  0.16772486  0.33751852  0.58949656  1
  H+  H349  1  0.42716078  0.85115266  0.89452128  1
  H+  H350  1  0.08934866  0.66602081  0.77406912  1
  H+  H351  1  0.50856786  0.38472895  0.66258478  1
  H+  H352  1  0.55907252  0.37309151  0.75864365  1
  H+  H353  1  0.62769595  0.14268438  0.83525063  1
  H+  H354  1  0.89888451  0.83835201  0.56144373  1
  H+  H355  1  0.82615245  0.92060709  0.39960924  1
  H+  H356  1  0.67803726  0.85161481  0.22544302  1
  H+  H357  1  0.63574175  0.86394589  0.32296211  1
  H+  H358  1  0.66279661  0.58717148  0.60254280  1
  H+  H359  1  0.92414386  0.55529463  0.22046102  1
  H+  H360  1  0.33178074  0.42234394  0.09489249  1
  H+  H361  1  0.60191642  0.66197381  0.81497496  1
  H+  H362  1  0.41760725  0.79126543  0.60652541  1
  H+  H363  1  0.55190696  0.41924852  0.38702146  1
  H+  H364  1  0.08610235  0.17679873  0.72398669  1
  H+  H365  1  0.10245426  0.38524621  0.16211925  1
  H+  H366  1  0.83228327  0.93715393  0.73025754  1
  H+  H367  1  0.58517749  0.41863648  0.47365236  1
  H+  H368  1  0.64148622  0.03858846  0.16600152  1
  H+  H369  1  0.91171801  0.83077955  0.23980908  1
  H+  H370  1  0.15337704  0.07594030  0.57099904  1
  H+  H371  1  0.60830854  0.30564743  0.58095192  1
  H+  H372  1  0.10938906  0.73455552  0.49862095  1
  H+  H373  1  0.83821223  0.17111428  0.41651800  1
  H+  H374  1  0.96296471  0.22727392  0.04599015  1
  H+  H375  1  0.17418682  0.35052382  0.92431341  1
  H+  H376  1  0.16834400  0.84627684  0.27799164  1
  H+  H377  1  0.26048238  0.87953638  0.67191596  1
  H+  H378  1  0.41645039  0.58372414  0.59141255  1
  H+  H379  1  0.30161889  0.65634514  0.41480332  1
  H+  H380  1  0.32410020  0.91975319  0.03464018  1
  H+  H381  1  0.08726370  0.42686990  0.07002456  1
  H+  H382  1  0.32313507  0.41252804  0.43252677  1
  H+  H383  1  0.84118140  0.17821913  0.73174821  1
  O2-  O384  1  0.12835839  0.18837611  0.12505452  1
  O2-  O385  1  0.08941678  0.16517894  0.46697069  1
  O2-  O386  1  0.08368595  0.17618883  0.80153241  1
  O2-  O387  1  0.07502117  0.41907651  0.14889128  1
  O2-  O388  1  0.08726280  0.41810764  0.46538602  1
  O2-  O389  1  0.08030336  0.40877482  0.81074968  1
  O2-  O390  1  0.06807626  0.67968039  0.13667404  1
  O2-  O391  1  0.08513002  0.67713705  0.47878606  1
  O2-  O392  1  0.09030967  0.66327776  0.81916200  1
  O2-  O393  1  0.08065206  0.91113120  0.15617605  1
  O2-  O394  1  0.06451600  0.91116350  0.48315637  1
  O2-  O395  1  0.06274647  0.92916295  0.81081670  1
  O2-  O396  1  0.32865754  0.17600963  0.15372503  1
  O2-  O397  1  0.31839356  0.15356141  0.48537367  1
  O2-  O398  1  0.32889650  0.16841688  0.80481557  1
  O2-  O399  1  0.32861459  0.42029395  0.14033271  1
  O2-  O400  1  0.32619919  0.41813925  0.47759549  1
  O2-  O401  1  0.33225622  0.41418164  0.81064326  1
  O2-  O402  1  0.34637134  0.67251329  0.12961252  1
  O2-  O403  1  0.30763620  0.64495158  0.45801857  1
  O2-  O404  1  0.31431897  0.63138476  0.80985204  1
  O2-  O405  1  0.34374356  0.92862034  0.18971113  1
  O2-  O406  1  0.30419489  0.92322435  0.48669981  1
  O2-  O407  1  0.33498657  0.92280125  0.81130423  1
  O2-  O408  1  0.65677997  0.21795440  0.10983751  1
  O2-  O409  1  0.59021882  0.17273801  0.48033523  1
  O2-  O410  1  0.59562095  0.17399594  0.81960428  1
  O2-  O411  1  0.58682578  0.42536860  0.14683627  1
  O2-  O412  1  0.55825735  0.45273702  0.46316068  1
  O2-  O413  1  0.55292026  0.34363937  0.79762910  1
  O2-  O414  1  0.58091936  0.64960733  0.13681760  1
  O2-  O415  1  0.59280800  0.67367880  0.47825958  1
  O2-  O416  1  0.57021391  0.68816387  0.79813243  1
  O2-  O417  1  0.60179120  0.93812463  0.13606357  1
  O2-  O418  1  0.55997456  0.87268069  0.46597334  1
  O2-  O419  1  0.59422721  0.94030599  0.80582892  1
  O2-  O420  1  0.83973744  0.17393336  0.15330874  1
  O2-  O421  1  0.84126183  0.16877044  0.46284407  1
  O2-  O422  1  0.83003573  0.17704379  0.80626966  1
  O2-  O423  1  0.81508028  0.38223690  0.13754616  1
  O2-  O424  1  0.91127226  0.45001801  0.46259911  1
  O2-  O425  1  0.82604130  0.41155656  0.82057625  1
  O2-  O426  1  0.83261980  0.66066578  0.15443619  1
  O2-  O427  1  0.82804796  0.65920159  0.48075826  1
  O2-  O428  1  0.84594613  0.65927700  0.82037442  1
  O2-  O429  1  0.84638945  0.93109546  0.15234789  1
  O2-  O430  1  0.83659342  0.92793228  0.46878840  1
  O2-  O431  1  0.82285178  0.93082433  0.80329708  1
  O2-  O432  1  0.15496515  0.07874589  0.19795091  1
  O2-  O433  1  0.14955477  0.07115408  0.52499596  1
  O2-  O434  1  0.19237549  0.13639777  0.86523313  1
  O2-  O435  1  0.16106991  0.33653082  0.18253579  1
  O2-  O436  1  0.16279636  0.33438775  0.51009587  1
  O2-  O437  1  0.16777008  0.33752511  0.85189335  1
  O2-  O438  1  0.13867277  0.55224231  0.22883211  1
  O2-  O439  1  0.15479214  0.57700616  0.51398918  1
  O2-  O440  1  0.15523639  0.56741860  0.85328975  1
  O2-  O441  1  0.17349523  0.83493570  0.20303880  1
  O2-  O442  1  0.13873429  0.83215404  0.53443389  1
  O2-  O443  1  0.16925952  0.81986336  0.85708208  1
  O2-  O444  1  0.41873545  0.09353974  0.17472375  1
  O2-  O445  1  0.42372294  0.09232944  0.52078611  1
  O2-  O446  1  0.40699372  0.08936201  0.84103267  1
  O2-  O447  1  0.41290749  0.34907929  0.18281787  1
  O2-  O448  1  0.41995695  0.35909652  0.52014307  1
  O2-  O449  1  0.40961837  0.32594443  0.85665797  1
  O2-  O450  1  0.42406060  0.57661486  0.17659590  1
  O2-  O451  1  0.42170438  0.58435776  0.51551201  1
  O2-  O452  1  0.41012217  0.57748071  0.85317825  1
  O2-  O453  1  0.43229860  0.84150988  0.16684145  1
  O2-  O454  1  0.41474522  0.76917615  0.52418975  1
  O2-  O455  1  0.42476718  0.85461886  0.84946667  1
  O2-  O456  1  0.66962914  0.09857356  0.18293101  1
  O2-  O457  1  0.68622975  0.11474008  0.52175851  1
  O2-  O458  1  0.67472234  0.09867948  0.85597270  1
  O2-  O459  1  0.67381071  0.34865003  0.18856254  1
  O2-  O460  1  0.63168877  0.26949806  0.59315204  1
  O2-  O461  1  0.66913766  0.32427049  0.85502180  1
  O2-  O462  1  0.66483464  0.58556570  0.18055668  1
  O2-  O463  1  0.66782827  0.59293330  0.52631526  1
  O2-  O464  1  0.73218859  0.56099634  0.89886629  1
  O2-  O465  1  0.68094019  0.86036043  0.18133281  1
  O2-  O466  1  0.68005351  0.84004951  0.51782513  1
  O2-  O467  1  0.65484387  0.84116526  0.84702202  1
  O2-  O468  1  0.93293675  0.10346350  0.18460189  1
  O2-  O469  1  0.92158308  0.08948943  0.50727823  1
  O2-  O470  1  0.91108827  0.09874968  0.83883402  1
  O2-  O471  1  0.91354343  0.33452353  0.18727396  1
  O2-  O472  1  0.92534260  0.32785376  0.50973162  1
  O2-  O473  1  0.91644721  0.33402491  0.85716488  1
  O2-  O474  1  0.90920537  0.56370167  0.17750608  1
  O2-  O475  1  0.92530867  0.58979489  0.51893670  1
  O2-  O476  1  0.92696093  0.57785943  0.85811215  1
  O2-  O477  1  0.91271212  0.82454648  0.19490069  1
  O2-  O478  1  0.90012634  0.83042955  0.51666797  1
  O2-  O479  1  0.90621038  0.87098807  0.86014553  1
  O2-  O480  1  0.15011454  0.09868895  0.32882744  1
  O2-  O481  1  0.16202169  0.08350366  0.64482754  1
  O2-  O482  1  0.16659145  0.07177591  0.98795346  1
  O2-  O483  1  0.16691454  0.32561923  0.30630100  1
  O2-  O484  1  0.16696194  0.33690416  0.63503278  1
  O2-  O485  1  0.18050290  0.35925061  0.97045240  1
  O2-  O486  1  0.18321651  0.52506615  0.27122080  1
  O2-  O487  1  0.15452843  0.57372827  0.63515192  1
  O2-  O488  1  0.17542824  0.59024610  0.97404890  1
  O2-  O489  1  0.17574689  0.85635310  0.32334268  1
  O2-  O490  1  0.15234720  0.83013997  0.65777308  1
  O2-  O491  1  0.16119975  0.83418939  0.98173266  1
  O2-  O492  1  0.44217940  0.12626518  0.30374285  1
  O2-  O493  1  0.41226451  0.08203314  0.64897666  1
  O2-  O494  1  0.45199720  0.11115593  1.01230749  1
  O2-  O495  1  0.39070929  0.24106902  0.32903470  1
  O2-  O496  1  0.41266073  0.33900709  0.63740634  1
  O2-  O497  1  0.41903569  0.33897851  0.98074897  1
  O2-  O498  1  0.39992212  0.58309677  0.37328914  1
  O2-  O499  1  0.41454084  0.58349063  0.63743174  1
  O2-  O500  1  0.42750629  0.59565691  0.97493726  1
  O2-  O501  1  0.41856321  0.82579228  0.29158853  1
  O2-  O502  1  0.40897960  0.81023786  0.64717455  1
  O2-  O503  1  0.43337280  0.84545522  0.97453140  1
  O2-  O504  1  0.67186665  0.08860882  0.31205921  1
  O2-  O505  1  0.68116355  0.10901466  0.64753149  1
  O2-  O506  1  0.67384504  0.09459525  0.97571376  1
  O2-  O507  1  0.67403816  0.33947203  0.31101003  1
  O2-  O508  1  0.74235778  0.36040289  0.68640710  1
  O2-  O509  1  0.67162990  0.33957390  0.98536874  1
  O2-  O510  1  0.63902795  0.57446820  0.30521702  1
  O2-  O511  1  0.66144153  0.58679272  0.64837351  1
  O2-  O512  1  0.67235326  0.58857761  0.99776581  1
  O2-  O513  1  0.66769582  0.83313534  0.31354035  1
  O2-  O514  1  0.67330227  0.84717543  0.63984098  1
  O2-  O515  1  0.65825782  0.83166257  0.97073374  1
  O2-  O516  1  0.92990708  0.10691149  0.30805166  1
  O2-  O517  1  0.92057518  0.09566629  0.63480303  1
  O2-  O518  1  0.90165387  0.05383629  0.99703919  1
  O2-  O519  1  0.92055692  0.33268895  0.30841026  1
  O2-  O520  1  0.91446987  0.34467661  0.66387288  1
  O2-  O521  1  0.92227952  0.34445539  0.98146234  1
  O2-  O522  1  0.96198062  0.54520034  0.28503211  1
  O2-  O523  1  0.93121807  0.57856527  0.64417053  1
  O2-  O524  1  0.91661763  0.58346970  0.98204447  1
  O2-  O525  1  0.90646486  0.84324684  0.31877016  1
  O2-  O526  1  0.90410728  0.85371452  0.64017925  1
  O2-  O527  1  0.90423313  0.83420066  0.98655792  1
  O2-  O528  1  0.06695559  0.12931484  0.02421414  1
  O2-  O529  1  0.09305255  0.13163885  0.34645438  1
  O2-  O530  1  0.08598929  0.17328188  0.67845571  1
  O2-  O531  1  0.08845590  0.43051346  0.02445042  1
  O2-  O532  1  0.07754771  0.40091112  0.34694478  1
  O2-  O533  1  0.08427094  0.41648584  0.68526997  1
  O2-  O534  1  0.08201504  0.65984743  0.01171946  1
  O2-  O535  1  0.09729327  0.68757264  0.35740346  1
  O2-  O536  1  0.08744420  0.66629775  0.69225943  1
  O2-  O537  1  0.06677734  0.90876464  0.02743462  1
  O2-  O538  1  0.07424805  0.92954937  0.36118782  1
  O2-  O539  1  0.07161961  0.92013897  0.68596178  1
  O2-  O540  1  0.33166056  0.17567491  0.03240947  1
  O2-  O541  1  0.31927447  0.20810079  0.37255225  1
  O2-  O542  1  0.33029246  0.17184523  0.67973225  1
  O2-  O543  1  0.34433936  0.43385954  0.01648227  1
  O2-  O544  1  0.31543439  0.41245827  0.35297708  1
  O2-  O545  1  0.33023161  0.41925160  0.68467393  1
  O2-  O546  1  0.34441249  0.67494349  0.01040560  1
  O2-  O547  1  0.31096147  0.65736985  0.33154795  1
  O2-  O548  1  0.31018843  0.63369179  0.68364335  1
  O2-  O549  1  0.38597226  0.94314123  0.03576372  1
  O2-  O550  1  0.34605191  0.93585381  0.32024435  1
  O2-  O551  1  0.32381248  0.91168389  0.68085896  1
  O2-  O552  1  0.62419481  0.19440677  0.04705288  1
  O2-  O553  1  0.59639852  0.17750949  0.35602822  1
  O2-  O554  1  0.57155705  0.14878569  0.70817392  1
  O2-  O555  1  0.58391248  0.41736425  0.02518927  1
  O2-  O556  1  0.55487402  0.40025178  0.34481461  1
  O2-  O557  1  0.56955281  0.41635413  0.68008689  1
  O2-  O558  1  0.58475503  0.66897051  0.02189424  1
  O2-  O559  1  0.57468025  0.66886199  0.35516637  1
  O2-  O560  1  0.58394105  0.68193779  0.67675513  1
  O2-  O561  1  0.59558217  0.92286896  0.01403284  1
  O2-  O562  1  0.58042031  0.91684192  0.34158821  1
  O2-  O563  1  0.60201476  0.93823695  0.67590385  1
  O2-  O564  1  0.90223065  0.20341149  0.03681786  1
  O2-  O565  1  0.83760901  0.17472025  0.34541462  1
  O2-  O566  1  0.84539167  0.17928652  0.68573497  1
  O2-  O567  1  0.83952835  0.42339400  0.02322275  1
  O2-  O568  1  0.84080370  0.41200916  0.35100776  1
  O2-  O569  1  0.89049991  0.36888276  0.72103843  1
  O2-  O570  1  0.84127324  0.67230580  0.03030929  1
  O2-  O571  1  0.78796013  0.70204928  0.36892914  1
  O2-  O572  1  0.81546604  0.62439740  0.69399799  1
  O2-  O573  1  0.81080445  0.89865625  0.01499411  1
  O2-  O574  1  0.82099515  0.91349215  0.35290227  1
  O2-  O575  1  0.83353387  0.93734738  0.68389061  1
